49
Generated by autodE on: 2022-06-05. E = -1464.962661 Ha
C    -0.04382   1.59471  -2.31678
N     0.43498   0.62188  -1.34692
C     0.98852  -0.59497  -1.87674
C     2.28799  -0.31813  -2.55363
N     3.27147  -0.07414  -3.11596
C     0.15774  -1.24573  -2.94336
N    -0.47810  -1.73242  -3.78185
C     1.13157  -1.55811  -0.66947
C     2.56122  -1.74832  -0.04985
C     3.23127  -0.40610   0.19528
C     2.57829   0.12463   1.23594
C     1.51094  -0.89110   1.60484
O     2.16671  -2.12319   1.27205
C     0.33669  -0.91188   0.50473
C    -0.75639  -1.86028   1.04525
F    -1.63591  -1.21691   1.83829
F    -1.46341  -2.45745   0.06754
F    -0.25782  -2.86084   1.78961
C    -0.22596   0.49321  -0.02689
C     0.24036   1.61636   0.91954
C    -0.10880   1.56635   2.27935
C     0.33046   2.54514   3.17096
C     1.11547   3.60974   2.71658
C     1.45361   3.67835   1.36377
C     1.02231   2.68864   0.47519
C    -1.76813   0.60046  -0.23556
C    -2.40504  -0.20070  -1.19792
C    -3.76344  -0.06362  -1.48251
C    -4.53047   0.89503  -0.81492
C    -3.91185   1.71441   0.12936
C    -2.54875   1.57229   0.40939
H    -0.83614   1.19262  -2.97337
H    -0.45550   2.46705  -1.79821
H     0.79245   1.93492  -2.94811
H     0.75037  -2.54718  -0.94099
H     3.15164  -2.53053  -0.53754
H     4.05248   0.01419  -0.38074
H     2.74802   1.07331   1.73643
H     1.15876  -0.89346   2.63929
H    -0.72145   0.74672   2.65399
H     0.05680   2.47426   4.22618
H     1.46147   4.37707   3.41289
H     2.07135   4.49966   0.99307
H     1.34199   2.74134  -0.56276
H    -1.84465  -0.95210  -1.74521
H    -4.21980  -0.70863  -2.23704
H    -5.59427   1.00744  -1.03676
H    -4.48661   2.48150   0.65374
H    -2.10351   2.24506   1.13819
