33
Generated by autodE on: 2022-07-27. E = -820.210124 Ha
C    -0.55466  -0.85587  -2.55149
N     0.23521  -0.56367  -1.34225
C    -0.30566  -0.01416  -0.26262
C     0.52874   0.65101   0.75681
C     0.27435   0.43603   2.12215
C     1.02071   1.10752   3.09197
C     2.01103   2.01563   2.70925
C     2.25900   2.24653   1.34983
C     1.53302   1.56356   0.37817
C    -1.76014  -0.06357  -0.03534
C    -2.48997  -1.25282  -0.22768
C    -3.85693  -1.28897   0.04365
C    -4.51438  -0.14180   0.50057
C    -3.79569   1.04192   0.70070
C    -2.42546   1.07992   0.44825
C     1.59797  -0.94203  -1.41159
C     2.27962  -1.36704  -0.26254
N     2.86317  -1.73674   0.68385
C     2.28608  -0.89545  -2.63307
N     2.88424  -0.87353  -3.64122
H    -0.72200  -1.93664  -2.64388
H    -1.50444  -0.31690  -2.51946
H     0.02184  -0.50979  -3.41933
H    -0.50349  -0.26839   2.42100
H     0.82362   0.92307   4.15020
H     2.59000   2.54701   3.46797
H     3.02364   2.96511   1.04689
H     1.73318   1.74489  -0.67908
H    -1.98068  -2.15641  -0.56526
H    -4.41071  -2.21979  -0.09648
H    -5.58636  -0.17242   0.70824
H    -4.30505   1.93890   1.05938
H    -1.86410   2.00138   0.61043
