33
Generated by autodE on: 2022-06-05. E = -820.210119 Ha
C    -1.85883   1.03547   1.74295
N    -0.67475   0.98645   0.86722
C    -0.32442  -0.11437   0.21513
C    -1.29308  -1.19852  -0.02153
C    -2.59983  -0.92871  -0.47287
C    -3.48089  -1.97632  -0.73729
C    -3.07584  -3.30189  -0.54786
C    -1.77728  -3.57896  -0.10670
C    -0.88572  -2.53695   0.14214
C     1.04296  -0.28792  -0.31256
C     1.23549  -0.81397  -1.60140
C     2.52569  -1.03241  -2.08730
C     3.63355  -0.74997  -1.28426
C     3.44809  -0.24133   0.00791
C     2.16449  -0.00084   0.48993
C     0.03472   2.20703   0.75127
C     0.10071   3.09549   1.83481
N     0.16702   3.85996   2.72135
C     0.68546   2.54299  -0.44417
N     1.22536   2.84687  -1.43869
H    -1.56505   1.53163   2.67728
H    -2.19969   0.02335   1.97291
H    -2.65814   1.61817   1.26740
H    -2.91771   0.10121  -0.64064
H    -4.48774  -1.75677  -1.09897
H    -3.77038  -4.12004  -0.75145
H    -1.45650  -4.61253   0.04006
H     0.12907  -2.75319   0.47968
H     0.36937  -1.04002  -2.22552
H     2.66440  -1.42859  -3.09553
H     4.64328  -0.92720  -1.66143
H     4.31160  -0.03145   0.64286
H     2.02606   0.39979   1.49537
