16
Generated by autodE on: 2022-06-05. E = -644.713705 Ha
F     1.98166  -1.07091   1.06364
C     1.50144  -0.24418   0.11976
F     2.25375   0.87722   0.15206
F     1.73986  -0.82356  -1.07986
C     0.06163   0.04609   0.29415
C    -0.81039  -0.46305   1.16668
C    -2.17325   0.12083   0.72699
C    -2.53141  -0.54792  -0.62139
C    -1.65740  -0.04470  -1.49735
C    -0.78043   0.92223  -0.66914
O    -1.75197   1.42014   0.26559
H    -0.65023  -1.18295   1.96781
H    -2.95765   0.18340   1.48829
H    -3.29994  -1.30787  -0.75740
H    -1.51147  -0.27360  -2.55221
H    -0.25577   1.72374  -1.19937
