49
Generated by autodE on: 2022-06-05. E = -1464.881158 Ha. Imaginary frequency = -343.2 cm-1
C    -0.90331   0.32114  -2.86158
N    -0.05685   0.50863  -1.66499
C     1.28571   0.04097  -1.81852
C     2.39870   0.91160  -1.53941
N     3.35956   1.56202  -1.45378
C     1.56134  -0.62758  -3.06614
N     1.85351  -1.24109  -4.01032
C     1.30165  -1.62650  -0.57625
C     2.69263  -1.88215   0.09759
C     3.19571  -0.61283   0.77209
C     2.35795  -0.40775   1.79373
C     1.36607  -1.56615   1.74361
O     2.23979  -2.63104   1.25040
C     0.42193  -1.43869   0.51040
C    -0.80899  -2.24671   0.59928
F    -1.78870  -1.68464   1.35626
F    -1.34902  -2.52106  -0.61266
F    -0.60325  -3.46793   1.18132
C    -0.59442   0.82891  -0.46134
C     0.15702   1.59621   0.56781
C    -0.10159   1.36769   1.93245
C     0.42950   2.20642   2.90549
C     1.23483   3.29210   2.53482
C     1.47075   3.54643   1.18329
C     0.91631   2.71690   0.20319
C    -2.07531   0.97569  -0.33737
C    -2.99246   0.00209  -0.78303
C    -4.36449   0.18936  -0.63287
C    -4.86079   1.35974  -0.05049
C    -3.96808   2.34242   0.38375
C    -2.59332   2.15042   0.25049
H    -1.15795  -0.73687  -3.01022
H    -1.81611   0.91186  -2.76150
H    -0.35097   0.68982  -3.73358
H     1.02517  -2.28024  -1.40461
H     3.39976  -2.45506  -0.51111
H     4.03761  -0.00862   0.44810
H     2.34839   0.40860   2.51043
H     0.88147  -1.84881   2.68376
H    -0.71886   0.51541   2.21779
H     0.22755   2.00765   3.96020
H     1.66227   3.94482   3.29932
H     2.07122   4.40740   0.88134
H     1.04525   2.97226  -0.84770
H    -2.63801  -0.92022  -1.23069
H    -5.05121  -0.58860  -0.97347
H    -5.93765   1.50495   0.06194
H    -4.34069   3.26698   0.82992
H    -1.91604   2.93372   0.58767
