39
Generated by autodE on: 2022-10-21. E = -993.247283 Ha
C     3.08724  -0.48809  -1.69546
O     2.08633  -0.29598  -0.68779
C     1.64054  -1.35785  -0.03038
O     2.05590  -2.48423  -0.19425
C     0.53384  -0.95820   0.96999
C     0.32827  -2.05220   2.00075
O     0.95263   0.21657   1.67450
C     0.55893   1.40742   1.02650
C     1.70076   2.11557   0.41461
N     2.58936   2.74050   0.00904
C    -0.60570   1.04656   0.04492
C    -0.36248   1.51903  -1.30996
N    -0.18827   1.92406  -2.38307
C    -1.96261   1.54005   0.63847
C    -3.10743   1.18620  -0.32455
C    -3.22215  -0.35724  -0.18197
C    -2.10629  -0.71130   0.83059
C    -2.16224   0.51021   1.76577
C    -0.73190  -0.54189   0.13124
O    -0.67620  -1.09683  -1.16554
C    -1.00336  -2.47905  -1.30206
H     3.97959  -0.96174  -1.26315
H     2.68758  -1.11549  -2.50503
H     3.32848   0.51289  -2.07032
H    -0.03327  -2.97222   1.52433
H     1.28028  -2.27038   2.50504
H    -0.40180  -1.72844   2.75257
H     0.17892   2.09512   1.79781
H    -1.91412   2.59738   0.92731
H    -2.90288   1.50804  -1.35549
H    -4.02698   1.69267   0.00082
H    -3.11493  -0.87447  -1.14163
H    -4.19208  -0.64679   0.24606
H    -2.23262  -1.68990   1.30563
H    -3.14244   0.61710   2.25153
H    -1.38536   0.52385   2.54101
H    -0.25885  -3.12706  -0.81703
H    -2.00012  -2.71038  -0.89812
H    -1.00206  -2.68559  -2.38070
