17
Generated by autodE on: 2022-10-26. E = -513.409361 Ha
C     1.47297  -0.08330  -2.08673
O     0.67393   0.00535  -0.90322
C     0.29841  -1.12680  -0.31124
O     0.60263  -2.24431  -0.70349
C    -0.51666  -0.90860   0.88155
C    -0.97242  -2.07418   1.68575
O    -0.87664   0.26181   1.31550
C    -0.82640   1.55270   1.08899
C    -0.23508   2.24192   0.01830
N     0.18270   2.98060  -0.78916
H     2.42502  -0.58896  -1.86937
H     1.65257   0.95118  -2.40178
H     0.93472  -0.63395  -2.87191
H    -1.59573  -2.75036   1.07625
H    -0.11229  -2.66596   2.04194
H    -1.55566  -1.73101   2.54986
H    -1.35074   2.12926   1.85161
