39
Generated by autodE on: 2022-10-21. E = -993.149198 Ha. Imaginary frequency = -263.4 cm-1
C     2.76622  -0.45747  -1.79829
O     2.15840  -0.25462  -0.52090
C     1.71899  -1.31689   0.15099
O     1.89326  -2.47073  -0.21299
C     0.93819  -0.96102   1.33814
C     0.53249  -2.02998   2.29426
O     0.90939   0.26122   1.85232
C     0.94876   1.49020   1.37114
C     1.93460   2.04443   0.52179
N     2.68762   2.67407  -0.11180
C    -0.87702   0.92976  -0.26718
C    -0.31774   1.61247  -1.37205
N     0.14633   2.17971  -2.28006
C    -2.05387   1.47626   0.55088
C    -3.32610   1.23271  -0.31384
C    -3.46445  -0.31817  -0.30521
C    -2.25398  -0.77821   0.57855
C    -2.20626   0.36540   1.60671
C    -1.03970  -0.46483  -0.27586
O    -0.62497  -1.21631  -1.30678
C    -0.98215  -2.60440  -1.32058
H     3.66107  -1.08945  -1.70635
H     2.04817  -0.92592  -2.48654
H     3.03978   0.54124  -2.15760
H     0.21256  -2.92521   1.74689
H     1.37418  -2.32360   2.94796
H    -0.29140  -1.68147   2.93158
H     0.48093   2.20420   2.05359
H    -1.92664   2.50260   0.91396
H    -3.21343   1.64684  -1.32612
H    -4.19684   1.71547   0.15393
H    -3.42889  -0.75830  -1.31120
H    -4.40098  -0.64037   0.17215
H    -2.32130  -1.80263   0.95970
H    -3.14867   0.45231   2.16601
H    -1.37259   0.30047   2.31297
H    -0.71837  -3.09090  -0.37308
H    -2.05893  -2.72069  -1.51450
H    -0.40910  -3.05843  -2.13738
