34
Generated by autodE on: 2022-06-17. E = -691.258339 Ha
C     0.30491   3.00893   0.14603
C    -0.45712   1.90464  -0.54273
O    -1.09953   2.11979  -1.55686
C    -0.41867   0.51514   0.11993
C     0.99611  -0.05092   0.00711
C     1.50617  -0.94093   0.96442
C     2.77967  -1.49916   0.81708
C     3.56842  -1.17608  -0.29008
C     3.07001  -0.29236  -1.25183
C     1.79649   0.26167  -1.10410
N    -0.85909   0.71063   1.53221
N    -1.98302  -0.13307   1.81387
C    -2.00242  -1.17222   0.77306
C    -3.37686  -1.79721   0.63041
C    -1.49187  -0.44370  -0.47795
C    -1.04467  -1.33952  -1.62239
H    -0.39783   3.54704   0.80280
H     0.68474   3.71926  -0.60168
H     1.12492   2.63088   0.77018
H     0.90968  -1.21893   1.83498
H     3.15421  -2.19200   1.57440
H     4.56483  -1.60958  -0.40302
H     3.67459  -0.03114  -2.12364
H     1.42283   0.94111  -1.87324
H    -0.10504   0.45434   2.16379
H    -2.81739   0.44103   1.66839
H    -1.27349  -1.95416   1.05127
H    -4.12153  -1.03673   0.34013
H    -3.70226  -2.25611   1.57706
H    -3.37062  -2.58021  -0.14234
H    -2.31418   0.19522  -0.83791
H    -0.26620  -2.05008  -1.30508
H    -1.89892  -1.91997  -2.00460
H    -0.64363  -0.74716  -2.45855
