22
Generated by autodE on: 2022-06-17. E = -533.913717 Ha
C    -2.05689  -1.54046   0.94634
C    -2.12792  -0.22666   0.21282
O    -3.22683   0.29897  -0.03566
C    -0.89143   0.41694  -0.21066
N    -1.10804   1.55486  -0.90015
N    -0.34156   2.42889  -1.43149
C     0.47948  -0.07033   0.03312
C     1.37250  -0.26329  -1.03953
C     2.66930  -0.72734  -0.81093
C     3.09545  -1.01215   0.49023
C     2.21760  -0.82544   1.56273
C     0.92326  -0.35278   1.33796
H    -1.25472  -2.18689   0.56388
H    -1.85185  -1.35708   2.01406
H    -3.02771  -2.04762   0.86444
H    -2.12440   1.73207  -0.98989
H     0.63032   2.13703  -1.25281
H     1.04403  -0.06231  -2.06192
H     3.34721  -0.87527  -1.65485
H     4.10943  -1.37806   0.66776
H     2.54455  -1.04168   2.58254
H     0.24841  -0.19341   2.18095
