22
Generated by autodE on: 2022-07-27. E = -533.903775 Ha
C    -2.58830   2.06323   0.37224
C    -1.26161   1.52031  -0.09016
O    -0.56858   2.18237  -0.87540
C    -0.78855   0.21783   0.37519
N    -1.44694  -0.52799   1.28937
N    -2.50725  -0.26540   1.96732
C     0.48560  -0.35614  -0.11102
C     1.37398  -0.98778   0.78198
C     2.55775  -1.57351   0.32539
C     2.88882  -1.52329  -1.03076
C     2.02128  -0.88799  -1.92721
C     0.83303  -0.31374  -1.47663
H    -2.56751   2.26869   1.45342
H    -2.79425   2.98826  -0.18320
H    -3.39531   1.33053   0.22284
H    -0.99666  -1.44319   1.43943
H    -2.69948  -1.10603   2.52184
H     1.15037  -1.00384   1.85193
H     3.23046  -2.05602   1.03846
H     3.81825  -1.97234  -1.38856
H     2.26825  -0.84811  -2.99098
H     0.15972   0.16400  -2.18772
