34
Generated by autodE on: 2022-06-17. E = -691.184819 Ha. Imaginary frequency = -394.4 cm-1
C    -1.38704   2.59012   0.83316
C    -0.60469   1.67554  -0.08549
O    -0.34925   2.06465  -1.22863
C    -0.07714   0.39077   0.42261
C     1.28076  -0.04402   0.02016
C     2.20091  -0.51577   0.97940
C     3.47307  -0.95305   0.60513
C     3.86672  -0.91887  -0.73542
C     2.96985  -0.44072  -1.69578
C     1.69417  -0.01046  -1.32731
N    -0.56295  -0.12663   1.58822
N    -1.86486  -0.05162   1.81590
C    -2.73839  -0.85198   0.17534
C    -3.89075   0.09367  -0.03101
C    -1.70277  -0.94799  -0.75856
C    -0.87105  -2.19443  -0.85354
H    -1.19873   2.40223   1.89695
H    -1.11579   3.62224   0.56591
H    -2.46524   2.46792   0.65860
H     1.93965  -0.52097   2.03983
H     4.16423  -1.31041   1.37234
H     4.86286  -1.25850  -1.02837
H     3.26102  -0.40975  -2.74869
H     1.00288   0.34633  -2.08674
H    -0.06505  -0.95341   1.92924
H    -2.06699  -0.69412   2.58946
H    -2.98367  -1.77221   0.71966
H    -4.70376  -0.40052  -0.59121
H    -4.30980   0.43785   0.92742
H    -3.58144   0.97899  -0.60710
H    -1.70549  -0.26630  -1.61305
H    -0.49300  -2.49982   0.13919
H    -1.46485  -3.04536  -1.23677
H    -0.00562  -2.07217  -1.51869
