44
Generated by autodE on: 2022-10-21. E = -1133.095607 Ha
C     3.19970   1.38692   2.46448
N     2.41704   0.45270   1.67878
C     1.89909   0.79729   0.49528
O     2.13698   1.86335  -0.07014
C     0.97126  -0.26111  -0.18784
C     1.83989  -1.52796  -0.33227
C     2.40943  -1.82506  -1.68448
O     2.09273  -2.19455   0.65489
O     0.65342   0.20295  -1.48778
C    -0.62608   0.80882  -1.57392
C    -1.14125   0.61235  -2.99812
C    -0.53500   2.27754  -1.34623
N    -0.49859   3.43313  -1.26094
C    -1.47327   0.15934  -0.43405
F    -2.23546   1.14881   0.16758
C    -2.36006  -1.02247  -0.84960
C    -3.24266  -1.39990   0.35833
C    -2.23110  -2.04751   1.34423
C    -0.88907  -1.96588   0.58761
C    -1.34433  -2.17923  -0.86719
C    -0.41693  -0.48538   0.57085
O    -0.42042  -0.01473   1.88584
C    -0.45141   1.37570   2.20926
H     3.52231   0.88950   3.38703
H     4.08950   1.71945   1.90857
H     2.60746   2.27892   2.72695
H     2.12810  -0.42931   2.09069
H     3.08051  -2.69032  -1.61587
H     1.60515  -2.02041  -2.40899
H     2.95567  -0.94165  -2.05231
H    -2.14233   1.05213  -3.10450
H    -1.18114  -0.45712  -3.23749
H    -0.45757   1.10848  -3.70092
H    -2.92461  -0.83634  -1.76964
H    -4.00811  -2.11798   0.03216
H    -3.75984  -0.52888   0.77945
H    -2.18678  -1.53604   2.31265
H    -2.47323  -3.10348   1.53066
H    -0.12995  -2.64868   0.97572
H    -0.55588  -2.07486  -1.62295
H    -1.83144  -3.15394  -1.01068
H    -1.48047   1.69304   2.43200
H     0.16866   1.51088   3.10646
H    -0.05516   2.01734   1.41113
