43
Generated by autodE on: 2022-10-21. E = -1455.272226 Ha
C     0.24426  -2.17710   2.29448
O     0.64304  -1.11836   1.42937
C    -0.09567  -0.85885   0.27861
O    -0.45509  -2.09062  -0.26918
C    -0.87071  -2.18889  -1.62700
N     0.71161  -0.04162  -0.60226
C     2.01930  -0.37433  -0.97548
C     2.47722  -1.70872  -0.93788
C     3.77678  -2.01424  -1.34159
C     4.64810  -1.01742  -1.79417
C     4.19444   0.30359  -1.83248
C     2.89977   0.62992  -1.42355
N     0.38497   1.33120  -0.50091
C    -1.06779   1.34761  -0.39742
C    -1.70057   1.25541  -1.79236
C    -1.51990   2.66662   0.25066
C    -2.99699   2.89485   0.39822
O    -0.69440   3.50647   0.55851
C    -1.37939   0.10339   0.50007
Cl   -1.34277   0.69737   2.28930
O    -2.59288  -0.42161   0.20403
C    -3.13103  -1.49733   0.97941
H    -0.80429  -2.08211   2.61332
H     0.88951  -2.09945   3.18001
H     0.39424  -3.15964   1.82318
H    -0.12314  -1.75931  -2.30996
H    -0.96527  -3.26358  -1.83101
H    -1.84418  -1.70621  -1.79216
H     1.81886  -2.50382  -0.59517
H     4.10970  -3.05457  -1.30173
H     5.66342  -1.26738  -2.10923
H     4.85610   1.10120  -2.18017
H     2.55861   1.66289  -1.45393
H     0.78309   1.71595   0.36481
H    -2.78678   1.12068  -1.73611
H    -1.48038   2.18357  -2.33933
H    -1.27075   0.41733  -2.35333
H    -3.17543   3.62408   1.19926
H    -3.37285   3.31939  -0.54822
H    -3.54560   1.96334   0.58635
H    -2.46351  -2.36765   0.97882
H    -3.31362  -1.16112   2.01049
H    -4.08429  -1.75814   0.50381
