25
Generated by autodE on: 2022-10-26. E = -573.250013 Ha
C    -3.05983   3.17203   0.86443
C    -1.89270   2.22309   0.93175
O    -1.03798   2.29008   1.85709
C    -1.78172   1.21895  -0.12686
C    -2.74038   1.05628  -1.25452
N    -0.70102   0.44732  -0.01505
N    -0.34206  -0.53056  -0.78513
C     0.88363  -1.12812  -0.50029
C     1.13031  -2.36824  -1.12979
C     2.32354  -3.05374  -0.91559
C     3.30719  -2.51820  -0.07478
C     3.08180  -1.28099   0.53929
C     1.89157  -0.58373   0.33023
H    -3.06496   3.71327  -0.09552
H    -3.00285   3.88839   1.69397
H    -4.00998   2.61616   0.92151
H    -2.51409   0.14331  -1.81915
H    -2.69093   1.91293  -1.94886
H    -3.77687   0.99763  -0.88779
H    -0.13792   0.70670   0.81698
H     0.35633  -2.77968  -1.78090
H     2.48843  -4.01508  -1.40840
H     4.24420  -3.05387   0.09191
H     3.84955  -0.84275   1.18184
H     1.77333   0.39673   0.79710
