43
Generated by autodE on: 2022-10-21. E = -1455.202667 Ha. Imaginary frequency = -407.3 cm-1
C     1.61003  -1.71984   1.69571
O     0.63518  -0.70964   1.40275
C    -0.36581  -0.96946   0.55561
O    -0.39573  -2.22513   0.08842
C    -1.04592  -2.57393  -1.14025
N     0.61277   0.05819  -1.32122
C     1.94450  -0.29640  -1.23656
C     2.29394  -1.56109  -1.77214
C     3.58503  -2.06093  -1.64407
C     4.57636  -1.31233  -0.99203
C     4.25417  -0.04636  -0.49249
C     2.96148   0.46679  -0.61382
N     0.29086   1.28270  -0.88944
C    -1.03802   1.52687  -0.73847
C    -1.95901   1.17903  -1.87583
C    -1.29695   2.77361   0.04958
C    -2.71200   3.26566   0.13587
O    -0.37189   3.35406   0.61012
C    -1.49812  -0.08650   0.61709
Cl   -1.63092   0.76931   2.22929
O    -2.69733  -0.55301   0.17322
C    -3.37302  -1.50209   1.01056
H     1.14843  -2.52494   2.28804
H     2.38084  -1.21674   2.29088
H     2.05601  -2.13764   0.78685
H    -0.85890  -1.79547  -1.88875
H    -0.59168  -3.52117  -1.45741
H    -2.12420  -2.71842  -0.99510
H     1.52189  -2.14255  -2.27773
H     3.82567  -3.04383  -2.05726
H     5.59011  -1.70565  -0.88956
H     5.02197   0.55578   0.00053
H     2.75691   1.46420  -0.22149
H     0.86852   1.73782  -0.17276
H    -3.00855   1.20660  -1.56627
H    -1.81967   1.91134  -2.68988
H    -1.74048   0.18052  -2.26825
H    -2.77729   4.07169   0.87767
H    -3.03137   3.64685  -0.84843
H    -3.39286   2.44498   0.40505
H    -2.71036  -2.33593   1.28888
H    -3.73879  -1.00968   1.92407
H    -4.22379  -1.87960   0.42889
