45
Generated by autodE on: 2022-06-19. E = -980.592000 Ha
C    -0.68410  -1.61433  -2.38733
O    -0.15551  -0.54995  -1.57900
C     0.36856  -0.89359  -0.40717
O     0.45331  -2.03918  -0.01341
C     0.93807   0.31792   0.35752
C     2.39483   0.47998  -0.06695
C     2.82733   1.63990  -0.71967
C     4.16896   1.77932  -1.09004
C     5.08608   0.76118  -0.81680
C     4.65498  -0.40188  -0.16931
C     3.31657  -0.54370   0.20243
C     0.74998   0.15769   1.87220
C    -0.60935   0.85583   2.09565
C    -0.78256   1.37844   3.51947
C    -1.72779  -0.08879   1.72177
C    -2.48698  -0.00919   0.61386
C    -3.48932  -0.99679   0.24852
C    -4.15903  -1.06662  -0.92694
C    -3.95955  -0.11307  -2.07163
C    -5.16615  -2.15352  -1.17824
N    -0.52485   1.99349   1.16362
O     0.17287   1.48535   0.00625
H    -1.48868  -2.13500  -1.85038
H     0.11167  -2.32795  -2.64456
H    -1.07578  -1.13797  -3.29252
H     2.11065   2.43262  -0.93326
H     4.49644   2.69031  -1.59690
H     6.13343   0.87179  -1.10744
H     5.36448  -1.20359   0.04884
H     2.98515  -1.45557   0.70292
H     0.76780  -0.89395   2.18005
H     1.54136   0.70346   2.40466
H    -1.72493   1.93874   3.61325
H     0.05424   2.03835   3.79870
H    -0.80973   0.53711   4.22689
H    -1.85567  -0.93429   2.40722
H    -2.31930   0.82781  -0.06686
H    -3.69660  -1.76799   1.00005
H    -3.16440   0.62285  -1.89802
H    -3.70997  -0.67315  -2.98932
H    -4.89601   0.43085  -2.28883
H    -5.28537  -2.81837  -0.31007
H    -4.87113  -2.76582  -2.04924
H    -6.15287  -1.72342  -1.42721
H     0.14204   2.65331   1.57832
