23
Generated by autodE on: 2022-06-19. E = -351.521380 Ha
C    -3.60707   0.80971  -0.79493
C    -2.56881   0.12102  -0.27194
C    -2.78641  -1.14379   0.51877
C    -1.20205   0.59955  -0.46982
C    -0.07839   0.00074  -0.00113
C     1.25578   0.51806  -0.22689
C     2.42465  -0.02391   0.19942
C     2.53087  -1.29240   0.99746
C     3.73776   0.63572  -0.11423
H    -3.44571   1.72779  -1.36834
H    -4.63949   0.47426  -0.66274
H    -2.26577  -1.99752   0.05395
H    -3.85534  -1.38916   0.59127
H    -2.38273  -1.04809   1.54047
H    -1.09797   1.52415  -1.05035
H    -0.17362  -0.92139   0.57856
H     1.31133   1.44806  -0.80563
H     1.56266  -1.76503   1.20727
H     3.16296  -2.02546   0.46573
H     3.03457  -1.09703   1.96072
H     4.28541   0.87848   0.81420
H     3.61040   1.56100  -0.69513
H     4.39281  -0.04754  -0.68427
