22
Generated by autodE on: 2022-06-19. E = -628.968746 Ha
C     2.47076  -1.56239   2.02333
O     1.43452  -1.04419   1.17531
C     1.41647   0.27548   0.98684
O     2.24531   1.03251   1.48317
C     0.33623   0.72970   0.10686
O     0.31034   1.99139  -0.27151
N     1.09048   3.01368  -0.00609
C    -0.73199  -0.08307  -0.48172
C    -1.26105  -1.21494   0.17252
C    -2.30209  -1.94134  -0.40570
C    -2.83728  -1.55812  -1.63919
C    -2.32344  -0.43305  -2.29404
C    -1.28295   0.29765  -1.72487
H     2.39625  -1.12749   3.03032
H     2.30853  -2.64529   2.06307
H     3.46008  -1.33897   1.59897
H     1.81293   2.64932   0.63763
H    -0.86846  -1.51531   1.14219
H    -2.70345  -2.81160   0.11870
H    -3.65042  -2.13251  -2.08872
H    -2.73065  -0.12744  -3.26061
H    -0.87871   1.16573  -2.24765
