22
Generated by autodE on: 2022-07-27. E = -628.972638 Ha
C    -3.18133   0.87955  -2.36077
O    -2.46402   0.08908  -1.40297
C    -1.22766   0.50244  -1.10058
O    -0.72395   1.50517  -1.57543
C    -0.53997  -0.39837  -0.14181
O    -1.19738  -1.51054   0.02153
N    -0.83777  -2.52475   0.79324
C     0.72565  -0.07015   0.49974
C     1.08389   1.28712   0.69240
C     2.29280   1.62337   1.29264
C     3.18133   0.62375   1.70729
C     2.84185  -0.71894   1.52421
C     1.62448  -1.06993   0.94075
H    -4.15373   0.38958  -2.48624
H    -3.31740   1.90571  -1.98949
H    -2.64298   0.90754  -3.31934
H    -1.64345  -3.15098   0.65636
H     0.40434   2.07579   0.37690
H     2.54378   2.67591   1.44192
H     4.13021   0.89259   2.17719
H     3.52717  -1.50618   1.84650
H     1.36278  -2.11686   0.81840
