22
Generated by autodE on: 2022-05-25. E = -1159.823470 Ha
C     3.17043  -0.79431  -0.08233
C     2.14729   0.06931   0.58229
O     2.42805   0.92450   1.41254
C     0.71137  -0.08299   0.24204
C     0.03340  -0.84293  -0.63097
Cl    0.61299  -2.00367  -1.73601
C    -1.46304  -0.55623  -0.57562
C    -2.32355  -1.77759  -0.27286
C    -1.88905   0.09402  -1.83921
N    -2.23489   0.59835  -2.82345
O    -1.58138   0.39670   0.48982
C    -0.30714   0.80874   0.95749
C    -0.08955   2.24125   0.63092
N     0.04553   3.35264   0.33486
C    -0.26980   0.62854   2.42784
N    -0.28144   0.45807   3.57296
H     3.16090  -0.62098  -1.17051
H     2.93979  -1.85869   0.08181
H     4.16139  -0.55597   0.32374
H    -1.95934  -2.24591   0.65171
H    -3.36662  -1.45803  -0.14324
H    -2.26964  -2.49709  -1.10146
