9
Generated by autodE on: 2022-05-25. E = -689.705303 Ha
C    -2.52698   0.84089  -0.72091
C    -1.76679  -0.17433   0.08162
O    -2.30294  -1.05257   0.74134
C    -0.31487  -0.06514   0.03957
C     0.89546   0.03577  -0.00141
Cl    2.52757   0.16541  -0.05201
H    -2.26522   1.85548  -0.37838
H    -2.23016   0.77167  -1.78038
H    -3.60653   0.66979  -0.61619
