15
Generated by autodE on: 2022-06-02. E = -454.229234 Ha
C    -3.04223   0.70333  -0.50598
C    -2.36965  -0.15447   0.51653
O    -2.92633  -0.78122   1.39943
C    -0.91191  -0.22465   0.41665
N     0.24940  -0.34029   0.40941
N     1.49965  -0.49013   0.43404
C     2.17564   0.21974  -0.57414
C     3.66038   0.01946  -0.52074
O     1.60361   0.91946  -1.39831
H    -4.12641   0.69982  -0.33385
H    -2.64561   1.73019  -0.44711
H    -2.81248   0.32211  -1.51477
H     3.89601  -1.05110  -0.62881
H     4.14653   0.59323  -1.31894
H     4.04512   0.33745   0.46108
