14
Generated by autodE on: 2022-05-31. E = -320.990085 Ha
C    -1.92137   0.92324   0.69727
C    -1.36052  -0.28114   0.03269
C    -2.22535  -1.40498  -0.41303
N    -0.07631  -0.35161  -0.16283
N     0.79536   0.62251   0.20881
C     2.04708   0.37031  -0.07568
N     3.20244   0.24745  -0.28340
H    -1.47091   1.05079   1.69604
H    -3.01115   0.84460   0.79316
H    -1.66511   1.82868   0.12169
H    -2.98208  -1.03103  -1.12285
H    -1.64955  -2.21099  -0.89001
H    -2.77537  -1.81462   0.45081
H     0.29140  -1.19275  -0.62445
