35
Generated by autodE on: 2022-05-31. E = -807.445208 Ha
C    -0.22236  -1.83893   3.34233
O    -0.35162  -1.45910   1.96186
C    -0.51140  -0.16300   1.70483
O    -0.54373   0.70020   2.55176
C    -0.65435   0.08110   0.19072
C    -2.00845  -0.51091  -0.21270
O    -2.98769  -0.44777   0.50138
O    -1.99917  -1.03625  -1.43049
C    -3.24938  -1.54536  -1.92792
C     0.50217  -0.46215  -0.51951
C     1.57648  -0.42003  -1.08114
C     2.78590   0.11983  -1.70107
C     4.06078  -0.67960  -1.41938
C     2.88901   1.58647  -1.19951
C     1.58876   2.41741  -1.23841
C     0.64489   2.36289  -0.00218
C    -0.69620   1.61119  -0.12707
H    -1.12986  -1.56372   3.89849
H     0.65074  -1.34581   3.79266
H    -0.08912  -2.92651   3.34385
H    -3.61799  -2.35009  -1.27644
H    -3.99455  -0.73879  -1.97754
H    -3.03738  -1.93220  -2.93088
H     2.61931   0.14298  -2.79301
H     3.98508  -1.70371  -1.81543
H     4.25089  -0.74252  -0.33619
H     4.92674  -0.19117  -1.89228
H     3.27817   1.57112  -0.16660
H     3.65706   2.08358  -1.81473
H     1.02230   2.17374  -2.15402
H     1.89685   3.46794  -1.35808
H     0.37275   3.40072   0.24552
H     1.19669   1.99098   0.87603
H    -1.43901   2.05333   0.55220
H    -1.08543   1.72040  -1.15121
