49
Generated by autodE on: 2022-05-31. E = -1128.422109 Ha. Imaginary frequency = -325.3 cm-1
C     1.45607   2.73811  -2.36586
O     1.17826   2.03121  -1.14665
C    -0.10172   1.90944  -0.79951
O    -1.01609   2.40286  -1.41991
C    -0.23635   1.03321   0.46009
C    -1.70150   0.89099   0.89347
O    -2.24624  -0.16933   1.11369
O    -2.28148   2.07161   1.07865
C    -3.65919   2.05529   1.48668
C     0.56006   1.68439   1.64201
C     0.36662   1.02393   3.01260
C     0.68619  -0.47587   3.16127
C     2.06978  -0.91848   2.64673
C     2.07268  -1.79682   1.36936
C     3.51311  -1.96137   0.86828
C     1.14181  -1.22421   0.35139
C     0.35305  -0.27987   0.16286
N    -0.66855  -0.81252  -1.79279
C    -1.94851  -0.53709  -1.93005
N    -3.06162  -0.18646  -2.07187
N    -0.36250  -2.12785  -1.69544
C     0.92070  -2.45763  -1.50644
C     1.96530  -1.73510  -2.30776
C     1.17021  -3.88753  -1.13587
H     1.10130   3.77615  -2.29734
H     0.96710   2.23485  -3.21207
H     2.54495   2.71386  -2.48532
H    -3.96254   3.10524   1.56550
H    -3.76494   1.55141   2.45782
H    -4.26566   1.53531   0.73135
H     1.61850   1.67416   1.35026
H     0.25103   2.73843   1.71220
H     1.00607   1.58911   3.71211
H    -0.66827   1.19530   3.35494
H     0.60737  -0.70844   4.23536
H    -0.10147  -1.07033   2.67392
H     2.59963  -1.48670   3.42823
H     2.69478  -0.03143   2.44615
H     1.68638  -2.79745   1.63533
H     3.91173  -0.99842   0.51180
H     4.15372  -2.30912   1.69375
H     3.59785  -2.69045   0.05177
H    -1.05027  -2.72633  -1.22841
H     2.95969  -1.87880  -1.87051
H     1.75447  -0.66302  -2.38729
H     1.97781  -2.17004  -3.32403
H     1.31913  -4.48582  -2.05145
H     2.08509  -3.98083  -0.53822
H     0.33002  -4.31145  -0.56725
