43
Generated by autodE on: 2022-06-21. E = -1063.087694 Ha
C     3.54543   1.24148  -1.76082
N     2.62432   0.36421  -1.07030
C     2.26801   0.57344   0.20473
O     2.81099   1.42231   0.92156
C     1.14566  -0.32662   0.76711
C     1.61162  -0.89760   2.11280
C    -0.20182   0.47623   0.97190
N    -0.13874   1.89531   1.18957
C     0.22375   2.38633   2.50886
C     0.00083   2.71939   0.08262
C    -0.24781   2.32369  -1.17994
C    -0.67776   0.92814  -1.51930
C    -1.06682   0.10683  -0.25946
C    -2.57383   0.23637  -0.04044
N    -2.97353   1.30218   0.66128
O    -3.34362  -0.59243  -0.53751
C    -0.66199  -1.38895  -0.43352
C    -1.35665  -2.25982   0.56294
N    -1.76951  -2.95772   1.39203
C    -0.98897  -1.90876  -1.77898
N    -1.20518  -2.32822  -2.83698
N     0.77198  -1.36687  -0.21605
C     1.46133  -2.64675  -0.19955
H     3.80304   0.80191  -2.73251
H     3.09823   2.23677  -1.92729
H     4.46597   1.37551  -1.17416
H     2.07824  -0.31770  -1.58847
H     0.84830  -1.57569   2.52025
H     2.55770  -1.44749   2.01159
H     1.76806  -0.08060   2.82810
H    -0.67682   0.03494   1.86007
H     1.31202   2.36429   2.68276
H    -0.26752   1.76836   3.27464
H    -0.13097   3.42066   2.62523
H     0.28768   3.74856   0.31022
H    -0.15042   3.04529  -1.99239
H    -1.53845   0.94308  -2.20725
H     0.11981   0.40202  -2.06693
H    -2.28887   1.92797   1.08143
H    -3.96651   1.45712   0.80994
H     1.20034  -3.27611   0.67020
H     2.54521  -2.47301  -0.19364
H     1.21645  -3.20331  -1.11666
