23
Generated by autodE on: 2022-07-27. E = -605.336652 Ha
C     2.82434   2.88373   0.10693
N     1.64389   2.03789   0.10200
C     1.57682   0.92785   0.84954
O     2.45347   0.56788   1.63815
C     0.30011   0.12617   0.75194
C    -0.46810  -0.05689   2.00662
N    -0.05248  -0.42660  -0.38610
C     0.85592  -0.45304  -1.55100
C    -1.32959  -1.00150  -0.58800
C    -2.47229  -0.39240  -0.04659
N    -3.42618   0.12901   0.38917
C    -1.47816  -2.10920  -1.44003
N    -1.63127  -3.03318  -2.14322
H     3.67559   2.38468  -0.38417
H     3.11702   3.12628   1.13882
H     2.59715   3.81214  -0.43011
H     0.88485   2.25361  -0.53818
H     0.21551   0.05908   2.85784
H    -1.27139   0.69350   2.10655
H    -0.94000  -1.05168   2.02861
H     0.75215  -1.42857  -2.04028
H     1.89394  -0.33687  -1.22602
H     0.57117   0.33686  -2.25825
