23
Generated by autodE on: 2022-06-21. E = -605.335481 Ha
C     3.42298   1.31890  -0.07568
N     2.52992   0.18368  -0.21999
C     1.39601   0.09812   0.48765
O     1.06195   0.91463   1.35032
C     0.54711  -1.12597   0.23547
C     1.17157  -2.47680   0.34334
N    -0.74462  -0.99184   0.03886
C    -1.59494  -2.19935   0.05941
C    -1.38286   0.22485  -0.28955
C    -2.74294   0.41248   0.00422
N    -3.87698   0.60401   0.22766
C    -0.68403   1.26247  -0.92398
N    -0.11858   2.12962  -1.47151
H     4.27864   1.18345  -0.74733
H     2.90556   2.25613  -0.33475
H     3.78870   1.40213   0.95899
H     2.72192  -0.51457  -0.93274
H     2.26357  -2.39348   0.37598
H     0.88573  -3.12157  -0.50261
H     0.84386  -2.98295   1.26781
H    -1.38437  -2.78611   0.96045
H    -1.38306  -2.80173  -0.83440
H    -2.64647  -1.90137   0.05247
