43
Generated by autodE on: 2022-06-21. E = -1063.011109 Ha. Imaginary frequency = -464.9 cm-1
C     4.12836   1.59566   0.32139
N     2.89966   0.84613   0.15580
C     2.29761   0.25380   1.20354
O     2.82114   0.25706   2.32637
C     0.91489  -0.35413   0.99926
C     0.27620  -0.70099   2.32775
C    -0.38777   1.17081   0.39456
N     0.34894   2.20884  -0.20357
C     0.98929   3.18993   0.65173
C     0.55685   2.19679  -1.57356
C    -0.21736   1.46938  -2.39970
C    -1.46542   0.80987  -1.87421
C    -1.37720   0.47380  -0.39112
C    -2.65218   0.13325   0.31239
N    -3.65329  -0.33185  -0.46436
O    -2.79342   0.26388   1.53759
C    -0.54874  -1.64887  -0.34711
C    -1.36458  -2.35430   0.60729
N    -2.07268  -2.96394   1.30025
C    -0.81452  -2.13398  -1.66690
N    -1.10619  -2.47712  -2.74042
N     0.76444  -1.29266  -0.03460
C     1.72724  -1.44080  -1.13223
H     4.40946   2.02853  -0.64652
H     4.94523   0.94621   0.67222
H     4.00288   2.40893   1.05523
H     2.40338   0.94052  -0.72210
H     0.51084   0.08826   3.05084
H    -0.81291  -0.77332   2.26925
H     0.68095  -1.65110   2.71245
H    -0.70396   1.41143   1.40950
H     1.37854   2.72088   1.56721
H     0.28668   3.98717   0.95510
H     1.82831   3.65733   0.11869
H     1.39727   2.80041  -1.92780
H    -0.00676   1.44531  -3.46942
H    -1.72843  -0.06770  -2.48398
H    -2.32546   1.50075  -1.99954
H    -4.50645  -0.64396  -0.01179
H    -3.52482  -0.54066  -1.44753
H     1.57348  -2.41957  -1.60024
H     2.74582  -1.41920  -0.73884
H     1.60254  -0.65617  -1.89836
