35
Generated by autodE on: 2022-06-16. E = -600.181380 Ha
C     2.16174  -0.33262   1.64870
C     1.37770  -0.41006   0.33845
C     2.25993  -1.08296  -0.71483
O     0.25991  -1.30990   0.60515
C    -0.96972  -0.76945   0.16534
C    -2.09605  -1.39959   0.98723
C    -1.20277  -1.19708  -1.24669
N    -1.40013  -1.60544  -2.31538
C    -0.80226   0.78253   0.28144
C    -1.78857   1.54858  -0.60561
C    -1.06833   1.21168   1.73421
C     0.72048   0.95961  -0.12740
C     0.87560   1.19240  -1.64414
C     1.37456   2.17924   0.53947
H     1.57590   0.12093   2.45797
H     3.08753   0.24572   1.52039
H     2.43871  -1.35213   1.95747
H     2.63593  -2.03696  -0.31497
H     3.12679  -0.45335  -0.96274
H     1.70968  -1.29690  -1.64004
H    -2.13666  -2.48128   0.79458
H    -3.06598  -0.95752   0.71834
H    -1.90624  -1.24329   2.05583
H    -1.73888   1.26193  -1.66359
H    -1.59654   2.63020  -0.53819
H    -2.81892   1.37274  -0.25913
H    -0.44895   0.66854   2.46017
H    -0.87119   2.28546   1.85086
H    -2.12278   1.04869   1.99657
H     0.41780   0.41309  -2.26414
H     1.93978   1.24939  -1.91128
H     0.42215   2.15329  -1.92407
H     1.37413   2.14267   1.63391
H     2.42043   2.27038   0.20788
H     0.85135   3.09854   0.23328
