64
Generated by autodE on: 2022-06-29. E = -1472.176210 Ha
C    -2.96304  -8.44779   5.41271
N    -4.23726  -7.82018   5.11585
C    -5.09938  -7.49273   6.08320
O    -4.92077  -7.74067   7.27463
C    -6.47911  -6.89843   5.64641
C    -6.54721  -6.59056   4.19898
N    -6.68060  -6.43108   3.05692
N    -7.46208  -7.92610   5.96797
C    -8.64784  -7.31367   6.56502
C    -9.79351  -7.21201   5.53323
C    -9.06228  -8.21227   7.67223
N    -9.37056  -8.97345   8.49178
C    -8.11912  -5.94761   7.05311
C    -6.92014  -5.68645   6.48937
C    -6.07850  -4.39950   6.52992
C    -6.77288  -3.28420   5.71156
C    -6.25214  -1.98114   5.78555
C    -6.83866  -0.93007   5.08135
C    -7.95655  -1.16084   4.27115
C    -8.46848  -2.45469   4.17250
C    -7.88046  -3.50574   4.88573
C    -4.67807  -4.62404   5.89750
C    -3.57150  -4.99052   6.68156
C    -2.31401  -5.18848   6.10861
C    -2.13034  -5.02797   4.73292
C    -3.21682  -4.65119   3.94129
C    -4.47066  -4.44082   4.52089
C    -5.88569  -3.88390   8.00279
C    -5.85490  -4.91541   9.14786
C    -7.10073  -4.86870  10.04017
C    -8.37043  -5.54923   9.53080
C    -8.92157  -5.16840   8.11081
C   -10.44644  -5.48164   8.09321
C    -8.92237  -3.70587   7.93981
N    -9.08456  -2.55792   7.89237
H    -2.49877  -7.97637   6.28928
H    -3.08774  -9.52294   5.62197
H    -2.29804  -8.32917   4.54917
H    -4.41041  -7.50879   4.16564
H    -7.69264  -8.51796   5.17294
H    -9.50536  -6.49350   4.75315
H    -9.93635  -8.20110   5.07254
H   -10.74510  -6.90247   5.97549
H    -5.37305  -1.78232   6.40024
H    -6.41981   0.07581   5.16481
H    -8.41920  -0.33840   3.72059
H    -9.33665  -2.65618   3.54028
H    -8.31487  -4.49994   4.79880
H    -3.68245  -5.14841   7.75246
H    -1.47430  -5.47755   6.74460
H    -1.14751  -5.18903   4.28401
H    -3.09158  -4.50866   2.86534
H    -5.29638  -4.12523   3.88623
H    -4.95697  -3.30138   8.01034
H    -6.66969  -3.15207   8.21293
H    -5.69658  -5.93508   8.76857
H    -4.98514  -4.69070   9.78468
H    -7.32287  -3.81426  10.27897
H    -6.86774  -5.35099  11.00374
H    -8.22911  -6.63919   9.52322
H    -9.17797  -5.34498  10.24982
H   -10.92614  -4.89585   8.88840
H   -10.90145  -5.19885   7.13663
H   -10.64301  -6.53996   8.29874
