44
Generated by autodE on: 2022-06-29. E = -906.079321 Ha
C     1.97995   3.53089   1.50830
C     1.67776   2.10109   2.00992
C     2.84081   1.61620   2.77534
N     3.74991   1.24854   3.39615
C     1.36913   1.19117   0.89821
C     0.66082   0.55279   0.15105
C    -0.53025  -0.05709  -0.44579
C    -0.46850   0.01000  -1.98040
C    -1.55603   0.41556  -2.76399
C    -1.46331   0.41899  -4.16117
C    -0.28390   0.01940  -4.79257
C     0.80761  -0.38745  -4.01638
C     0.71257  -0.39183  -2.62444
C    -0.69224  -1.53016  -0.01759
C    -1.75146  -2.28112  -0.55271
C    -1.95292  -3.60724  -0.16805
C    -1.09383  -4.21079   0.75795
C    -0.03628  -3.47289   1.29254
C     0.16190  -2.14132   0.90787
C    -1.70098   0.79545   0.15640
C    -1.67176   0.99786   1.68588
C    -0.94255   2.25012   2.25087
C     0.41909   2.06368   2.94861
H     2.84795   3.53084   0.83437
H     2.18733   4.19097   2.36289
H     1.10932   3.91538   0.95996
H    -2.48887   0.72879  -2.29552
H    -2.32242   0.73859  -4.75605
H    -0.21299   0.02491  -5.88281
H     1.73686  -0.70177  -4.49783
H     1.56666  -0.71361  -2.02318
H    -2.42440  -1.82584  -1.28210
H    -2.78336  -4.17386  -0.59625
H    -1.24898  -5.24996   1.05748
H     0.64311  -3.93113   2.01545
H     0.99037  -1.57464   1.33474
H    -2.64275   0.30124  -0.12253
H    -1.69709   1.77771  -0.34097
H    -1.29134   0.08722   2.17816
H    -2.72409   1.07768   1.99880
H    -1.60154   2.68645   3.01739
H    -0.86305   3.02191   1.46774
H     0.42302   1.10424   3.48886
H     0.56360   2.85719   3.69850
