20
Generated by autodE on: 2022-06-29. E = -566.023422 Ha
C     3.99876   0.65156   0.48172
N     2.73236  -0.01616   0.25126
C     1.57133   0.66031   0.25007
O     1.50484   1.89075   0.43380
C     0.32647  -0.09900   0.01843
C     0.28778  -1.48772  -0.17829
N     0.33108  -2.64616  -0.33492
N    -0.77358   0.69522   0.02260
C    -2.07122   0.51353  -0.13249
C    -3.01712   1.67235  -0.06132
C    -2.59939  -0.78247  -0.37013
N    -3.11405  -1.80961  -0.56915
H     4.17742   1.43900  -0.26725
H     4.80439  -0.08917   0.41363
H     4.03070   1.11801   1.47933
H     2.72819  -1.01791   0.08857
H    -0.46549   1.67064   0.19387
H    -3.75367   1.52117   0.74416
H    -2.46733   2.60419   0.13094
H    -3.57352   1.77593  -1.00681
