64
Generated by autodE on: 2022-06-29. E = -1472.079006 Ha. Imaginary frequency = -277.1 cm-1
C    -3.28144  -8.47357   5.22426
N    -4.41255  -7.65817   4.82912
C    -5.60281  -7.81007   5.43680
O    -5.79820  -8.68954   6.28166
C    -6.73609  -6.94695   4.96732
C    -6.56843  -6.24013   3.73812
N    -6.43963  -5.65875   2.73714
N    -8.01014  -7.44243   5.12032
C    -8.66080  -7.81451   6.22966
C   -10.10219  -8.20995   6.01952
C    -8.06629  -8.32258   7.42905
N    -7.84937  -8.75120   8.49169
C    -8.07925  -5.64336   7.23105
C    -7.03354  -5.31274   6.63070
C    -6.03609  -4.19516   6.51446
C    -6.60232  -3.09859   5.58492
C    -5.92676  -1.86824   5.49668
C    -6.41203  -0.83629   4.69321
C    -7.58763  -1.01164   3.95396
C    -8.26580  -2.22850   4.03268
C    -7.77749  -3.26033   4.84293
C    -4.62847  -4.61730   6.03923
C    -3.72711  -5.24612   6.91475
C    -2.42720  -5.56171   6.51454
C    -1.99662  -5.27376   5.21703
C    -2.88566  -4.66704   4.32740
C    -4.18228  -4.33831   4.73791
C    -5.94784  -3.55327   7.95381
C    -5.90663  -4.48902   9.18422
C    -7.15836  -4.45065  10.07592
C    -8.30721  -5.39597   9.72383
C    -9.01073  -5.23422   8.33983
C   -10.36016  -5.97755   8.38353
C    -9.32631  -3.80987   8.10362
N    -9.59944  -2.69608   7.92183
H    -3.03813  -8.33532   6.28934
H    -3.49334  -9.54083   5.05599
H    -2.41190  -8.18364   4.62385
H    -4.23996  -6.84932   4.23996
H    -8.65559  -7.16851   4.37791
H   -10.61377  -7.47475   5.38128
H   -10.13235  -9.19185   5.51766
H   -10.63767  -8.30320   6.96814
H    -4.99988  -1.71734   6.05254
H    -5.86729   0.10967   4.64222
H    -7.96874  -0.20507   3.32313
H    -9.18477  -2.38354   3.46204
H    -8.32649  -4.19944   4.89563
H    -4.02872  -5.49532   7.92923
H    -1.75020  -6.04396   7.22322
H    -0.98093  -5.52318   4.90198
H    -2.57285  -4.43885   3.30574
H    -4.84973  -3.85893   4.02562
H    -5.06314  -2.90151   7.95467
H    -6.81282  -2.88410   8.05071
H    -5.72004  -5.53199   8.89225
H    -5.04680  -4.19070   9.80314
H    -7.53407  -3.41453  10.13792
H    -6.85888  -4.71859  11.10228
H    -7.96468  -6.44073   9.76287
H    -9.09051  -5.28541  10.49012
H   -11.00960  -5.51482   9.14010
H   -10.86668  -5.93637   7.41141
H   -10.19316  -7.02312   8.66969
