23
Generated by autodE on: 2022-06-19. E = -351.521382 Ha
C     3.66055  -0.76573  -0.55908
C     2.58048  -0.05398  -0.16833
C     2.72556   1.30765   0.46169
C     1.23885  -0.60359  -0.35311
C     0.07867   0.00680  -0.00346
C    -1.22757  -0.58469  -0.21008
C    -2.43024  -0.04521   0.11269
C    -2.61326   1.29795   0.76062
C    -3.70567  -0.78885  -0.16704
H     4.67565  -0.37896  -0.43308
H     3.55160  -1.75424  -1.01590
H     2.28528   1.32661   1.47255
H     2.19613   2.07608  -0.12584
H     3.78233   1.59958   0.53980
H     1.18794  -1.59633  -0.81638
H     0.12151   0.99629   0.45954
H    -1.22884  -1.57615  -0.67904
H    -3.14893   1.18846   1.72025
H    -1.67215   1.82876   0.95370
H    -3.24857   1.94336   0.12862
H    -4.27384  -0.95600   0.76579
H    -4.36764  -0.19729  -0.82481
H    -3.52326  -1.76371  -0.64262
