18
Generated by autodE on: 2022-07-27. E = -625.853211 Ha
C     1.48254   2.13207  -2.25996
O     1.24723   1.52298  -0.97961
C     0.19719   0.71047  -0.89181
O    -0.53464   0.44110  -1.82243
C     0.01966   0.15721   0.47500
N     0.35519   0.82487   1.56970
O     0.86627   1.94739   1.69217
C    -0.59192  -1.16192   0.76712
O    -0.79770  -1.53943   1.90924
O    -0.85271  -1.87815  -0.31562
C    -1.43098  -3.17790  -0.10570
H     0.61343   2.73333  -2.56248
H     2.36265   2.77140  -2.12881
H     1.67826   1.36142  -3.01917
H     0.12002   0.29597   2.43824
H    -1.57883  -3.60193  -1.10496
H    -0.74802  -3.80789   0.48162
H    -2.39266  -3.08637   0.41855
