23
Generated by autodE on: 2022-06-21. E = -351.521383 Ha
C    -1.95855   2.91268   1.40660
C    -1.75574   1.70553   0.83436
C    -2.91136   0.82294   0.43706
C    -0.39430   1.23318   0.59013
C    -0.05798   0.04665   0.02458
C     1.31098  -0.37343  -0.19485
C     1.72844  -1.53703  -0.75467
C     3.19321  -1.83177  -0.91392
C     0.81018  -2.61515  -1.25645
H    -2.96616   3.29081   1.60058
H    -1.11740   3.55112   1.69397
H    -2.86616  -0.14858   0.95679
H    -3.87424   1.29700   0.67408
H    -2.89022   0.60259  -0.64321
H     0.41038   1.91175   0.89808
H    -0.85422  -0.63562  -0.28508
H     2.08171   0.33525   0.13176
H     3.46501  -2.76235  -0.38381
H     3.82561  -1.01670  -0.53246
H     3.44506  -2.00186  -1.97622
H    -0.25522  -2.37800  -1.14039
H     1.00350  -2.81399  -2.32541
H     1.01090  -3.56416  -0.72837
