26
Generated by autodE on: 2022-06-21. E = -777.704465 Ha
C    -0.02333   3.87480   1.75699
O    -0.28343   2.60528   1.13498
C     0.76196   1.82011   0.92189
O     1.91548   2.10790   1.20041
C     0.40014   0.52866   0.27934
N     1.46316  -0.21189   0.03473
C     1.64492  -1.48422  -0.43219
C     0.58884  -2.39302  -0.65330
N    -0.23502  -3.19891  -0.84014
C     2.97109  -1.92675  -0.63487
N     4.06121  -2.30785  -0.80947
C    -0.97298   0.16147  -0.08923
C    -1.27889  -0.16208  -1.42384
C    -2.58724  -0.48517  -1.78286
C    -3.59764  -0.49615  -0.81667
C    -3.29949  -0.17191   0.51172
C    -1.99642   0.16406   0.87576
H     0.44579   3.72704   2.73995
H    -0.99974   4.35912   1.86679
H     0.63655   4.48039   1.11967
H     2.33508   0.27860   0.28882
H    -0.49088  -0.15097  -2.17965
H    -2.81776  -0.73017  -2.82182
H    -4.62072  -0.75481  -1.09901
H    -4.08739  -0.18030   1.26806
H    -1.76138   0.42001   1.90995
