26
Generated by autodE on: 2022-07-27. E = -777.699566 Ha
C    -2.49780  -2.19497   1.39781
O    -1.52958  -1.14397   1.21590
C    -1.00506  -1.02641   0.00554
O    -1.27519  -1.73047  -0.94429
C    -0.04446   0.12298  -0.08729
N     1.13416  -0.08392  -0.63905
C     1.80657  -1.25681  -0.94038
C     1.42289  -2.49497  -0.39669
N     1.11542  -3.52113   0.07210
C     2.95155  -1.17450  -1.75560
N     3.90639  -1.11692  -2.42826
C    -0.44678   1.46077   0.33407
C    -1.81744   1.78225   0.44306
C    -2.21163   3.06684   0.80866
C    -1.25349   4.05119   1.07491
C     0.10738   3.74135   0.97784
C     0.51112   2.45796   0.61704
H    -2.03521  -3.16811   1.18158
H    -3.35794  -2.03452   0.73280
H    -2.80629  -2.13823   2.44714
H     1.67396   0.75970  -0.85670
H    -2.57772   1.03022   0.22701
H    -3.27524   3.30260   0.88323
H    -1.56668   5.05611   1.36627
H     0.86068   4.49969   1.20101
H     1.57791   2.22591   0.58899
