49
Generated by autodE on: 2022-06-21. E = -1129.216006 Ha. Imaginary frequency = -271.6 cm-1
C    -2.28149  -3.12315   2.57219
O    -1.44150  -2.07880   2.05157
C    -1.90990  -1.39925   1.00572
O    -3.02067  -1.54773   0.54830
C    -0.88981  -0.35502   0.56391
C    -1.21934   1.01755   1.06229
C    -2.52778   1.51594   0.91374
C    -2.84897   2.80464   1.33779
C    -1.87407   3.62104   1.92033
C    -0.57592   3.13140   2.08188
C    -0.25024   1.84001   1.66252
C    -1.33424  -0.25343  -1.53045
C    -0.27515  -0.83149  -2.24613
C    -0.46630  -2.14341  -2.95310
C     0.98317  -0.15295  -2.38450
C     1.30604   1.04313  -1.80021
C     2.63007   1.60310  -1.82845
C     3.02807   2.76180  -1.23355
C     2.12023   3.66611  -0.45322
C     4.45762   3.20893  -1.31376
C     0.92812  -1.90769   0.09753
C     0.16948  -3.07970  -0.04209
N    -0.43876  -4.06897  -0.19521
C     2.29801  -1.95211  -0.22000
N     3.42986  -1.96568  -0.51499
N     0.41685  -0.72236   0.61125
H    -2.46039  -3.87992   1.79557
H    -3.23827  -2.70639   2.91611
H    -1.72888  -3.56010   3.41121
H    -3.29403   0.89267   0.45302
H    -3.86864   3.17401   1.20808
H    -2.12637   4.63136   2.24980
H     0.19465   3.75371   2.54179
H     0.76903   1.48702   1.82713
H    -2.30290  -0.75279  -1.55468
H    -1.37333   0.83263  -1.45957
H    -1.19153  -2.78285  -2.43007
H     0.47884  -2.69494  -3.06256
H    -0.86358  -1.96194  -3.96822
H     1.76926  -0.68574  -2.92919
H     0.53156   1.60180  -1.26935
H     3.38889   1.01638  -2.35845
H     2.44214   3.70613   0.60253
H     2.19525   4.69903  -0.83499
H     1.06632   3.36565  -0.47518
H     4.52836   4.20062  -1.79549
H     5.08495   2.50096  -1.87431
H     4.88300   3.33177  -0.30157
H     1.09922   0.03297   0.63158
