20
Generated by autodE on: 2022-06-20. E = -457.715314 Ha
C    -3.09580  -0.70627  -0.14403
N    -1.81810  -0.01624  -0.20955
C    -1.75771   1.27163  -0.75659
C    -0.60471   1.94334  -0.90235
C     0.73515   1.37923  -0.49844
C     0.57110  -0.01601   0.08241
C     1.72913  -0.78608   0.56351
N     2.93890  -0.18255   0.44560
O     1.63916  -1.92898   1.05714
C    -0.65384  -0.60605   0.18063
H    -3.49815  -0.90079  -1.15226
H    -2.96398  -1.66601   0.37094
H    -3.83459  -0.10853   0.41296
H    -2.72123   1.68980  -1.05348
H    -0.63874   2.94709  -1.33214
H     1.22821   2.05533   0.22981
H     1.42081   1.36773  -1.37058
H     3.76203  -0.68189   0.76407
H     3.05600   0.74084   0.04859
H    -0.74249  -1.61116   0.59606
