24
Generated by autodE on: 2022-06-20. E = -593.107383 Ha
C     4.10484  -1.09942   0.17152
N     2.87351  -0.35540   0.04740
C     2.83029   0.99614  -0.14792
O     3.86553   1.69114  -0.26730
C     1.53237   1.61100  -0.21909
O     0.45860   0.83672  -0.10545
C    -0.79567   1.15438  -0.12833
C    -1.78478   0.12722  -0.00307
C    -3.15144   0.49387  -0.01988
C    -4.14392  -0.47617   0.09666
C    -3.79946  -1.82678   0.23123
C    -2.44772  -2.20099   0.24854
C    -1.44688  -1.24202   0.13317
H     4.22303  -1.53461   1.17888
H     4.15488  -1.92188  -0.56110
H     4.94550  -0.41922  -0.01082
H     1.99562  -0.84926   0.16459
H     1.39664   2.68370  -0.36305
H    -1.05460   2.21124  -0.24949
H    -3.41979   1.54787  -0.12513
H    -5.19510  -0.17893   0.08225
H    -4.57948  -2.58599   0.32170
H    -2.17582  -3.25414   0.35209
H    -0.39626  -1.53925   0.14443
