44
Generated by autodE on: 2022-06-20. E = -1050.833675 Ha. Imaginary frequency = -297.1 cm-1
C     4.44670   2.39261  -0.26553
N     3.50304   1.82663   0.67616
C     2.17115   1.76179   0.38566
O     1.70303   2.37872  -0.60689
C     1.39449   0.91701   1.25292
O     0.04254   0.89037   1.25943
C    -0.71726   0.94902   0.18900
C    -2.12724   0.68133   0.35284
C    -2.65165   0.11055   1.53183
C    -4.00673  -0.19940   1.61537
C    -4.85713   0.04427   0.52833
C    -4.34312   0.60407  -0.64701
C    -2.98891   0.92310  -0.73714
C     0.20898  -0.99825  -0.83531
C     0.00229  -0.43471  -2.18819
N     0.87460   0.50160  -2.65344
O    -0.94717  -0.82976  -2.88898
C    -0.79276  -2.06466  -0.42330
C    -0.45488  -2.63117   0.92886
C     0.80296  -2.59629   1.39454
N     1.83957  -1.97430   0.68374
C     3.13711  -1.86672   1.32535
C     1.49489  -1.03876  -0.27037
H     5.43546   2.44581   0.20793
H     4.14398   3.40915  -0.55487
H     4.53299   1.79175  -1.18886
H     3.85951   1.19400   1.38523
H     1.79380   0.61663   2.22094
H    -0.36605   1.54447  -0.64969
H    -1.98519  -0.09270   2.37122
H    -4.40627  -0.63935   2.53214
H    -5.91874  -0.20364   0.59815
H    -5.00309   0.79382  -1.49656
H    -2.58175   1.35317  -1.65452
H     1.36910   1.10718  -1.99234
H     0.60745   0.93688  -3.53171
H    -0.79719  -2.87305  -1.18383
H    -1.81844  -1.66683  -0.43864
H    -1.22931  -3.13200   1.51270
H     1.09923  -3.04755   2.34345
H     3.43707  -2.84475   1.72595
H     3.88812  -1.54473   0.59183
H     3.12371  -1.13691   2.15532
H     2.33975  -0.58475  -0.78566
