43
Generated by autodE on: 2022-06-08. E = -6494.853300 Ha
C    -3.33565  -0.67900   2.80556
O    -2.63481   0.00540   1.75652
C    -1.54149   0.68491   2.10468
O    -1.14072   0.78919   3.23703
C    -0.87076   1.28108   0.85098
C    -0.01485   2.51786   1.19380
O    -0.20887   3.26128   2.12874
O     0.86000   2.75767   0.21868
C     1.66960   3.93432   0.34763
N    -1.90753   1.78782  -0.07563
N    -1.60378   1.27662  -1.35882
C    -0.59088   0.33253  -1.26036
C    -0.11982   0.21653   0.01560
C     0.90318  -0.68665   0.59831
Br    1.91078   0.24996   2.06986
Br   -0.02365  -2.26490   1.50064
C     1.97971  -1.27636  -0.30260
C     2.75067  -0.24459  -1.15071
C     2.45983  -0.33311  -2.64904
C     1.14512   0.26283  -3.14284
C    -0.18916  -0.33965  -2.58093
C    -0.15929  -1.80475  -2.44111
N    -0.19351  -2.96206  -2.39795
C    -1.28815  -0.13401  -3.68065
F    -2.48666  -0.57148  -3.28905
F    -0.95425  -0.82354  -4.78135
F    -1.40148   1.15041  -4.04198
H    -3.69295   0.03870   3.55731
H    -2.67222  -1.41407   3.28274
H    -4.18090  -1.18299   2.32415
H     2.27683   3.87843   1.26281
H     2.31724   3.95268  -0.53609
H     1.03827   4.83366   0.37938
H    -2.80210   1.38150   0.19842
H    -1.45575   2.01022  -2.05407
H     1.52114  -2.03839  -0.94021
H     2.66657  -1.83267   0.34708
H     2.55624   0.77747  -0.78970
H     3.82589  -0.42030  -1.00259
H     3.25050   0.20845  -3.19183
H     2.53294  -1.38390  -2.97697
H     1.12221   0.14984  -4.23508
H     1.10354   1.33930  -2.92108
