43
Generated by autodE on: 2022-06-08. E = -6494.766192 Ha. Imaginary frequency = -294.3 cm-1
C    -3.08579  -0.78493   3.42081
O    -2.65861  -0.07168   2.25395
C    -1.57255   0.70753   2.38356
O    -0.96738   0.83533   3.42322
C    -1.22184   1.33600   1.07627
C    -0.27708   2.48402   0.96579
O     0.00720   3.00884  -0.10234
O     0.18747   2.91777   2.12618
C     1.15193   3.97917   2.07738
N    -2.18326   1.24120   0.11635
N    -1.99459   1.44408  -1.14506
C    -0.42316   0.01031  -1.37826
C     0.08224  -0.15879  -0.24381
C     1.07669  -0.90525   0.51234
Br    2.18584   0.31189   1.64561
Br    0.13725  -2.18379   1.73795
C     2.02140  -1.72660  -0.37017
C     2.79486  -0.91278  -1.42641
C     2.28819  -0.98749  -2.87380
C     1.15168  -0.06791  -3.32667
C    -0.29382  -0.38778  -2.81423
C    -0.57294  -1.83382  -2.91092
N    -0.77181  -2.97404  -2.97270
C    -1.31048   0.30452  -3.76587
F    -1.11060  -0.10409  -5.03230
F    -1.16079   1.63263  -3.74634
F    -2.57485   0.00339  -3.46390
H    -3.35537  -0.08336   4.22315
H    -2.28648  -1.45252   3.77287
H    -3.96108  -1.36838   3.11409
H     1.45687   4.15169   3.11554
H     0.70283   4.88841   1.65339
H     2.01734   3.68049   1.46835
H    -2.96270   0.61941   0.35483
H    -1.21978   2.11665  -1.23021
H     2.71793  -2.25331   0.29633
H     1.40828  -2.49899  -0.86066
H     3.82368  -1.30224  -1.43095
H     2.88047   0.13987  -1.11307
H     3.13650  -0.72030  -3.52333
H     2.04275  -2.03260  -3.12699
H     1.11642  -0.10953  -4.42366
H     1.35517   0.97399  -3.03934
