23
Generated by autodE on: 2022-06-23. E = -351.521385 Ha
C     3.56420  -0.32821  -1.21864
C     2.52751  -0.41395  -0.35622
C     2.71249  -0.95011   1.04035
C     1.19481   0.01864  -0.77202
C     0.07659  -0.01503  -0.00438
C    -1.22258   0.42853  -0.46710
C    -2.38375   0.42629   0.23530
C    -3.65907   0.92193  -0.38559
C    -2.51665  -0.05291   1.65296
H     4.57168  -0.64417  -0.93390
H     3.42655   0.06157  -2.23198
H     2.07714  -1.83452   1.21396
H     3.75829  -1.23531   1.22211
H     2.42128  -0.20109   1.79539
H     1.11346   0.40073  -1.79679
H     0.14893  -0.39458   1.01847
H    -1.25558   0.80381  -1.49713
H    -4.08081   1.75802   0.20086
H    -4.42920   0.12962  -0.38344
H    -3.51268   1.26221  -1.42124
H    -3.25640  -0.87083   1.71179
H    -1.57500  -0.41188   2.08782
H    -2.90551   0.75709   2.29513
