28
Generated by autodE on: 2022-07-27. E = -873.291207 Ha
C     0.06176  -1.08331  -4.12978
O    -0.86533  -1.06923  -3.03833
C    -0.33466  -1.08040  -1.80788
O     0.87187  -1.12678  -1.59915
N    -1.34715  -1.13707  -0.88043
N    -1.06555  -0.85697   0.37275
C    -1.96890  -1.57315   1.30831
C    -0.14467  -0.01403   0.83311
C     0.17450   0.03192   2.28724
O     0.14338  -0.92117   3.03946
O     0.51437   1.26419   2.65990
C     0.92234   1.43743   4.02666
C     0.61522   0.92469  -0.04774
O     1.78246   1.19845   0.12551
O    -0.15652   1.46982  -0.98552
C     0.49584   2.30311  -1.95912
H    -0.54720  -1.08009  -5.04148
H     0.68907  -1.98594  -4.09864
H     0.70390  -0.19022  -4.10292
H    -2.22121  -0.94068   2.16367
H    -2.86206  -1.82420   0.73041
H    -1.46708  -2.48859   1.64394
H     1.18252   2.49678   4.12881
H     0.09772   1.17770   4.70555
H     1.79433   0.80512   4.24642
H     0.88237   3.21429  -1.48126
H    -0.27180   2.55482  -2.69892
H     1.32140   1.75348  -2.43199
