51
Generated by autodE on: 2022-06-23. E = -1224.799768 Ha. Imaginary frequency = -273.2 cm-1
C    -1.69800  -0.83979  -2.83380
O    -1.16042  -0.46331  -1.56597
C    -1.91620   0.38489  -0.82259
O    -3.00710   0.79976  -1.21082
N    -1.24530   0.69314   0.31192
N    -1.89787   1.25462   1.33502
C    -3.16969   0.66966   1.78830
C    -1.06213   1.90861   2.17944
C    -1.55466   2.28441   3.54935
O    -2.15548   1.54071   4.29683
O    -1.23091   3.53797   3.85865
C    -1.58673   3.99423   5.17380
C    -0.03311   2.84342   1.57753
O     0.99007   3.16673   2.14489
O    -0.39559   3.31754   0.39073
C     0.55806   4.14856  -0.29125
C     0.29566   0.26507   2.71188
C     0.44937  -0.52420   1.56576
C    -0.30560  -1.82738   1.45984
C     1.50854  -0.31300   0.58871
C     2.42064   0.69335   0.58617
C     3.38676   0.89343  -0.46795
C     4.25386   1.93462  -0.57861
C     4.33959   3.07364   0.39706
C     5.21018   2.01658  -1.73313
H    -1.82943   0.03948  -3.48261
H    -0.96814  -1.52594  -3.28079
H    -2.66671  -1.34877  -2.71775
H    -3.74678   1.41324   2.34687
H    -3.73351   0.37082   0.90099
H    -2.97352  -0.20355   2.42625
H    -1.11407   3.35909   5.93641
H    -2.67823   3.97372   5.30163
H    -1.21239   5.02140   5.24517
H     1.46184   3.56784  -0.52614
H     0.06448   4.47136  -1.21475
H     0.82533   5.01823   0.32487
H    -0.34688  -0.11777   3.50637
H     1.08555   0.94644   3.02616
H    -0.56251  -2.06877   0.41926
H     0.33202  -2.64713   1.83868
H    -1.22541  -1.81384   2.06019
H     1.51982  -1.01797  -0.24970
H     2.42247   1.40701   1.41072
H     3.40191   0.13278  -1.25754
H     5.32480   3.07552   0.89686
H     4.26795   4.03516  -0.14020
H     3.56012   3.05809   1.16817
H     6.25228   2.07864  -1.37141
H     5.12525   1.15163  -2.40692
H     5.03618   2.93668  -2.31936
