26
Generated by autodE on: 2022-06-21. E = -760.761059 Ha
C     5.20354   0.76684   0.13376
N     3.89167   0.16978   0.01779
C     2.73803   0.86245   0.17298
O     2.68567   2.07897   0.43343
C     1.52017   0.08531   0.01314
N     0.26558   0.66736   0.14860
C    -0.68375  -0.22630  -0.04549
C    -2.12078  -0.05546   0.00029
C    -2.95453  -1.16746  -0.22871
C    -4.33930  -1.01816  -0.18569
C    -4.90480   0.23234   0.08464
C    -4.07868   1.33984   0.31187
C    -2.69367   1.20354   0.27062
O    -0.12480  -1.40821  -0.31056
C     1.31385  -1.27085  -0.28738
O     2.02349  -2.24189  -0.50881
H     5.79289   0.28465   0.93033
H     5.76769   0.68216  -0.80934
H     5.08901   1.82963   0.37797
H     3.81855  -0.82149  -0.19740
H     0.12994   1.65425   0.36698
H    -2.51039  -2.14113  -0.43867
H    -4.98117  -1.88332  -0.36421
H    -5.99056   0.34588   0.11830
H    -4.51777   2.31714   0.52240
H    -2.06232   2.07627   0.44747
