49
Generated by autodE on: 2022-06-21. E = -1112.258237 Ha. Imaginary frequency = -504.1 cm-1
C    -5.24624  -3.29054  -0.29078
N    -3.88611  -2.80074  -0.18451
C    -3.48221  -1.69167  -0.82376
O    -4.21598  -0.99155  -1.53274
C    -2.07417  -1.28332  -0.57037
C    -2.07014  -0.16778   1.04418
C    -0.94419   0.71271   0.98231
C    -1.15428   2.10460   0.44096
C     0.23661   0.41320   1.75434
C     1.34659   1.19887   1.86678
C     2.53253   0.80041   2.59414
C     3.71189   1.46853   2.67245
C     4.86499   0.91522   3.46221
C     3.98404   2.77915   1.98766
C    -0.16041  -0.33688  -1.06968
C     0.88700   0.53129  -1.52303
C     0.61091   1.61374  -2.38864
C     1.61853   2.51212  -2.72474
C     2.91060   2.35917  -2.20068
C     3.18911   1.29431  -1.34003
C     2.18896   0.38394  -0.99613
N    -1.44468  -0.44932  -1.50244
O     0.15944  -1.52048  -0.43873
C    -1.00963  -2.18320  -0.12924
O    -1.02295  -3.23313   0.47947
H    -5.96499  -2.48686  -0.07194
H    -5.46345  -3.67416  -1.30134
H    -5.38955  -4.10256   0.43223
H    -3.18696  -3.34377   0.31881
H    -3.05113   0.28188   0.86330
H    -2.07992  -0.93420   1.82545
H    -1.42893   2.80327   1.25236
H    -0.25532   2.51451  -0.04190
H    -1.97196   2.12570  -0.29573
H     0.25262  -0.56755   2.24549
H     1.35224   2.17474   1.37631
H     2.46329  -0.16048   3.11964
H     5.18302   1.62415   4.24857
H     5.74924   0.76191   2.81675
H     4.61761  -0.04361   3.94196
H     3.13535   3.15133   1.39943
H     4.85090   2.68539   1.30974
H     4.25714   3.55397   2.72676
H    -0.39268   1.74631  -2.79690
H     1.39697   3.34190  -3.39956
H     3.69556   3.07144  -2.46427
H     4.19175   1.17163  -0.92493
H     2.41101  -0.44798  -0.33027
H    -1.94835   0.35602  -1.86938
