43
Generated by autodE on: 2022-06-02. E = -1849.048362 Ha
C     0.63096   2.76447  -3.04073
O     0.33600   1.57834  -2.28315
C     1.20493   1.23953  -1.34273
O     2.23974   1.82584  -1.12541
C     0.73978  -0.01532  -0.54452
C     1.98359  -0.84489  -0.21559
C     2.88924  -0.41827   0.76678
C     4.00625  -1.19305   1.08298
C     4.24252  -2.39833   0.41469
C     3.35624  -2.81602  -0.58066
C     2.23641  -2.04246  -0.89729
N    -0.14739  -0.76658  -1.43507
C    -1.34161  -0.79557  -0.99879
C    -2.44051  -1.54724  -1.70525
C    -2.23932  -1.87402  -3.14950
O    -3.42686  -1.86420  -1.06286
C    -1.58630  -0.12394   0.32418
Cl   -2.86298   1.14619   0.12117
C    -1.95686  -1.08824   1.51610
C    -1.13150  -2.35242   1.34117
C     0.11698  -2.00408   1.67390
C     0.03613  -0.53097   2.05270
O    -1.28502  -0.43642   2.59185
C    -0.15062   0.36170   0.73480
C    -0.04644   1.83547   1.16939
F    -0.86095   2.14349   2.18119
F    -0.31729   2.69806   0.17272
F     1.20525   2.11753   1.58848
H     0.67502   3.63502  -2.37095
H    -0.19050   2.87302  -3.75738
H     1.58912   2.65186  -3.56680
H     2.72276   0.51412   1.30130
H     4.69459  -0.85083   1.85906
H     5.11446  -3.00603   0.66734
H     3.53149  -3.75250  -1.11522
H     1.54602  -2.38009  -1.66813
H    -2.07210  -0.94497  -3.71811
H    -1.33312  -2.48794  -3.27000
H    -3.11470  -2.40941  -3.53748
H    -3.03152  -1.18467   1.68801
H    -1.50402  -3.29764   0.94931
H     1.02441  -2.60203   1.65685
H     0.78371  -0.14619   2.75146
