16
Generated by autodE on: 2022-06-02. E = -1104.339451 Ha
F     2.15858   0.64747  -0.72208
C     1.48976  -0.49866  -0.53101
F     1.30713  -1.06551  -1.74600
F     2.30413  -1.32954   0.15361
C     0.19642  -0.30687   0.16264
C    -0.51134   0.79337   0.44505
Cl   -0.18625   2.45178   0.18129
C    -1.87255   0.28366   0.98790
C    -2.61147  -0.34152  -0.21690
C    -1.91665  -1.44564  -0.50377
C    -0.76578  -1.47010   0.52722
O    -1.42169  -0.89392   1.66971
H    -2.42276   0.97243   1.63655
H    -3.47193   0.09902  -0.71823
H    -2.04977  -2.16917  -1.30683
H    -0.29516  -2.43266   0.75218
