43
Generated by autodE on: 2022-06-02. E = -1848.952185 Ha. Imaginary frequency = -299.2 cm-1
C     0.38787   3.02210  -2.77700
O     0.30719   1.67539  -2.28988
C     1.34216   1.23379  -1.57336
O     2.35254   1.87580  -1.36557
C     1.10714  -0.14633  -1.05902
C     2.18099  -0.97357  -0.48469
C     3.13797  -0.42444   0.38816
C     4.08987  -1.25019   0.98585
C     4.10753  -2.62371   0.71940
C     3.16512  -3.17192  -0.15719
C     2.20905  -2.35416  -0.75683
N    -0.02039  -0.71110  -1.39944
C    -1.19104  -0.94806  -1.21293
C    -2.23255  -1.67863  -1.97780
C    -2.90400  -0.89314  -3.05914
O    -2.50180  -2.82370  -1.66253
C    -1.69381   0.06794   0.63952
Cl   -2.97395   1.08966  -0.00263
C    -2.06757  -1.16186   1.54220
C    -1.03398  -2.25982   1.27239
C     0.10214  -1.80036   1.80806
C    -0.25661  -0.42792   2.38098
O    -1.61996  -0.66584   2.81708
C    -0.52382   0.54792   1.19814
C    -0.08116   1.95052   1.32153
F    -0.65670   2.57120   2.38801
F    -0.37218   2.71131   0.24842
F     1.25321   2.05345   1.53233
H    -0.56364   3.21332  -3.28580
H     0.52220   3.72299  -1.94172
H     1.22506   3.12405  -3.48250
H     3.10920   0.63702   0.62374
H     4.81928  -0.81739   1.67428
H     4.85551  -3.26447   1.19182
H     3.17555  -4.24189  -0.37638
H     1.47379  -2.78348  -1.44009
H    -3.42069  -0.03066  -2.60817
H    -3.62297  -1.53092  -3.58991
H    -2.14725  -0.49068  -3.75144
H    -3.12856  -1.42927   1.53826
H    -1.21694  -3.15718   0.68413
H     1.09946  -2.23364   1.79332
H     0.36972  -0.02918   3.18546
