39
Generated by autodE on: 2022-05-30. E = -1109.641748 Ha
C     4.93562  -1.64678  -0.99869
N     3.74452  -1.10373  -0.38107
C     2.63864  -0.86988  -1.10050
O     2.56832  -1.12323  -2.31317
C     1.45119  -0.29682  -0.39204
C     0.24634  -0.15286  -1.00431
F    -0.08400  -0.47876  -2.23003
C    -0.77362   0.42818  -0.06277
C    -1.29197   1.80456  -0.59470
O    -1.58145   1.94677  -1.78009
N    -1.42359   2.75091   0.33757
C    -1.95009   4.06540   0.02021
C    -1.97546  -0.51280   0.12055
C    -2.20674  -1.14502   1.34863
C    -3.28849  -2.01861   1.49347
C    -4.14382  -2.26784   0.41734
C    -3.91274  -1.63683  -0.80899
C    -2.83386  -0.76328  -0.96005
N    -0.02847   0.62196   1.16309
C     1.19263   0.23135   0.97746
C     2.13786   0.37983   2.14565
C     1.62322   1.11920   3.34321
O     3.26625  -0.08946   2.12231
H     4.74049  -2.63399  -1.44760
H     5.31339  -0.98756  -1.79744
H     5.71385  -1.75520  -0.23315
H     3.74642  -0.83671   0.60720
H    -1.12568   2.52742   1.28293
H    -1.94839   4.67500   0.93135
H    -1.33452   4.56373  -0.74450
H    -2.98067   3.99683  -0.36161
H    -1.54399  -0.95387   2.19181
H    -3.46045  -2.50574   2.45613
H    -4.98824  -2.95122   0.53299
H    -4.57603  -1.82354  -1.65665
H    -2.66380  -0.26885  -1.91602
H     2.42234   1.19064   4.09127
H     0.75614   0.59056   3.76748
H     1.27582   2.12246   3.05411
