11
Generated by autodE on: 2022-05-30. E = -384.740221 Ha
C    -2.28580  -0.56163   0.44586
N    -1.73192   0.65025  -0.12515
C    -0.43607   0.93700  -0.35646
O    -0.05897   2.01223  -0.83763
C     0.53470  -0.09642  -0.00976
C     1.41152  -0.88663   0.24456
F     2.32994  -1.72307   0.51755
H    -1.48902  -1.29792   0.60533
H    -3.03437  -1.00122  -0.23091
H    -2.77045  -0.35750   1.41377
H    -2.37667   1.39868  -0.37151
