39
Generated by autodE on: 2022-05-30. E = -1109.491990 Ha. Imaginary frequency = -387.9 cm-1
C     4.52455  -1.67507  -0.00553
N     3.16751  -1.45280  -0.46679
C     2.78260  -0.25938  -0.97526
O     3.58199   0.64629  -1.24844
C     1.34981  -0.10242  -1.18123
C     0.20130   0.04291  -1.60953
F    -0.70617   0.04217  -2.53589
C    -1.22068   0.51559   0.21148
C    -1.64342   1.88051  -0.26262
O    -2.49048   2.03091  -1.15042
N    -1.00898   2.92775   0.30082
C    -1.26523   4.28302  -0.14557
C    -2.07335  -0.69147   0.14530
C    -1.70538  -1.83644   0.88541
C    -2.45224  -3.00923   0.80095
C    -3.58350  -3.07025  -0.02066
C    -3.95651  -1.94209  -0.75579
C    -3.21387  -0.76246  -0.67889
N    -0.19374   0.48328   1.05398
C     0.98287   0.28721   1.18208
C     2.08375   0.13880   2.13257
C     2.97205   1.33036   2.29168
O     2.26310  -0.95895   2.64183
H     4.67865  -2.75048   0.15001
H     5.24334  -1.31947  -0.75585
H     4.72628  -1.14937   0.94372
H     2.43754  -2.06523  -0.11537
H    -0.34018   2.77872   1.04773
H    -0.63826   4.96942   0.43592
H    -1.02747   4.40196  -1.21451
H    -2.32192   4.55877  -0.00140
H    -0.83138  -1.80832   1.53812
H    -2.15039  -3.88127   1.38568
H    -4.16982  -3.98972  -0.08379
H    -4.83701  -1.97625  -1.40185
H    -3.50333   0.10740  -1.26197
H     3.68350   1.15563   3.10953
H     2.37408   2.23700   2.47616
H     3.51960   1.48550   1.34603
