43
Generated by autodE on: 2022-05-31. E = -1257.175818 Ha
C     4.74816  -0.56077  -0.93207
N     3.45691  -0.17214  -0.39611
C     2.32014  -0.44274  -1.04008
O     2.24263  -1.04822  -2.11159
C     1.03543   0.00933  -0.36078
O     1.33425   0.92401   0.74863
C     0.18899   1.61866   0.96632
O     0.06878   2.47854   1.79389
C    -0.80766   1.08543  -0.09718
C    -1.90148   2.08317  -0.42318
O    -1.68060   3.24752  -0.67654
O    -3.11005   1.53831  -0.38286
C    -4.22354   2.40476  -0.66546
C    -1.23732  -0.34365   0.31984
C    -1.58214  -0.55739   1.81593
C    -1.88371  -2.03824   2.00052
C    -0.69653  -2.65617   1.94686
C     0.32636  -1.54571   1.69895
O    -0.27472  -0.45377   2.40841
C     0.11002  -1.12657   0.19722
C     0.17302  -2.36098  -0.71008
C    -0.75536  -2.46548  -1.87794
O     0.97360  -3.23758  -0.42776
N     0.12632   0.76182  -1.20785
C     0.72763   1.88197  -1.93763
H     5.03511   0.07082  -1.78839
H     5.50520  -0.45830  -0.14565
H     4.71853  -1.60584  -1.27116
H     3.40992   0.38420   0.45201
H    -5.11941   1.78226  -0.56642
H    -4.14226   2.80312  -1.68648
H    -4.24848   3.23444   0.05484
H    -2.02414  -0.68490  -0.35627
H    -2.27513   0.17171   2.24929
H    -2.88009  -2.47212   2.08132
H    -0.47717  -3.72218   1.96886
H     1.36378  -1.70637   2.00559
H    -0.44815  -3.29519  -2.52716
H    -0.79124  -1.52054  -2.43465
H    -1.77309  -2.65916  -1.49785
H     1.23851   2.61649  -1.29067
H    -0.05153   2.40113  -2.50750
H     1.45279   1.47377  -2.65357
