25
Generated by autodE on: 2022-05-31. E = -796.894418 Ha
C    -4.84360   0.46126  -0.61801
N    -3.41158   0.64857  -0.48649
C    -2.59711  -0.39011  -0.24631
O    -2.98507  -1.55496  -0.12150
C    -1.15824  -0.00905  -0.14260
O    -0.79715   1.25727  -0.32977
C     0.63044   1.37272  -0.17497
O     1.15734   2.45611  -0.30822
C     1.03831   0.04526   0.11712
C     2.37875  -0.44331   0.36055
O     2.68871  -1.60224   0.60021
O     3.28170   0.55251   0.29058
C     4.64969   0.18915   0.50750
N    -0.10705  -0.75883   0.12492
C    -0.11497  -2.20015   0.39855
H    -5.07855  -0.20955  -1.45911
H    -5.31050   1.43656  -0.79680
H    -5.26887   0.02119   0.29735
H    -3.01757   1.58010  -0.57686
H     4.78605  -0.23527   1.51309
H     4.98277  -0.54261  -0.24321
H     5.22555   1.11694   0.40956
H     0.32587  -2.37131   1.38679
H     0.49433  -2.70611  -0.35891
H    -1.14853  -2.54721   0.36359
