43
Generated by autodE on: 2022-05-31. E = -1257.120233 Ha. Imaginary frequency = -377.9 cm-1
C     4.65397  -1.00419  -0.34891
N     3.44105  -0.25469  -0.07833
C     2.49389  -0.12053  -1.01837
O     2.61850  -0.51910  -2.18020
C     1.22091   0.48465  -0.52696
O     1.25030   1.09956   0.69784
C     0.02067   1.72132   0.90347
O    -0.21131   2.37663   1.88355
C    -0.75142   1.37404  -0.29820
C    -2.02832   2.02555  -0.65881
O    -2.41799   2.22536  -1.79204
O    -2.73106   2.31622   0.43562
C    -4.02501   2.90764   0.23445
C    -1.25330  -0.60285   0.26495
C    -1.61766  -0.63822   1.76709
C    -1.88556  -2.11342   2.12426
C    -0.68324  -2.70201   2.10125
C     0.30097  -1.58155   1.70776
O    -0.31806  -0.45720   2.34894
C    -0.00430  -1.29294   0.21162
C     0.42813  -2.30815  -0.74869
C    -0.22720  -2.44611  -2.09947
O     1.33905  -3.08321  -0.43235
N     0.21671   1.02914  -1.25222
C    -0.05813   0.80910  -2.66955
H     5.29837  -0.96405   0.53682
H     4.41987  -2.05610  -0.57806
H     5.19505  -0.57678  -1.20585
H     3.24092   0.04837   0.87007
H    -4.67064   2.22587  -0.33721
H    -3.92963   3.86206  -0.30213
H    -4.43647   3.07240   1.23639
H    -2.02896  -0.71841  -0.49323
H    -2.33187   0.11366   2.11754
H    -2.87068  -2.54949   2.28680
H    -0.42200  -3.75082   2.23721
H     1.35210  -1.68876   1.99096
H     0.48316  -2.11411  -2.87163
H    -1.15849  -1.87779  -2.19922
H    -0.42425  -3.51469  -2.27373
H    -0.24746   1.77732  -3.14720
H    -0.94491   0.17654  -2.79265
H     0.81629   0.33326  -3.11634
