39
Generated by autodE on: 2022-06-18. E = -843.950988 Ha
C     4.32842   1.82025   1.14637
C     3.49963   0.97812   0.49658
C     3.97583   0.11489  -0.64154
C     2.09243   0.89164   0.90059
C     1.16803   0.09674   0.33341
C    -0.27041   0.04883   0.77516
C    -1.17469   0.37720  -0.39329
C    -1.33037   1.76425  -0.95329
O    -1.98106   2.03908  -1.93851
O    -0.66115   2.65254  -0.22164
C    -0.70639   4.02028  -0.65617
N    -1.78838  -0.59818  -0.94560
C    -1.44505  -1.84074  -0.20319
C    -2.66630  -2.75882  -0.09866
C    -0.43414  -2.53763  -1.02285
N     0.34511  -3.09068  -1.68145
C    -0.82313  -1.36153   1.17245
C     0.22717  -2.31361   1.73979
C    -1.93274  -1.15685   2.21231
H     3.96928   2.44224   1.97197
H     5.38291   1.90968   0.87056
H     3.41626   0.33470  -1.56603
H     5.04581   0.27011  -0.83886
H     3.81337  -0.95378  -0.42348
H     1.79100   1.53721   1.73364
H     1.44106  -0.54702  -0.50750
H    -0.41110   0.76732   1.59392
H    -1.74172   4.38992  -0.64302
H    -0.29785   4.10927  -1.67295
H    -0.09020   4.58242   0.05424
H    -2.98134  -3.08235  -1.10063
H    -2.42487  -3.64806   0.50056
H    -3.49998  -2.22326   0.37206
H    -0.22315  -3.29537   1.95422
H     1.07452  -2.46674   1.05831
H     0.62532  -1.90979   2.68293
H    -2.38988  -2.11100   2.51007
H    -1.49645  -0.69759   3.11190
H    -2.72704  -0.48994   1.84486
