16
Generated by autodE on: 2022-06-18. E = -492.339066 Ha
C     3.69672  -0.61544   0.75367
O     2.39209  -0.83776   0.18384
C     1.69885   0.24692  -0.15146
O     2.06749   1.39732  -0.03157
C     0.43436  -0.11063  -0.79501
N    -0.70050  -0.20584  -0.39435
C    -1.93728  -0.37387  -0.06635
C    -2.48727  -1.72320   0.30956
C    -2.78390   0.77235  -0.06337
N    -3.51132   1.68319  -0.04896
H     4.33088  -0.06243   0.04639
H     3.61224  -0.05399   1.69476
H     4.11219  -1.61177   0.94090
H    -1.70450  -2.48686   0.21116
H    -3.33314  -1.98676  -0.34498
H    -2.85057  -1.71497   1.34955
