39
Generated by autodE on: 2022-06-18. E = -843.850376 Ha. Imaginary frequency = -401.7 cm-1
C     3.33846   3.13591   1.08602
C     2.96881   1.87823   0.75969
C     3.82384   1.01356  -0.12927
C     1.69205   1.34510   1.23161
C     1.21267   0.10656   0.97148
C    -0.12122  -0.34048   1.37077
C    -1.06770   0.36449  -0.49333
C    -0.72491   1.74310  -0.85159
O    -1.26092   2.70246  -0.33485
O     0.30133   1.78093  -1.69376
C     0.86188   3.07893  -1.97465
N    -1.72086  -0.55578  -0.92903
C    -2.06999  -1.81781  -0.62771
C    -3.45377  -2.09118  -0.10967
C    -1.37677  -2.84407  -1.31835
N    -0.79809  -3.71946  -1.83215
C    -0.49946  -1.68135   1.49742
C     0.44588  -2.79757   1.14218
C    -1.60024  -2.03530   2.46043
H     2.70552   3.76479   1.71965
H     4.27766   3.56638   0.72780
H     3.27616   0.74212  -1.04745
H     4.75089   1.52919  -0.41673
H     4.09295   0.06771   0.36940
H     1.06621   2.03729   1.80711
H     1.81949  -0.59408   0.39245
H    -0.70275   0.38889   1.94655
H     1.17329   3.56565  -1.04048
H     0.12512   3.70423  -2.49801
H     1.73073   2.89328  -2.61521
H    -4.19523  -2.10515  -0.92703
H    -3.47672  -3.07268   0.38326
H    -3.74617  -1.31864   0.61485
H    -0.09151  -3.74443   0.98761
H     1.03289  -2.59279   0.23624
H     1.16239  -2.96336   1.96875
H    -2.12022  -2.96319   2.18083
H    -1.16871  -2.20873   3.46532
H    -2.34214  -1.22901   2.55693
