37
Generated by autodE on: 2022-06-10. E = -1029.940954 Ha
C    -2.49272   3.53545   1.12414
C    -2.31836   2.04363   1.04463
O    -3.24591   1.26768   1.24211
C    -0.97144   1.54777   0.69928
C    -0.51443   0.32006   0.32930
C    -1.12457  -1.00168   0.29539
C    -1.96216  -1.45054   1.33513
C    -2.50999  -2.73146   1.29212
C    -2.24466  -3.57649   0.20878
C    -1.41699  -3.13864  -0.83057
C    -0.84773  -1.86742  -0.78340
C     0.93539   0.61775  -0.15597
C     1.92691  -0.48067  -0.34316
C     2.17077  -1.34434   0.73465
C     3.09624  -2.37953   0.60218
C     3.77874  -2.55992  -0.60599
C     3.53572  -1.69826  -1.67876
C     2.61181  -0.65716  -1.55063
N     1.27421   1.65098   0.79313
N     0.13496   2.51629   0.49642
C     0.20056   2.56764  -0.97815
O    -0.18741   3.46106  -1.67601
O     0.74160   1.41224  -1.40993
H    -1.85214   3.94218   1.92305
H    -2.17177   4.01416   0.18582
H    -3.54483   3.76935   1.32993
H    -2.16537  -0.79463   2.18012
H    -3.14754  -3.07395   2.11020
H    -2.67927  -4.57825   0.17697
H    -1.20772  -3.79324  -1.67936
H    -0.20191  -1.53413  -1.59604
H     1.63069  -1.20755   1.67335
H     3.28224  -3.05082   1.44337
H     4.49946  -3.37421  -0.71043
H     4.06625  -1.83527  -2.62361
H     2.41830   0.01166  -2.38895
H     2.13628   2.13388   0.51797
