19
Generated by autodE on: 2022-06-10. E = -461.261365 Ha
C     4.00318  -0.28826   0.41440
C     3.07576   0.05771  -0.71742
O     3.47272   0.34648  -1.84118
C     1.66100   0.03591  -0.41210
C     0.47164   0.01545  -0.14025
C    -0.91827  -0.00675   0.17197
C    -1.87472   0.31052  -0.81658
C    -3.23250   0.28711  -0.50485
C    -3.65191  -0.05059   0.78711
C    -2.70958  -0.36646   1.77267
C    -1.34908  -0.34635   1.47277
H     5.04535  -0.24849   0.07052
H     3.76646  -1.29466   0.79659
H     3.85137   0.41726   1.24772
H    -1.53989   0.57257  -1.82178
H    -3.96890   0.53304  -1.27291
H    -4.71754  -0.06769   1.02682
H    -3.03831  -0.62966   2.78035
H    -0.60826  -0.59108   2.23597
