18
Generated by autodE on: 2022-06-10. E = -568.671801 Ha
O    -3.56403   0.59610  -1.27199
C    -2.69153   0.09513  -0.58835
N    -2.70253  -0.82460   0.37721
N    -1.39672  -0.95808   0.75416
C    -0.57958  -0.17690   0.08188
C     0.85889  -0.03325   0.19189
C     1.51822   0.88145  -0.65030
C     2.90050   1.03326  -0.56148
C     3.63185   0.27964   0.36198
C     2.97777  -0.63047   1.20103
C     1.59698  -0.79112   1.12156
O    -1.30662   0.51649  -0.77943
H    -1.13756  -1.61205   1.49187
H     0.94277   1.46646  -1.36842
H     3.40939   1.74333  -1.21624
H     4.71511   0.40087   0.42932
H     3.54824  -1.21897   1.92209
H     1.10021  -1.50517   1.78095
