37
Generated by autodE on: 2022-06-10. E = -1029.892039 Ha. Imaginary frequency = -495.1 cm-1
C    -3.24569   2.12509   1.73920
C    -2.19271   2.63516   0.78822
O    -2.21192   3.76426   0.31782
C    -1.15048   1.66668   0.47671
C    -0.79675   0.45973   0.30091
C    -1.16270  -0.93067   0.44034
C    -1.61355  -1.40765   1.68742
C    -1.91340  -2.76033   1.85278
C    -1.78198  -3.64747   0.77934
C    -1.35024  -3.17619  -0.46593
C    -1.03200  -1.83001  -0.63608
C     1.15408   0.68585  -0.39116
C     1.83457  -0.61001  -0.39480
C     2.05354  -1.27079   0.82522
C     2.63420  -2.53714   0.83270
C     2.98699  -3.15440  -0.37320
C     2.76395  -2.49854  -1.58761
C     2.18629  -1.22820  -1.60327
N     1.44218   1.72394   0.44889
N     0.62956   2.75581   0.12079
C     0.41703   2.58129  -1.24625
O    -0.04781   3.34036  -2.05782
O     0.83958   1.29312  -1.58630
H    -3.63754   1.15427   1.39683
H    -2.78835   1.95803   2.72849
H    -4.05797   2.85924   1.82563
H    -1.70945  -0.71171   2.52273
H    -2.25228  -3.12324   2.82581
H    -2.01650  -4.70607   0.91230
H    -1.25130  -3.86480  -1.30802
H    -0.68552  -1.46449  -1.60302
H     1.74325  -0.80436   1.76242
H     2.79969  -3.05160   1.78150
H     3.43178  -4.15199  -0.36521
H     3.03694  -2.97994  -2.52902
H     2.00020  -0.71635  -2.54811
H     1.62870   1.57202   1.44025
