65
Generated by autodE on: 2022-06-28. E = -1367.902692 Ha
C     5.79766  -1.45759  -0.11109
C     4.70896  -0.87401  -0.65236
C     4.78842  -0.07705  -1.92828
C     3.40739  -0.99386   0.01435
C     2.25774  -0.45309  -0.42885
C     0.95731  -0.57475   0.29662
C     0.30805   0.77639   0.75540
C     0.66123   1.03163   2.26726
C     0.47954   2.41498   2.84446
O     1.05221   0.12946   2.98526
C     0.76565   1.98787  -0.05911
C    -0.06617   2.61698  -0.99148
C     0.39424   3.70367  -1.74314
C     1.69657   4.17891  -1.57085
C     2.53405   3.56304  -0.63397
C     2.06958   2.48101   0.11571
N    -1.13729   0.52905   0.61850
C    -2.07596   1.33000   1.38256
C    -1.43962  -0.87808   0.32836
C    -1.59705  -1.59521   1.69683
O    -0.74072  -2.19726   2.31211
O    -2.80520  -1.35621   2.22008
C    -3.02843  -1.79926   3.56555
C    -2.70952  -1.06349  -0.49800
C    -3.23185  -0.03132  -1.28705
C    -4.34056  -0.25163  -2.10928
C    -4.94067  -1.51259  -2.16176
C    -4.42420  -2.55097  -1.38022
C    -3.32114  -2.32524  -0.55397
C    -0.16371  -1.32617  -0.47881
C     0.08176  -2.83687  -0.50506
C    -0.25139  -0.85322  -1.93969
H     6.78198  -1.37838  -0.58117
H     5.72905  -2.02994   0.81917
H     4.12885  -0.50153  -2.70336
H     4.45345   0.96130  -1.76615
H     5.81458  -0.05402  -2.32147
H     3.39822  -1.55661   0.95520
H     2.25976   0.11600  -1.35970
H     1.13744  -1.14064   1.21521
H     1.47854   2.81982   3.07355
H    -0.06526   2.32562   3.79605
H    -0.03043   3.11675   2.17721
H    -1.08114   2.24813  -1.13169
H    -0.27184   4.17928  -2.46715
H     2.05714   5.02628  -2.15881
H     3.55384   3.92632  -0.48585
H     2.73628   2.00950   0.84058
H    -1.89166   2.39704   1.19240
H    -2.03710   1.16064   2.47521
H    -3.10007   1.10973   1.05747
H    -2.93659  -2.89292   3.63031
H    -2.30412  -1.33104   4.24747
H    -4.04805  -1.48843   3.82052
H    -2.76044   0.95012  -1.26737
H    -4.73374   0.56858  -2.71480
H    -5.80653  -1.68556  -2.80524
H    -4.88324  -3.54203  -1.41020
H    -2.93494  -3.14645   0.05388
H     1.01076  -3.03983  -1.05975
H     0.18248  -3.26688   0.49731
H    -0.73493  -3.35530  -1.03010
H     0.69446  -1.07949  -2.45174
H    -0.43542   0.22374  -2.02993
H    -1.04835  -1.38480  -2.47673
