42
Generated by autodE on: 2022-07-28. E = -1016.338505 Ha
C    -0.31551  -0.61310   3.68282
O    -0.46449  -0.21153   2.31757
C    -0.95334  -1.12854   1.47238
O    -1.43851  -2.17953   1.85315
C    -0.97735  -0.68063   0.05921
C    -1.99208  -1.27234  -0.82260
C    -1.65607  -1.65450  -2.13794
C    -2.60867  -2.22961  -2.97805
C    -3.91382  -2.44135  -2.52140
C    -4.25747  -2.07622  -1.21479
C    -3.30845  -1.50035  -0.37149
N    -0.11448   0.24928  -0.39124
C    -0.51922   1.13315  -1.50914
C     1.16850   0.41061   0.08927
C     1.88649  -0.72242   0.60584
C     3.37609  -0.56583   0.84369
O     1.35566  -1.83208   0.82780
C     1.81704   1.73759  -0.07897
C     2.81289   1.96380  -1.04308
C     3.40930   3.22081  -1.16904
C     3.01170   4.27397  -0.33908
C     2.01624   4.06264   0.62073
C     1.42632   2.80346   0.75190
H    -1.29389  -0.82713   4.13740
H     0.32206  -1.50663   3.74864
H     0.16223   0.22991   4.19558
H    -0.63416  -1.51442  -2.49486
H    -2.32746  -2.52365  -3.99194
H    -4.65951  -2.89341  -3.17940
H    -5.27524  -2.23651  -0.85155
H    -3.59056  -1.21032   0.64158
H     0.11075   0.95001  -2.38812
H    -0.38848   2.17248  -1.18733
H    -1.57138   0.96674  -1.74899
H     3.59626   0.35207   1.40826
H     3.93061  -0.50588  -0.10548
H     3.73291  -1.43872   1.40621
H     3.11465   1.14757  -1.70279
H     4.18271   3.38045  -1.92421
H     3.47609   5.25776  -0.44048
H     1.70185   4.88031   1.27386
H     0.65407   2.63308   1.50580
