65
Generated by autodE on: 2022-06-28. E = -1367.815470 Ha. Imaginary frequency = -268.6 cm-1
C     5.81248  -0.02063  -0.20905
C     4.59140   0.03288  -0.78948
C     4.34847   0.82943  -2.04504
C     3.47866  -0.68277  -0.18257
C     2.20238  -0.71103  -0.66437
C     1.14645  -1.43485  -0.02712
C    -0.00517   0.92641   0.85067
C     0.52516   0.11480   1.85786
C     1.85615   0.34253   2.49869
O    -0.17811  -0.84200   2.42448
C     0.67961   2.15484   0.38772
C     0.89202   2.37980  -0.98514
C     1.54814   3.52901  -1.42617
C     2.00626   4.47502  -0.50302
C     1.79307   4.26799   0.86324
C     1.13183   3.12030   1.30466
N    -1.19581   0.56967   0.25484
C    -2.03235   1.65244  -0.29101
C    -1.62473  -0.75526   0.35918
C    -1.59565  -1.24892   1.85773
O    -1.77426  -2.45596   2.16929
O    -2.46196  -0.28067   2.47835
C    -2.80825  -0.57051   3.82035
C    -2.86756  -1.13636  -0.38561
C    -3.14292  -0.63970  -1.67969
C    -4.28972  -1.01389  -2.37847
C    -5.20510  -1.90507  -1.81253
C    -4.94992  -2.41643  -0.53860
C    -3.80165  -2.04309   0.16131
C    -0.07820  -1.81863  -0.65412
C    -0.49083  -3.26240  -0.42103
C    -0.22959  -1.39869  -2.10273
H     6.66912   0.51098  -0.63218
H     5.97807  -0.59689   0.70614
H     3.95819   0.18863  -2.85278
H     3.59590   1.61557  -1.87291
H     5.27363   1.30612  -2.39793
H     3.70469  -1.24472   0.72937
H     1.97436  -0.17276  -1.58444
H     1.41835  -1.97975   0.87920
H     2.56548   0.83714   1.82569
H     2.26608  -0.62571   2.81951
H     1.73961   0.96812   3.39852
H     0.54565   1.64330  -1.70994
H     1.70969   3.68229  -2.49547
H     2.52436   5.37273  -0.84821
H     2.13729   5.00713   1.59021
H     0.95017   2.97745   2.37073
H    -1.85450   1.84820  -1.35491
H    -1.81300   2.56668   0.27191
H    -3.08625   1.39804  -0.13986
H    -3.36873  -1.51549   3.91074
H    -1.91531  -0.63438   4.46628
H    -3.44126   0.25691   4.17198
H    -2.45595   0.04577  -2.16490
H    -4.46414  -0.60444  -3.37613
H    -6.10410  -2.19824  -2.35980
H    -5.65054  -3.11713  -0.07802
H    -3.61003  -2.46704   1.14296
H     0.12178  -3.90756  -1.07514
H    -0.34502  -3.57238   0.61901
H    -1.54415  -3.42919  -0.68888
H     0.60613  -1.81635  -2.68835
H    -0.21174  -0.30840  -2.23565
H    -1.15431  -1.79278  -2.53895
