50
Generated by autodE on: 2022-06-23. E = -1298.942788 Ha
C    -3.90982   2.32256  -2.21832
N    -3.18029   1.30423  -1.49318
C    -1.96858   1.52637  -0.97273
O    -1.40005   2.62070  -0.97990
C    -1.30324   0.27057  -0.35160
C    -0.93346   0.62156   1.11039
O    -0.43006   1.65936   1.48159
O    -1.23102  -0.38122   1.93422
C    -0.87212  -0.23324   3.31803
N    -2.13903  -0.91271  -0.46290
C    -1.32585  -2.14293  -0.58699
C    -1.87684  -3.06556  -1.66768
C     0.14210  -1.63934  -0.78032
C     0.97479  -2.46816  -1.77705
C     0.89666  -1.79572   0.54748
O     0.76251  -2.79632   1.23395
C     1.87794  -0.76023   0.96360
O     2.53857  -1.10239   2.07583
C     3.09408  -0.10752   2.94849
C     2.04497   0.39504   0.24650
O     3.06519   1.22750   0.53889
C     2.81342   2.63504   0.69202
C     1.20268   0.70960  -0.92143
O     1.51008   1.64354  -1.64985
C    -0.02942  -0.14659  -1.20675
C    -0.35764  -0.00678  -2.70087
H    -3.82762   3.28663  -1.69758
H    -4.96798   2.03797  -2.27954
H    -3.52008   2.45315  -3.24243
H    -3.46605   0.32703  -1.52347
H    -1.33879   0.66751   3.73900
H    -1.24619  -1.13195   3.82017
H     0.22007  -0.16940   3.41485
H    -2.77126  -0.98005   0.33055
H    -1.35576  -2.70199   0.35829
H    -1.84882  -2.60789  -2.66682
H    -1.32007  -4.01376  -1.70008
H    -2.92599  -3.30424  -1.43341
H     1.97953  -2.03480  -1.89284
H     0.49934  -2.50954  -2.76321
H     1.08443  -3.49541  -1.40309
H     3.22703  -0.61038   3.91523
H     4.06276   0.24962   2.57710
H     2.40177   0.73901   3.06425
H     3.42275   2.96966   1.54381
H     3.11536   3.17751  -0.21397
H     1.75391   2.82666   0.90566
H    -0.52053   1.04630  -2.95542
H     0.48332  -0.35976  -3.31073
H    -1.25194  -0.57961  -2.96768
