26
Generated by autodE on: 2022-06-23. E = -689.460866 Ha
C    -2.52238  -2.03314  -0.22096
O    -2.01218  -1.04635   0.68193
C    -0.82887  -0.46692   0.32207
C    -0.73270   0.81775  -0.12260
O    -1.69762   1.71275  -0.33137
C    -3.08393   1.41641  -0.13494
C     0.62022   1.40244  -0.43253
O     0.68688   2.55988  -0.82300
C     1.83500   0.56305  -0.27095
C     3.15615   1.18064  -0.61093
C     1.72690  -0.71484   0.16986
C     2.92295  -1.59537   0.34917
C     0.38861  -1.28412   0.51270
O     0.28708  -2.42467   0.96148
H    -3.46728  -2.39188   0.20829
H    -1.82560  -2.87772  -0.32715
H    -2.71647  -1.58947  -1.21169
H    -3.61571   2.34078  -0.39389
H    -3.41251   0.60560  -0.80056
H    -3.28656   1.15043   0.91053
H     3.65773   0.61176  -1.41115
H     3.83167   1.16095   0.26005
H     3.03565   2.21942  -0.93999
H     2.63446  -2.58715   0.71620
H     3.46656  -1.71181  -0.60303
H     3.63389  -1.14585   1.06222
