24
Generated by autodE on: 2022-07-27. E = -609.444072 Ha
C     0.54711  -2.56026  -1.96055
C     0.47269  -2.73494  -0.49852
N     0.36285  -1.76807   0.36471
C     0.17108  -0.39228   0.18727
C    -0.77712   0.05800  -0.83296
O    -1.56815  -0.73441  -1.38697
N    -0.78036   1.37853  -1.16329
C    -1.84614   1.93469  -1.97010
C     0.68744   0.35264   1.30114
O     1.24847  -0.16362   2.27437
O     0.52007   1.69869   1.22326
C     1.00647   2.47388   2.32148
H    -0.46001  -2.50829  -2.40680
H     1.04812  -1.60957  -2.20912
H     1.09175  -3.40515  -2.40478
H     0.57391  -3.73027  -0.05801
H     0.50196  -2.02368   1.34845
H    -0.24117   2.00239  -0.57198
H    -2.83354   1.85773  -1.48030
H    -1.63363   2.99529  -2.15688
H    -1.91658   1.41811  -2.93890
H     2.09013   2.33541   2.45106
H     0.79028   3.51963   2.07144
H     0.49354   2.19860   3.25496
