50
Generated by autodE on: 2022-06-23. E = -1298.900643 Ha. Imaginary frequency = -445.7 cm-1
C    -3.32642   2.09541  -1.93191
N    -2.35704   1.55532  -1.00045
C    -2.46904   0.30291  -0.53751
O    -3.43950  -0.42748  -0.77578
C    -1.37300  -0.18050   0.37329
C    -1.10121   0.50297   1.66248
O    -0.58463  -0.07497   2.60739
O    -1.45638   1.78183   1.68169
C    -1.22460   2.49506   2.90792
N    -0.94276  -1.45818   0.38729
C    -0.64774  -2.27317  -0.68311
C    -1.65828  -2.55783  -1.76073
C     0.87616  -1.33053  -1.55627
C     1.09937  -2.15569  -2.81179
C     1.88553  -1.64085  -0.47582
O     2.47488  -2.72306  -0.44526
C     2.11907  -0.63521   0.55455
O     2.94747  -0.96128   1.59354
C     2.37661  -1.84107   2.56722
C     1.64288   0.64307   0.43279
O     1.91370   1.48863   1.43247
C     2.01944   2.91208   1.27763
C     0.78752   1.04443  -0.72834
O     0.44556   2.24684  -0.85424
C     0.47471   0.03316  -1.71290
C    -0.15001   0.50039  -2.99391
H    -3.07956   3.14604  -2.12953
H    -3.32339   1.54396  -2.88728
H    -4.34291   2.04214  -1.51382
H    -1.46021   2.03812  -0.88883
H    -0.17006   2.41657   3.20276
H    -1.49120   3.53730   2.70175
H    -1.86204   2.08657   3.70525
H    -0.42710  -1.67067   1.24734
H    -0.14129  -3.17583  -0.32897
H    -2.56659  -2.95466  -1.28140
H    -1.94638  -1.68026  -2.34609
H    -1.26490  -3.32883  -2.43263
H     2.02902  -1.81868  -3.29897
H     0.28280  -2.04415  -3.53208
H     1.21588  -3.21869  -2.56755
H     1.54648  -1.34767   3.09534
H     2.01473  -2.77203   2.10265
H     3.17458  -2.08387   3.28200
H     2.57611   3.25119   2.16166
H     2.57874   3.16789   0.36792
H     1.03338   3.38856   1.25119
H     0.55052   0.35025  -3.83354
H    -0.39405   1.56637  -2.94405
H    -1.06372  -0.05981  -3.24342
