44
Generated by autodE on: 2022-06-21. E = -1216.470567 Ha
C    -2.18656   0.04890  -3.51632
O    -1.92659  -0.18875  -2.12247
C    -1.29480   0.75819  -1.45430
O    -0.98655   1.84053  -1.90901
C    -0.99422   0.33658  -0.00887
C    -2.33040   0.02050   0.67772
O    -3.37396   0.54331   0.34685
O    -2.20295  -0.81707   1.69581
C    -3.38735  -1.09694   2.46258
N    -0.38675   1.45213   0.72631
N     0.98541   1.12577   0.93609
C     1.82216   1.95481   1.60369
C     1.18657   3.12794   2.30030
O     3.04166   1.74606   1.60631
C     1.41191  -0.02025   0.14874
C     2.39003  -0.89579   0.96467
N     3.38291  -1.47400   0.27553
O     2.19441  -1.09672   2.16313
C     1.90529   0.40318  -1.25111
C     1.60609  -0.63989  -2.29155
C     0.73893  -1.64989  -2.06860
N     0.07100  -1.85776  -0.87537
C    -0.96890  -2.86525  -0.76996
C     0.07802  -0.81200   0.09513
H    -1.23555   0.17840  -4.05236
H    -2.71199  -0.84139  -3.87841
H    -2.81218   0.94356  -3.63944
H    -3.77545  -0.17130   2.91039
H    -3.07878  -1.80076   3.24325
H    -4.15546  -1.54825   1.81923
H    -0.42776   2.27242   0.11249
H     1.93023   3.58715   2.96328
H     0.29832   2.82155   2.87045
H     0.86069   3.87466   1.55753
H     3.98744  -2.13344   0.75623
H     3.46958  -1.38035  -0.73040
H     2.98042   0.63400  -1.19944
H     1.42207   1.35964  -1.50827
H     2.10575  -0.57863  -3.25952
H     0.54043  -2.40230  -2.83519
H    -0.73072  -3.70744  -1.43398
H    -1.01824  -3.24209   0.26245
H    -1.96530  -2.47623  -1.04445
H    -0.07114  -1.24677   1.08983
