20
Generated by autodE on: 2022-06-21. E = -457.715322 Ha
C    -3.05518   0.87056  -0.12245
N    -1.82095   0.10327  -0.16112
C    -1.84410  -1.21759  -0.62606
C    -0.73335  -1.96022  -0.75582
C     0.64553  -1.44653  -0.42231
C     0.57235  -0.00971   0.06816
C     1.78444   0.72267   0.46799
N     2.95412   0.04411   0.35484
O     1.77217   1.89627   0.89200
C    -0.61553   0.65253   0.15791
H    -2.86737   1.83776   0.36058
H    -3.44688   1.05435  -1.13712
H    -3.82656   0.33607   0.45370
H    -2.83641  -1.60083  -0.87085
H    -0.83365  -2.98595  -1.11800
H     1.30725  -1.52910  -1.30905
H     1.12148  -2.09952   0.33771
H     3.81503   0.51496   0.61054
H     3.00579  -0.90263   0.00130
H    -0.63814   1.68585   0.50772
