44
Generated by autodE on: 2022-06-21. E = -1216.420092 Ha. Imaginary frequency = -289.7 cm-1
C    -3.80921  -0.32847  -2.67080
O    -3.10961  -0.26877  -1.42227
C    -1.99874   0.47763  -1.39662
O    -1.59401   1.10041  -2.37667
C    -1.27703   0.49112  -0.13088
C    -1.76368  -0.13188   1.09924
O    -2.53337  -1.08132   1.15317
O    -1.26339   0.44947   2.20710
C    -1.58205  -0.17176   3.45657
N    -0.21734   1.36929  -0.13100
N     0.84909   1.06600   0.58994
C     1.71890   2.02443   1.00623
C     1.30110   3.46526   0.83969
O     2.78775   1.71754   1.55922
C     1.45067  -0.85199   0.19222
C     1.26762  -1.41633   1.57997
N     2.07285  -0.90196   2.52468
O     0.44121  -2.31001   1.80811
C     2.85463  -0.60815  -0.33813
C     2.77951   0.01646  -1.70466
C     1.73373  -0.23182  -2.50749
N     0.67289  -1.04712  -2.07754
C    -0.21650  -1.63928  -3.07229
C     0.50209  -1.30287  -0.76422
H    -3.17894  -0.78951  -3.44577
H    -4.69400  -0.94952  -2.48828
H    -4.11211   0.67685  -2.99730
H    -1.02136   0.38228   4.21881
H    -1.27223  -1.22592   3.45043
H    -2.66111  -0.10686   3.66136
H    -0.06547   1.80600  -1.04945
H     2.05695   4.11461   1.29843
H     0.32113   3.63356   1.31080
H     1.19987   3.71067  -0.22986
H     1.91691  -1.19367   3.48490
H     2.55202  -0.01465   2.34347
H     3.39124  -1.57846  -0.38068
H     3.42847   0.02945   0.34402
H     3.59026   0.65687  -2.05587
H     1.63508   0.15761  -3.52147
H    -0.42679  -0.90972  -3.86328
H     0.25137  -2.53024  -3.52157
H    -1.15713  -1.93523  -2.59337
H    -0.29763  -1.98296  -0.48036
