30
Generated by autodE on: 2022-06-29. E = -3704.996213 Ha
C    -3.99297   0.40946   1.16984
C    -3.50330   0.25224  -0.23746
O    -3.95166  -0.59842  -0.99013
C    -2.36708   1.16688  -0.72328
C    -2.71504   1.68015  -2.12467
N    -2.18043   2.32000   0.16874
C    -0.95098   2.43254   0.50367
C    -0.42805   3.53691   1.35898
C    -0.02934   1.35241  -0.01697
C     0.51153   0.42446   1.11996
O    -0.65896  -0.33771   1.43992
C    -0.86616  -0.88473   0.12853
C     0.51975  -1.45136  -0.17465
Cl    0.81624  -2.72084  -1.28633
C     1.38180  -0.63273   0.44492
Br    3.24414  -0.56305   0.32712
C    -1.00226   0.39429  -0.75753
H    -4.40465   1.42070   1.30908
H    -3.14236   0.31954   1.86333
H    -4.75389  -0.34965   1.39281
H    -3.61429   2.31351  -2.09341
H    -2.90099   0.83332  -2.79921
H    -1.87951   2.27666  -2.52015
H     0.38091   4.07106   0.83349
H    -1.22423   4.24628   1.62039
H     0.01076   3.12982   2.28520
H     0.78760   1.76909  -0.62246
H     0.92651   0.92255   2.00246
H    -1.69226  -1.60194   0.11041
H    -0.71823   0.16931  -1.79148
