17
Generated by autodE on: 2022-06-29. E = -364.149923 Ha
C    -3.42160  -0.00013   0.26646
C    -2.00427   0.24010   0.12044
N    -0.86426   0.44807   0.00291
C     0.47492   0.55027  -0.11580
C     1.08292   1.90842  -0.35028
C     1.18984  -0.67384   0.00232
C     2.70055  -0.58179  -0.12171
O     0.63778  -1.78542   0.19586
H    -3.83483   0.58779   1.10163
H    -3.56256  -1.07029   0.48925
H    -3.96355   0.24036  -0.66223
H     0.29463   2.66702  -0.46203
H     1.69719   1.93458  -1.26657
H     1.73316   2.22877   0.48292
H     3.12392   0.10783   0.62672
H     3.13675  -1.58022   0.01928
H     2.99507  -0.19699  -1.11216
