13
Generated by autodE on: 2022-06-29. E = -3340.726066 Ha
Cl    1.54186  -1.92386   0.06292
C     0.06516  -1.09673  -0.19599
C    -0.19633   0.21519  -0.23713
Br    0.95179   1.66881  -0.01585
C    -1.74188   0.30501  -0.30437
C    -2.28187  -0.16746   1.06749
C    -2.01960  -1.47648   1.10621
C    -1.32374  -1.78120  -0.24230
O    -2.01097  -0.85869  -1.10598
H    -2.16125   1.21975  -0.73583
H    -2.72336   0.48208   1.82219
H    -2.18474  -2.20191   1.90159
H    -1.34521  -2.81013  -0.61563
