30
Generated by autodE on: 2022-06-29. E = -3704.880602 Ha. Imaginary frequency = -256.3 cm-1
C    -3.80737   0.44357   1.07755
C    -3.72597   0.60680  -0.42346
O    -4.33360  -0.17070  -1.18037
C    -2.92918   1.69116  -0.95927
C    -3.01791   2.08188  -2.40621
N    -2.26698   2.48760  -0.12470
C    -1.26648   2.84116   0.42685
C    -0.67140   3.81458   1.33903
C     0.21271   1.17699  -0.48478
C     0.62106   0.49975   0.84346
O    -0.60508  -0.16763   1.18559
C    -0.73891  -0.87393  -0.06314
C     0.63064  -1.59920  -0.07949
Cl    0.92629  -3.08311  -0.88387
C     1.48432  -0.73731   0.48811
Br    3.34531  -0.81209   0.62003
C    -0.63376   0.28531  -1.07294
H    -4.36658   1.28581   1.51766
H    -2.80832   0.43561   1.53430
H    -4.33038  -0.49359   1.31006
H    -3.82421   2.81412  -2.59078
H    -3.23850   1.18756  -3.00447
H    -2.07219   2.52330  -2.75506
H     0.25575   4.21156   0.89851
H    -1.36154   4.64122   1.57130
H    -0.39214   3.29560   2.27018
H     0.78197   1.97688  -0.95627
H     0.99125   1.13370   1.65593
H    -1.62805  -1.51277  -0.09236
H    -0.94434   0.21438  -2.11210
