44
Generated by autodE on: 2022-10-23. E = -1055.476851 Ha
C    -3.36108   2.05437  -3.48190
O    -2.74523   1.11274  -2.60284
C    -1.66922   1.54956  -1.90867
O    -1.25841   2.71458  -2.01198
C    -1.08596   0.56921  -1.03235
N    -0.06300   1.10630  -0.28931
C     0.88525   0.62143   0.50970
C     1.16145  -0.82093   0.58974
C     1.25299  -1.60618  -0.57520
C     1.46076  -2.98157  -0.48754
C     1.57871  -3.59783   0.76325
C     1.50965  -2.82444   1.92690
C     1.30862  -1.44677   1.84176
C     1.65566   1.58857   1.29909
C     2.97311   1.28951   1.71112
C     3.72300   2.21790   2.43079
C     3.18240   3.46736   2.75667
C     1.87708   3.77614   2.36034
C     1.11804   2.84742   1.64882
C    -1.58808  -0.79569  -0.84251
C    -1.77777  -1.32161   0.45248
C    -2.18568  -2.64160   0.63845
C    -2.42860  -3.46791  -0.46457
C    -2.27047  -2.95297  -1.75569
C    -1.85185  -1.63522  -1.94318
H    -3.75243   2.91856  -2.92402
H    -4.18697   1.52043  -3.96784
H    -2.64888   2.41136  -4.24118
H    -0.03729   2.12469  -0.42864
H     1.15560  -1.13428  -1.55353
H     1.52390  -3.57788  -1.40045
H     1.72860  -4.67783   0.83026
H     1.60321  -3.29847   2.90664
H     1.23534  -0.84969   2.75252
H     3.41536   0.32852   1.44553
H     4.74276   1.96752   2.73256
H     3.77237   4.19249   3.32169
H     1.43788   4.74140   2.62291
H     0.08581   3.09299   1.38953
H    -1.59320  -0.68931   1.32218
H    -2.31354  -3.02883   1.65215
H    -2.74110  -4.50450  -0.31846
H    -2.45756  -3.58834  -2.62495
H    -1.70028  -1.25281  -2.95338
