24
Generated by autodE on: 2022-10-23. E = -724.636334 Ha
C     2.58094  -0.97501   0.47453
O     1.55411  -1.59938  -0.29864
C     0.40662  -0.96561  -0.54896
C    -0.10091   0.26714  -0.26284
C     0.42943   1.38725   0.54812
F     1.63969   1.84109   0.13922
F     0.58324   1.08847   1.87140
F    -0.40087   2.45159   0.51455
C    -1.57302   0.21566  -0.68916
C    -2.30461  -0.72654   0.31582
C    -1.68502  -2.11533  -0.01577
C    -0.69694  -1.78789  -1.18321
C    -1.47767  -0.69295  -1.92903
H     3.37482  -1.72314   0.58986
H     2.97788  -0.09196  -0.04514
H     2.20010  -0.68598   1.46479
H    -2.04398   1.19597  -0.82376
H    -3.39015  -0.71792   0.13452
H    -2.13122  -0.41618   1.35596
H    -1.16380  -2.57468   0.83633
H    -2.44819  -2.82536  -0.36654
H    -0.33988  -2.65931  -1.74563
H    -2.45764  -1.03609  -2.29424
H    -0.90732  -0.23876  -2.75220
