32
Generated by autodE on: 2022-06-24. E = -823.117365 Ha
C    -0.15437  -1.76541   0.73938
N    -0.09688  -0.40606   0.20242
C    -1.14952   0.29483  -0.21021
C    -2.57154   0.02026  -0.10505
C    -3.12258  -0.72397   0.95848
C    -4.49860  -0.94109   1.01881
C    -5.34286  -0.41708   0.03481
C    -4.80439   0.33867  -1.01303
C    -3.43150   0.56024  -1.08549
O    -0.73141   1.39198  -0.84309
C     0.70049   1.42179  -0.85689
O     1.27263   2.36029  -1.40532
C     1.08643   0.26471  -0.15539
C     2.44721  -0.12779   0.18559
C     2.77696  -0.83933   1.36082
C     4.10277  -1.16501   1.65146
C     5.13717  -0.77748   0.79417
C     4.82763  -0.05494  -0.36364
C     3.50488   0.26247  -0.66818
H     0.73341  -2.30916   0.39974
H    -0.18180  -1.75769   1.83637
H    -1.04699  -2.26742   0.35143
H    -2.48634  -1.10541   1.75593
H    -4.91489  -1.51517   1.84937
H    -6.41984  -0.59109   0.08801
H    -5.45923   0.75499  -1.78162
H    -3.01144   1.14406  -1.90551
H     1.99944  -1.11982   2.07093
H     4.32883  -1.71619   2.56769
H     6.17374  -1.03033   1.02835
H     5.62453   0.25828  -1.04286
H     3.27617   0.81978  -1.57696
