52
Generated by autodE on: 2022-06-24. E = -1280.801470 Ha. Imaginary frequency = -386.7 cm-1
C    -2.47659  -2.67426   0.13994
N    -1.31610  -1.90066  -0.26321
C    -0.76422  -2.14109  -1.51337
C     0.54940  -2.04333  -1.78284
C     1.56862  -1.80524  -0.70333
C     0.93779  -1.40658   0.61313
C     1.73835  -1.52080   1.83946
N     3.09118  -1.56050   1.67345
O     1.23994  -1.59899   2.97885
C    -0.49122  -1.34548   0.75590
C    -0.93996   0.48232   0.87544
C    -2.41001   0.64609   1.03695
C    -2.92208   1.03722   2.28654
C    -4.29920   1.13975   2.48946
C    -5.18870   0.85308   1.44995
C    -4.68790   0.45819   0.20658
C    -3.31178   0.34965  -0.00147
O    -0.22018   0.84247   2.02119
C     1.06462   1.15054   1.65272
O     1.92354   1.37494   2.48752
C     1.06851   1.16808   0.19675
C     2.22161   1.45879  -0.64221
C     3.37960   2.02742  -0.06423
C     4.51587   2.26401  -0.83466
C     4.53127   1.93758  -2.19514
C     3.39961   1.36011  -2.77698
C     2.25844   1.11525  -2.01338
N    -0.24010   1.09167  -0.18369
C    -0.78460   1.39938  -1.49417
H    -2.97132  -2.20041   0.99705
H    -3.20023  -2.71906  -0.68795
H    -2.21080  -3.71202   0.42264
H    -1.49283  -2.40287  -2.28700
H     0.89715  -2.19395  -2.80674
H     2.15884  -2.73075  -0.54643
H     2.32136  -1.06953  -1.04174
H     3.65484  -1.48583   2.51423
H     3.51238  -1.23202   0.81129
H    -0.83634  -1.61108   1.75778
H    -2.23701   1.26099   3.10345
H    -4.67714   1.44764   3.46710
H    -6.26644   0.93384   1.60918
H    -5.37246   0.22232  -0.61127
H    -2.95081   0.00267  -0.96581
H     3.37628   2.28185   0.99360
H     5.39697   2.71095  -0.36865
H     5.42315   2.12736  -2.79660
H     3.40495   1.08600  -3.83422
H     1.40725   0.63104  -2.48712
H    -0.83450   0.51230  -2.14164
H    -1.78781   1.82169  -1.37229
H    -0.15111   2.15903  -1.96434
