36
Generated by autodE on: 2022-05-30. E = -3324.058718 Ha
C    -4.01067  -0.38803  -0.05350
C    -2.59427   0.09635   0.04522
O    -2.27410   1.21050  -0.32659
C    -1.52119  -0.88598   0.58402
C    -2.03163  -1.69749   1.77533
N    -1.35173  -1.80063  -0.57212
C    -0.21147  -1.60957  -1.10708
C     0.68560  -0.58381  -0.47830
Br    1.00796   0.72379  -1.94721
C     1.99198  -1.19783   0.05983
C     2.81555  -0.11963   0.79627
C     2.04715   0.05572   2.13714
C     0.77824  -0.80050   1.92838
C     1.41454  -2.01854   1.23127
C    -0.13153  -0.15844   0.79802
C    -0.25879   1.32866   1.14903
C    -1.13688   1.67479   2.33286
O     0.46281   2.18169   0.66655
H    -4.58671   0.28842  -0.69796
H    -4.05616  -1.41876  -0.43066
H    -4.45473  -0.38593   0.95601
H    -2.20222  -1.06136   2.65418
H    -1.30821  -2.47730   2.04467
H    -2.97407  -2.19826   1.52002
H     0.11560  -2.18317  -1.98270
H     2.54023  -1.75483  -0.71060
H     2.86423   0.81171   0.21657
H     3.84410  -0.47207   0.95861
H     2.61385  -0.37931   2.97316
H     1.85404   1.10462   2.38967
H     0.22585  -0.99378   2.85363
H     0.70966  -2.80242   0.92808
H     2.20243  -2.47621   1.84699
H    -2.05756   1.08659   2.41463
H    -1.37787   2.74563   2.29735
H    -0.54380   1.48786   3.24447
