22
Generated by autodE on: 2022-05-30. E = -2999.170018 Ha
C    -2.76786   1.74377   0.93143
C    -1.99035   0.53489   0.47267
O    -2.54772  -0.41702  -0.06584
C    -0.53637   0.55806   0.71341
C     0.42835  -0.22387   0.16633
Br    0.25901  -1.60920  -1.09148
C     1.78647   0.31282   0.55950
C     1.94509   1.65526  -0.22967
C     0.87230   2.57242   0.42178
C     0.22253   1.63838   1.49071
C     1.45334   0.84270   1.96945
H    -3.81651   1.65188   0.61984
H    -2.33048   2.66772   0.52049
H    -2.71634   1.82759   2.02955
H     2.62119  -0.38869   0.44938
H     1.79726   1.51031  -1.30916
H     2.96104   2.04762  -0.07753
H     1.33364   3.44224   0.91232
H     0.12959   2.94464  -0.29769
H    -0.36360   2.15886   2.25630
H     2.24851   1.47888   2.38630
H     1.20070   0.04237   2.68006
