36
Generated by autodE on: 2022-05-30. E = -3323.978973 Ha. Imaginary frequency = -254.2 cm-1
C    -3.07317   0.18044  -1.38203
C    -3.06413  -0.31627   0.03847
O    -3.82972   0.12954   0.89726
C    -2.10458  -1.36373   0.40755
C    -2.21385  -2.04330   1.73955
N    -1.27561  -1.80570  -0.50577
C    -0.24410  -1.85598  -1.12250
C     1.07420  -0.19633  -0.23957
Br    1.36334   0.69615  -1.90863
C     2.21052  -1.02911   0.33980
C     3.13485  -0.02140   1.09325
C     2.26299   0.41774   2.30674
C     0.92804  -0.35738   2.06704
C     1.48128  -1.68921   1.52357
C     0.31760   0.28477   0.81796
C    -0.61653   1.40344   0.84142
C    -1.17884   1.79064   2.19266
O    -0.94423   2.03617  -0.16915
H    -3.81512   0.98298  -1.48033
H    -2.07931   0.56565  -1.65482
H    -3.32064  -0.64103  -2.07334
H    -2.08283  -1.30895   2.54934
H    -1.45177  -2.82460   1.84886
H    -3.21087  -2.49604   1.86716
H     0.10000  -2.46886  -1.96131
H     2.72135  -1.68076  -0.37891
H     4.05113  -0.53561   1.41822
H     3.43122   0.81697   0.44703
H     2.71718   0.10518   3.25945
H     2.10169   1.50416   2.34868
H     0.26805  -0.41438   2.93967
H     0.70991  -2.40758   1.22169
H     2.17446  -2.17657   2.22520
H    -1.69824   0.93899   2.65831
H    -1.88205   2.62456   2.06859
H    -0.36942   2.09067   2.87769
