24
Generated by autodE on: 2022-10-20. E = -555.042616 Ha. Imaginary frequency = -415.5 cm-1
C     2.57900  -1.75595  -0.66476
O     2.21356  -0.91667   0.44343
C     1.10919  -0.21155   0.29427
C     0.30683   0.74138   0.24314
O     0.06007   2.05212   0.16641
C     1.23221   2.86819   0.03924
C    -1.71120  -0.15112  -0.11387
C    -2.74236   0.73160   0.51707
C    -1.57760  -0.10796  -1.60805
N    -1.37081  -1.26170   0.54343
O    -0.29956  -1.91520   0.21242
H     3.56491  -2.17438  -0.42561
H     2.63462  -1.16352  -1.59193
H     1.84445  -2.56449  -0.78477
H     0.89175   3.91083  -0.01815
H     1.88903   2.73552   0.91442
H     1.78533   2.60233  -0.87651
H    -2.45531   1.78375   0.37349
H    -3.72576   0.59125   0.03725
H    -2.83770   0.54098   1.59660
H    -1.36845   0.91610  -1.94723
H    -0.78479  -0.77847  -1.95726
H    -2.53745  -0.41707  -2.06057
H    -1.60666  -1.26992   1.54351
