51
Generated by autodE on: 2022-10-22. E = -1427.642574 Ha
C    -3.10870   2.67448  -2.52806
N    -2.52139   1.50112  -1.91525
C    -1.83081   1.57730  -0.77489
O    -1.77292   2.59988  -0.08564
C    -1.10462   0.27511  -0.27384
C    -2.00698  -0.94390  -0.60200
O    -2.32924  -1.21410  -1.76916
N    -2.41448  -1.64595   0.45583
C    -3.21970  -2.84335   0.33702
N    -0.92060   0.39752   1.16184
C     0.37565   0.96577   1.48931
C     0.80835   0.62008   2.91768
C    -0.11971  -0.20011   3.76699
O     1.86732   1.04095   3.35555
C     1.34759   0.53088   0.34071
O     2.12255   1.61566  -0.10922
C     3.15116   2.09641   0.73837
C     2.14852  -0.76138   0.65873
C     3.09111  -1.09259  -0.52107
C     2.13219  -1.71738  -1.57162
C     0.73738  -1.47076  -0.95799
C     1.05402  -1.83129   0.50711
C     0.37944   0.05720  -0.83735
C     0.60075   0.81573  -2.15788
F     0.26873   2.12005  -2.09049
F     1.86405   0.79601  -2.60875
F    -0.15328   0.26956  -3.13787
H    -3.70297   2.36404  -3.39634
H    -2.32875   3.37851  -2.86410
H    -3.76273   3.20396  -1.81914
H    -2.51767   0.60438  -2.40033
H    -2.00487  -1.37034   1.34754
H    -3.98530  -2.70522  -0.43880
H    -3.71219  -3.04557   1.29667
H    -2.60716  -3.71887   0.06328
H    -1.66196   0.97447   1.55587
H     0.35654   2.06974   1.44922
H     0.31467  -0.32778   4.76682
H    -0.29604  -1.18059   3.29908
H    -1.10256   0.29192   3.84262
H     3.68298   2.87096   0.16796
H     3.86790   1.30479   1.01331
H     2.74896   2.53579   1.66409
H     2.65217  -0.72059   1.63023
H     3.86229  -1.80662  -0.19917
H     3.60070  -0.19757  -0.89970
H     2.26657  -1.33327  -2.58656
H     2.26827  -2.80769  -1.62042
H    -0.04836  -2.04621  -1.45507
H     1.44925  -2.85286   0.59766
H     0.21430  -1.71830   1.19752
