24
Generated by autodE on: 2022-10-22. E = -724.636322 Ha
C     2.27065  -1.30546  -0.98746
O     1.30825  -1.82944  -0.07029
C     0.33943  -1.05296   0.41903
C    -0.00787   0.25911   0.28864
C     0.53762   1.34277  -0.56119
F    -0.10600   2.50879  -0.33957
F     1.85438   1.59549  -0.35824
F     0.41698   1.10975  -1.90073
C    -1.36680   0.39669   0.98563
C    -2.41029  -0.34899   0.09802
C    -1.97129  -1.83525   0.24276
C    -0.74842  -1.74607   1.21403
C    -1.19512  -0.60480   2.14291
H     2.91284  -2.14804  -1.27171
H     1.77489  -0.90170  -1.88201
H     2.87689  -0.52240  -0.51129
H    -1.64193   1.42374   1.25100
H    -2.38161   0.00829  -0.94111
H    -3.42907  -0.19232   0.48385
H    -2.76197  -2.44781   0.70011
H    -1.69346  -2.30255  -0.71285
H    -0.43985  -2.70006   1.65881
H    -2.13470  -0.82401   2.67262
H    -0.41953  -0.30286   2.86158
