51
Generated by autodE on: 2022-10-22. E = -1427.590342 Ha. Imaginary frequency = -343.3 cm-1
C    -2.88516   3.76553  -1.00650
N    -2.28393   2.72862  -0.19120
C    -2.39787   1.42974  -0.52242
O    -3.08591   1.07494  -1.49497
C    -1.71923   0.42736   0.35714
C    -2.38001  -0.90776   0.57927
O    -2.14496  -1.53524   1.62869
N    -3.15638  -1.38287  -0.39816
C    -3.75261  -2.69990  -0.32510
N    -1.03550   0.80963   1.46984
C     0.09487   1.57588   1.46406
C     0.86032   1.71091   2.71636
C     0.48420   0.86956   3.91142
O     1.81367   2.48806   2.77864
C     1.26870   0.60425  -0.17183
O     1.78379   1.68995  -0.81552
C     2.92048   2.34740  -0.25630
C     2.15268  -0.42614   0.53079
C     2.91267  -1.16963  -0.61470
C     1.80340  -2.04959  -1.26067
C     0.51581  -1.60225  -0.49978
C     1.10778  -1.48372   0.91930
C     0.24041  -0.13149  -0.83873
C    -0.09653   0.22615  -2.25032
F     0.96353   0.07816  -3.10019
F    -0.48328   1.50693  -2.41264
F    -1.06658  -0.56397  -2.75545
H    -3.98543   3.70235  -1.00041
H    -2.54541   3.68232  -2.05025
H    -2.58428   4.74303  -0.61042
H    -1.80141   2.99750   0.65767
H    -3.29948  -0.76140  -1.19760
H    -4.45407  -2.77965   0.52121
H    -4.30000  -2.89350  -1.25571
H    -2.98169  -3.47694  -0.19807
H    -1.08764   0.06667   2.17701
H     0.12586   2.43863   0.80168
H     1.15389   1.11535   4.74488
H     0.57971  -0.20387   3.67914
H    -0.55997   1.05017   4.21175
H     2.68503   2.76560   0.73117
H     3.17597   3.15655  -0.95304
H     3.77934   1.66291  -0.17328
H     2.79040  -0.03154   1.33030
H     3.72331  -1.78044  -0.19176
H     3.35984  -0.46276  -1.32764
H     1.73062  -1.92918  -2.34696
H     1.97490  -3.11633  -1.05302
H    -0.33653  -2.27938  -0.63073
H     0.39444  -1.16997   1.68152
H     1.57255  -2.42427   1.24771
