27
Generated by autodE on: 2022-06-16. E = -611.544852 Ha
C    -1.05103   1.96537   0.26658
N    -0.89085   1.07789  -0.88291
O     0.50015   0.95026  -1.18471
C     1.08901  -0.07617  -0.34257
C     2.16871  -0.77442  -1.16812
C     1.76344   0.62037   0.78205
N     2.40146   1.25574   1.51500
C    -0.09496  -1.00408   0.02123
C    -0.32951  -1.35457   1.46437
O     0.29653  -0.94443   2.41852
C    -1.32812  -0.32432  -0.70734
C    -2.64467  -0.41538   0.06003
C    -1.49763  -0.95231  -2.09404
H    -0.49579   2.88898   0.05676
H    -0.69907   1.55078   1.22714
H    -2.11307   2.22361   0.36844
H     1.69786  -1.26750  -2.02960
H     2.90644  -0.04155  -1.52478
H     2.68163  -1.52913  -0.55490
H     0.06645  -1.98415  -0.45383
H    -1.14635  -2.09804   1.60661
H    -2.57568  -0.03214   1.08709
H    -3.42184   0.15448  -0.47055
H    -2.96975  -1.46409   0.10914
H    -2.32019  -0.45783  -2.63168
H    -0.58002  -0.85018  -2.68999
H    -1.73303  -2.02259  -1.99897
