14
Generated by autodE on: 2022-06-16. E = -270.687342 Ha
C    -1.10486   1.35426   0.87163
C    -0.97207   0.10031   0.05996
C    -2.27175  -0.52325  -0.34943
C     0.20545  -0.47193  -0.30505
C     1.52963   0.02525   0.02418
O     2.56806  -0.52807  -0.32989
H    -0.15087   1.80674   1.16576
H    -1.68812   1.14021   1.78336
H    -1.68697   2.09916   0.30291
H    -2.87390  -0.76414   0.54380
H    -2.12952  -1.43757  -0.94182
H    -2.86860   0.19608  -0.93660
H     0.19334  -1.39078  -0.90094
H     1.58460   0.95734   0.62988
