27
Generated by autodE on: 2022-06-16. E = -611.452680 Ha. Imaginary frequency = -327.2 cm-1
C    -0.88971   2.09189   0.19335
N    -0.76994   1.35924  -1.04883
O     0.48311   0.92635  -1.30807
C     1.37939   0.46504  -0.47091
C     2.49574  -0.31026  -1.08859
C     1.60253   0.93605   0.85865
N     1.95397   1.20072   1.93847
C    -0.42098  -1.26114   0.05669
C    -0.22615  -1.34125   1.48622
O     0.70373  -1.94797   2.02124
C    -1.53803  -0.71252  -0.58360
C    -2.78166  -0.30099   0.15937
C    -1.74645  -1.07123  -2.03087
H    -0.17985   2.93857   0.20278
H    -0.74046   1.50428   1.11221
H    -1.90708   2.50223   0.21206
H     2.17855  -0.70476  -2.06279
H     3.39235   0.31954  -1.21768
H     2.76397  -1.14322  -0.42042
H     0.28073  -1.85291  -0.53603
H    -0.96424  -0.80314   2.12274
H    -2.58881   0.08863   1.16572
H    -3.34570   0.45078  -0.41009
H    -3.43282  -1.18651   0.26342
H    -2.40333  -0.35013  -2.53589
H    -0.79181  -1.13079  -2.57301
H    -2.22882  -2.06339  -2.08916
