35
Generated by autodE on: 2022-07-27. E = -820.737701 Ha
C     5.29290   0.83317  -0.18749
N     4.12383   0.15780   0.33633
C     2.88038   0.46695  -0.08929
O     2.68630   1.36717  -0.93959
C     1.75282  -0.29477   0.46277
C     1.87359  -1.47582   1.35964
N     0.58587   0.11943  -0.04836
C    -0.70816  -0.20446   0.14422
C    -1.16688  -0.85455   1.39581
O    -2.03942  -1.73913   1.40670
N    -0.63633  -0.37540   2.54551
C    -0.86880  -1.03154   3.81639
C    -1.66328   0.15737  -0.90018
C    -3.04411   0.29333  -0.61944
C    -3.94294   0.68281  -1.60964
C    -3.50030   0.95824  -2.90964
C    -2.14073   0.82453  -3.20671
C    -1.23707   0.41807  -2.22427
H     5.22376   1.92275  -0.04008
H     6.18149   0.46257   0.33792
H     5.41978   0.64839  -1.26697
H     4.24937  -0.56993   1.02939
H     1.80893  -1.23015   2.43344
H     2.83293  -1.98748   1.19266
H     1.06952  -2.19922   1.14568
H     0.77178   0.82355  -0.78203
H     0.07184   0.34842   2.49807
H    -0.54032  -2.08401   3.79082
H    -0.30635  -0.50465   4.59688
H    -1.93725  -1.01872   4.08235
H    -3.41165   0.09561   0.38772
H    -5.00262   0.78212  -1.36123
H    -4.20857   1.26512  -3.68246
H    -1.77881   1.01929  -4.21932
H    -0.18950   0.27985  -2.50162
