35
Generated by autodE on: 2022-06-22. E = -820.745141 Ha
C     5.39169  -0.55326  -0.69014
N     4.03963  -0.94623  -0.35178
C     2.98985  -0.12736  -0.58188
O     3.14897   0.99891  -1.10381
C     1.64903  -0.60324  -0.20362
C     1.34640  -1.96486   0.32260
N     0.71551   0.31388  -0.44660
C    -0.61074   0.43323  -0.27046
C    -1.13258   1.65707  -0.89617
O    -0.38250   2.40183  -1.56729
N    -2.43568   1.96633  -0.70717
C    -3.01872   3.16740  -1.26624
C    -1.40550  -0.45589   0.59492
C    -2.58890  -1.06281   0.12885
C    -3.35526  -1.87266   0.96958
C    -2.95352  -2.09799   2.29011
C    -1.78297  -1.49815   2.76709
C    -1.02010  -0.68077   1.93254
H     5.70118   0.35043  -0.13957
H     6.07403  -1.37237  -0.43223
H     5.48940  -0.33862  -1.76635
H     3.89161  -1.83603   0.10799
H     1.29023  -2.00225   1.42487
H     0.38163  -2.32504  -0.06146
H     2.11468  -2.68281   0.00294
H     1.10870   1.14169  -0.93356
H    -3.00422   1.37245  -0.11474
H    -4.09984   3.15704  -1.07987
H    -2.84844   3.22165  -2.35280
H    -2.59374   4.08028  -0.81530
H    -2.89731  -0.91200  -0.90770
H    -4.26546  -2.34011   0.58627
H    -3.55096  -2.73588   2.94555
H    -1.46655  -1.66076   3.80025
H    -0.11921  -0.19966   2.31835
