49
Generated by autodE on: 2022-06-22. E = -1091.414180 Ha. Imaginary frequency = -285.3 cm-1
C    -1.48581  -0.19341   3.94053
N    -1.13523   0.34275   2.64027
C    -1.48075  -0.29384   1.50282
O    -2.27005  -1.24370   1.49570
C    -0.92193   0.33756   0.25128
C    -1.88267   0.94811  -0.68271
C    -3.27008   0.92605  -0.42523
C    -4.17076   1.51326  -1.31373
C    -3.71467   2.13956  -2.47733
C    -2.34219   2.16557  -2.74867
C    -1.43904   1.57194  -1.86958
N     0.34677   0.79216   0.25463
C     1.49424   0.08278   0.56829
C     1.52360  -0.79513   1.79001
C     2.68721   0.93094   0.23812
O     2.55451   1.96392  -0.44412
N     3.89532   0.51534   0.65920
C     5.10972   1.19884   0.25687
C     1.40235  -1.35722  -1.02688
C     1.94707  -0.57099  -2.20513
C     2.35569  -2.44034  -0.56485
C    -0.00051  -1.60978  -1.07795
C    -0.72872  -2.66465  -0.43792
O    -0.34369  -3.44895   0.44447
H    -1.02722  -1.18360   4.10016
H    -1.12735   0.49403   4.71616
H    -2.57611  -0.30343   4.03837
H    -0.45812   1.09611   2.59052
H    -3.64989   0.44110   0.47319
H    -5.23973   1.48356  -1.09050
H    -4.42263   2.59778  -3.17147
H    -1.97111   2.64089  -3.65945
H    -0.37866   1.58043  -2.12620
H     0.57334   1.53459  -0.41524
H     2.45448  -1.37032   1.84169
H     1.45263  -0.19387   2.71024
H     0.70550  -1.52547   1.78438
H     3.97641  -0.36649   1.15115
H     5.06558   2.26438   0.52752
H     5.96227   0.73737   0.76973
H     5.27075   1.13158  -0.83182
H     1.37052   0.34230  -2.40502
H     1.89464  -1.19923  -3.11127
H     3.00126  -0.29367  -2.06376
H     2.53849  -3.12291  -1.41403
H     3.33183  -2.02124  -0.28109
H     1.95548  -3.03721   0.25864
H    -0.56566  -1.09917  -1.85896
H    -1.77585  -2.75817  -0.81194
