33
Generated by autodE on: 2022-06-17. E = -674.031952 Ha
C    -2.72910   1.91063  -1.88668
C    -2.93107   1.05780  -0.66711
O    -3.88036   1.22003   0.08399
C    -1.92288  -0.05322  -0.40869
N    -0.56138   0.31529  -0.80067
C     0.26482  -0.15742   0.06347
C     1.72535   0.04193  -0.05670
C     2.59312  -0.32490   0.98775
C     3.97074  -0.12118   0.87353
C     4.50300   0.44830  -0.28600
C     3.64885   0.81547  -1.33369
C     2.27482   0.61490  -1.22005
C    -0.37167  -0.99007   1.16746
C    -0.12016  -2.48437   0.91552
C    -1.85302  -0.54821   1.05043
C    -2.90780  -1.57906   1.43019
H    -3.61498   2.53537  -2.06164
H    -1.84705   2.55234  -1.73173
H    -2.51328   1.28717  -2.76791
H    -2.26189  -0.87081  -1.07980
H     2.19368  -0.76717   1.90113
H     4.62986  -0.40910   1.69575
H     5.58047   0.60554  -0.37595
H     4.05945   1.25902  -2.24390
H     1.60726   0.89752  -2.03464
H     0.03735  -0.72778   2.15445
H    -0.51968  -2.79788  -0.06185
H    -0.59671  -3.09890   1.69345
H     0.95716  -2.70683   0.92502
H    -1.98234   0.33758   1.69364
H    -2.87371  -2.45935   0.76996
H    -3.91285  -1.14024   1.35031
H    -2.77172  -1.92620   2.46684
