12
Generated by autodE on: 2022-06-17. E = -157.299003 Ha
C    -1.59134  -0.43060  -0.32434
C    -0.64583   0.65269   0.10125
C     0.68600   0.56737   0.24741
C     1.55638  -0.63246   0.02062
H    -2.13669  -0.13780  -1.23905
H    -1.08834  -1.38803  -0.52195
H    -2.36141  -0.60400   0.44806
H    -1.11371   1.62241   0.31390
H     1.21541   1.47297   0.57002
H     2.10568  -0.89807   0.94122
H     0.99176  -1.51804  -0.30429
H     2.32512  -0.42027  -0.74339
