21
Generated by autodE on: 2022-06-17. E = -516.643188 Ha
C     4.75628  -0.04848  -0.04571
C     3.24630  -0.07937  -0.14948
O     2.69714  -0.48627  -1.19748
C     2.51769   0.37096   0.98934
N     1.18298   0.34547   0.90207
C     0.05406   0.24213   0.62055
C    -1.30167   0.10611   0.25021
C    -2.34173   0.44726   1.14157
C    -3.66373   0.29579   0.73056
C    -3.96023  -0.18876  -0.54900
C    -2.92525  -0.52645  -1.42951
C    -1.59583  -0.38363  -1.04280
H     5.16046   0.58781  -0.85015
H     5.11410   0.32485   0.92380
H     5.15010  -1.06495  -0.20989
H     2.96286   0.73044   1.91505
H    -2.10240   0.82399   2.13695
H    -4.47157   0.55881   1.41664
H    -5.00047  -0.30354  -0.86080
H    -3.15571  -0.90454  -2.42777
H    -0.77724  -0.64195  -1.71658
