53
Generated by autodE on: 2022-06-24. E = -1338.275375 Ha
C    -1.71179   2.09380   2.29706
N    -1.29413   1.87446   0.93068
C    -1.89688   1.03919   0.08125
O    -2.97071   0.46400   0.30480
C    -1.13807   0.78133  -1.24416
C    -2.12210   1.03749  -2.38222
N     0.05459   1.61978  -1.36158
C     1.29593   0.89410  -1.06012
C     2.14697   0.69303  -2.32186
C     2.17115   1.68448  -0.05976
O     3.37077   1.53531   0.05591
O     1.49424   2.61846   0.61346
C     2.18895   3.30261   1.66374
C     0.77925  -0.49811  -0.48944
O     1.59994  -1.59979  -0.79307
C     2.82144  -1.79110  -0.08149
C     0.57245  -0.49226   1.04354
O     1.38087   0.09209   1.75206
C    -0.50032  -1.31329   1.63909
C    -0.51571  -1.43634   3.13182
C    -1.47543  -1.88150   0.87495
C    -2.58558  -2.67059   1.48944
C    -1.51510  -1.69582  -0.59585
O    -2.30185  -2.31346  -1.29694
C    -0.56523  -0.68943  -1.25066
O    -0.37627  -1.00928  -2.60242
C     0.07153  -2.30503  -2.99534
H    -2.08042   3.12122   2.44745
H    -2.51505   1.39131   2.55158
H    -0.85711   1.93022   2.97153
H    -0.41439   2.28656   0.61227
H    -1.62944   0.90082  -3.35172
H    -2.49829   2.06937  -2.31237
H    -2.97539   0.35128  -2.31191
H     0.10625   2.04647  -2.28225
H     3.07377   0.15039  -2.10407
H     1.57428   0.14429  -3.07572
H     2.41819   1.67995  -2.72779
H     1.45110   3.96801   2.12670
H     3.02748   3.88496   1.25670
H     2.56471   2.57764   2.39982
H     3.36788  -2.56727  -0.63396
H     2.64327  -2.14708   0.94625
H     3.42754  -0.87578  -0.04582
H     0.35618  -0.94758   3.58038
H    -1.42951  -0.97527   3.54244
H    -0.52994  -2.49447   3.43756
H    -3.20556  -2.01217   2.12082
H    -2.19266  -3.46258   2.14572
H    -3.22227  -3.12159   0.71989
H     1.11636  -2.25165  -3.33752
H    -0.56479  -2.63648  -3.83053
H     0.00882  -3.04448  -2.18824
