27
Generated by autodE on: 2022-06-24. E = -648.781048 Ha
C    -4.64050   0.39785   0.75908
N    -3.54949   0.10726  -0.14851
C    -2.26223   0.18113   0.24701
O    -1.95169   0.51446   1.41118
C    -1.22508  -0.14984  -0.75220
C    -1.56292  -0.54809  -2.15199
N    -0.00784  -0.05623  -0.23222
C     1.26647  -0.24977  -0.62226
C     1.66253  -0.70505  -1.98881
C     2.20527   0.03879   0.43821
O     1.88691   0.41352   1.57240
O     3.49886  -0.13907   0.08540
C     4.47535   0.12414   1.09433
H    -4.58854   1.43344   1.13246
H    -4.62671  -0.27372   1.63279
H    -5.58985   0.26380   0.22673
H    -3.76826  -0.17413  -1.09675
H    -2.08398  -1.52131  -2.17609
H    -2.23929   0.19198  -2.61105
H    -0.68014  -0.62424  -2.79139
H    -0.06819   0.24716   0.75847
H     2.74370  -0.87865  -2.01971
H     1.42192   0.04147  -2.76524
H     1.16232  -1.64670  -2.26899
H     4.42082   1.17008   1.43215
H     4.33545  -0.53934   1.96114
H     5.45072  -0.06808   0.63084
