27
Generated by autodE on: 2022-07-27. E = -648.764038 Ha
C    -1.96699   1.84148   1.38545
N    -1.35755   1.32063   0.17725
C    -1.75466   0.13923  -0.34296
O    -2.80464  -0.41920   0.00232
C    -0.97047  -0.39517  -1.48900
C    -1.74373  -1.03251  -2.59551
N     0.34460  -0.29876  -1.60345
C     1.36695  -0.03018  -0.72758
C     2.68860   0.35072  -1.32811
C     1.21047  -0.32157   0.66120
O     0.22159  -0.81469   1.21736
O     2.34445  -0.03423   1.36884
C     2.32131  -0.35287   2.75792
H    -1.52190   2.81728   1.61633
H    -1.80508   1.16575   2.24230
H    -3.05071   1.97131   1.25184
H    -0.42549   1.65210  -0.05334
H    -2.61673  -0.42205  -2.87494
H    -1.11033  -1.18453  -3.48248
H    -2.12852  -2.01841  -2.28074
H     0.68265  -0.50101  -2.55084
H     3.51997  -0.19818  -0.86161
H     2.69787   0.13153  -2.40870
H     2.90886   1.42800  -1.21943
H     1.51689   0.19121   3.27701
H     3.29529  -0.04419   3.15830
H     2.17989  -1.43285   2.91907
