53
Generated by autodE on: 2022-06-24. E = -1338.216948 Ha. Imaginary frequency = -252.3 cm-1
C    -2.56040   3.36056   1.14125
N    -1.89050   2.81848  -0.02497
C    -1.91649   1.49208  -0.27498
O    -2.69537   0.72729   0.29344
C    -1.09179   1.07973  -1.49013
C    -1.94694   1.15381  -2.73051
N     0.18345   1.57315  -1.62855
C     1.25076   1.43024  -0.80230
C     2.60282   1.60382  -1.41224
C     1.13375   1.46712   0.66114
O     0.10723   1.41989   1.32401
O     2.35061   1.54425   1.22796
C     2.39792   1.57621   2.65825
C     0.88546  -1.04923  -1.03362
O     1.78584  -1.09208  -2.05672
C     2.80436  -2.09517  -2.07079
C     1.28203  -1.34220   0.33694
O     2.47522  -1.40542   0.67461
C     0.19724  -1.57481   1.34218
C     0.60943  -1.72231   2.77535
C    -1.10600  -1.66043   0.97296
C    -2.20271  -1.89639   1.96463
C    -1.48477  -1.57804  -0.46431
O    -2.55645  -2.01707  -0.87522
C    -0.49146  -1.01845  -1.42036
O    -0.75536  -1.27035  -2.75644
C    -0.60594  -2.62598  -3.17722
H    -2.50078   4.45575   1.11144
H    -2.09443   3.00217   2.07497
H    -3.61831   3.06323   1.14915
H    -1.12765   3.35749  -0.42193
H    -2.39618   2.15581  -2.82796
H    -1.36306   0.92930  -3.63163
H    -2.76170   0.42234  -2.64742
H     0.47078   1.63037  -2.60690
H     3.27807   0.82364  -1.03235
H     2.55414   1.51959  -2.50558
H     3.04379   2.57832  -1.14604
H     1.85653   2.45338   3.04186
H     3.46002   1.64444   2.92087
H     1.96223   0.66397   3.08536
H     2.40811  -3.06665  -1.73518
H     3.12785  -2.18188  -3.11733
H     3.65921  -1.81805  -1.44015
H     0.15403  -0.92991   3.39138
H     0.26190  -2.68294   3.18923
H     1.69905  -1.67088   2.88001
H    -2.27487  -1.04607   2.66265
H    -3.16888  -2.01806   1.46070
H    -2.00630  -2.79382   2.57348
H     0.40399  -3.01119  -2.96968
H    -0.77505  -2.63509  -4.26288
H    -1.34859  -3.27869  -2.69279
