28
Generated by autodE on: 2022-06-21. E = -765.709391 Ha
C    -2.66809  -2.56488   1.60123
O    -1.84559  -1.55448   1.00980
C    -2.47229  -0.42083   0.60472
O    -3.68160  -0.27724   0.74211
C    -1.57461   0.54874   0.01975
O    -0.22336   0.33513  -0.11441
C     0.58278  -0.61145   0.17325
C     1.97633  -0.46459  -0.12846
C     2.50601   0.69673  -0.73805
C     3.86727   0.77444  -1.00350
C     4.71454  -0.29354  -0.66906
C     4.19805  -1.44586  -0.06559
C     2.83539  -1.53541   0.20546
C    -1.97520   1.84059  -0.48462
C    -0.88719   2.72539  -1.06818
O    -3.14792   2.24234  -0.45754
H    -1.99290  -3.38873   1.86167
H    -3.16495  -2.18404   2.50560
H    -3.43108  -2.91332   0.88972
H     0.19815  -1.51697   0.64444
H     1.84086   1.52197  -0.99490
H     4.27928   1.66948  -1.47404
H     5.78378  -0.22396  -0.88154
H     4.86126  -2.27378   0.19268
H     2.41899  -2.42870   0.67641
H    -0.11207   2.94982  -0.31938
H    -1.34994   3.66118  -1.40718
H    -0.38693   2.23470  -1.91720
