28
Generated by autodE on: 2022-07-27. E = -765.713215 Ha
C    -0.26862   2.89616  -2.63894
O    -0.33928   1.83371  -1.68521
C    -1.57887   1.36074  -1.40665
O    -2.57943   1.82283  -1.94585
C    -1.57218   0.28909  -0.43265
O    -0.30004  -0.02078  -0.00780
C     0.14122  -0.87541   0.83410
C     1.55571  -0.95914   1.04984
C     2.47219  -0.13431   0.35628
C     3.83312  -0.26037   0.60276
C     4.29652  -1.20138   1.53580
C     3.39560  -2.02052   2.22612
C     2.02891  -1.90356   1.98709
C    -2.70542  -0.41729   0.07924
C    -4.08951  -0.05662  -0.41250
O    -2.57542  -1.32732   0.92621
H    -0.66757   2.57780  -3.61376
H     0.79494   3.14623  -2.73438
H    -0.83082   3.77575  -2.29117
H    -0.57484  -1.51192   1.35631
H     2.09771   0.59251  -0.36630
H     4.54446   0.37364   0.06945
H     5.36856  -1.29461   1.72393
H     3.76303  -2.75026   2.95031
H     1.31343  -2.53615   2.51713
H    -4.17142  -0.17608  -1.50267
H    -4.32980   0.99331  -0.18905
H    -4.80868  -0.71713   0.09054
