51
Generated by autodE on: 2022-06-21. E = -1117.239692 Ha. Imaginary frequency = -290.3 cm-1
C    -5.11731  -2.29756  -1.11864
C    -3.90687  -2.28904  -0.51665
C    -3.66913  -2.96136   0.80987
C    -2.80437  -1.57439  -1.14366
C    -1.53093  -1.52738  -0.66247
C    -0.50078  -0.73158  -1.25464
C    -0.86984   1.68767  -0.10448
C    -1.97503   1.17895   0.66069
C    -3.38312   1.42861   0.17945
O    -1.79977   0.52078   1.70739
C    -0.97562   2.56285  -1.25660
O    -2.00207   2.80208  -1.88578
O     0.21718   3.09126  -1.62800
C     0.20776   3.90976  -2.79950
O     0.41510   1.56220   0.35676
C     0.90696   0.41677   0.81870
C     2.30172   0.48263   1.24264
C     3.16490   1.49203   0.76952
C     4.49775   1.51733   1.17318
C     4.98851   0.53859   2.04749
C     4.13704  -0.46344   2.52492
C     2.80022  -0.49211   2.12756
C     0.86816  -0.83592  -0.94325
C     1.39009  -2.12063  -0.33137
C     1.82396  -0.13180  -1.87698
H    -5.27515  -1.79126  -2.07550
H    -5.97434  -2.80639  -0.66912
H    -4.58920  -3.42411   1.19271
H    -2.89503  -3.74215   0.72964
H    -3.30676  -2.22868   1.54992
H    -3.03710  -1.02549  -2.06257
H    -1.27994  -2.09489   0.23608
H    -0.79496  -0.08702  -2.08633
H    -3.53931   0.97356  -0.80928
H    -3.59171   2.50266   0.07057
H    -4.07656   0.98031   0.90328
H    -0.13269   3.33741  -3.67536
H     1.24380   4.23774  -2.94728
H    -0.44676   4.78376  -2.66482
H     0.23089  -0.22951   1.37572
H     2.77626   2.25233   0.09084
H     5.16127   2.30320   0.80524
H     6.03493   0.56143   2.36042
H     4.51550  -1.22164   3.21400
H     2.12901  -1.26538   2.50586
H     2.43922  -2.01055  -0.02533
H     1.34598  -2.92613  -1.08416
H     0.81041  -2.44987   0.54202
H     1.43235   0.84610  -2.19054
H     1.97629  -0.74506  -2.78267
H     2.81163   0.01315  -1.41607
