57
Generated by autodE on: 2022-10-24. E = -1100.818266 Ha
C    -3.23690   0.60619  -0.01458
C    -2.74457  -0.47668  -0.63254
C    -3.63858  -1.48691  -1.30001
C    -1.25905  -0.76192  -0.73599
C    -0.31595   0.42834  -0.54010
C    -0.33350   1.40877  -1.66979
C    -0.26069   2.74953  -1.57247
C    -0.16530   3.50504  -0.27410
C    -0.25716   3.61616  -2.80360
C     1.06155  -0.25398  -0.26593
C     1.74870  -0.75084  -1.54917
C     1.93842   0.73592   0.50260
C     1.74618   0.92883   1.88090
C     2.44978   1.91312   2.57716
C     3.36395   2.73364   1.90720
C     3.56999   2.54809   0.53844
C     2.86768   1.55578  -0.15475
N     0.63033  -1.36391   0.59812
C     1.63592  -2.27825   1.09375
C    -0.69766  -1.86170   0.23921
C    -0.61209  -3.24453  -0.48914
C    -0.46372  -4.50780   0.32154
O    -0.59953  -3.30737  -1.70606
C    -1.62441  -1.99310   1.45950
C    -1.38549  -1.09852   2.63641
O    -2.54207  -2.79895   1.43120
H    -4.31608   0.78093   0.03102
H    -2.59652   1.35507   0.45637
H    -3.40129  -1.55766  -2.37537
H    -4.70143  -1.22641  -1.19085
H    -3.48154  -2.49157  -0.87648
H    -1.08519  -1.17123  -1.74117
H    -0.57728   0.93337   0.39677
H    -0.39064   0.97156  -2.67345
H     0.79670   4.04341  -0.21520
H    -0.23984   2.86293   0.61238
H    -0.95615   4.27317  -0.21799
H    -1.10451   4.32448  -2.78858
H    -0.31627   3.02265  -3.72806
H     0.65855   4.23247  -2.84428
H     1.13473  -1.51180  -2.04778
H     2.72465  -1.20072  -1.31334
H     1.91758   0.06297  -2.26619
H     1.02714   0.30008   2.40430
H     2.28099   2.04226   3.64929
H     3.91225   3.50810   2.44895
H     4.28180   3.17917   0.00042
H     3.04303   1.44003  -1.22377
H     2.00585  -3.00924   0.34771
H     2.50365  -1.70030   1.44373
H     1.25021  -2.84021   1.95802
H    -0.31842  -4.33870   1.39329
H     0.37846  -5.08561  -0.08774
H    -1.37710  -5.10779   0.18298
H    -1.26462  -0.05517   2.31384
H    -2.21971  -1.19026   3.34384
H    -0.44494  -1.39114   3.12952
