23
Generated by autodE on: 2022-10-24. E = -351.521381 Ha
C     3.60697   1.12596   0.15262
C     2.55973   0.33186  -0.16133
C     2.75308  -0.95576  -0.92081
C     1.20720   0.71501   0.23876
C     0.07783   0.00605  -0.01180
C    -1.24143   0.43117   0.40967
C    -2.41442  -0.21970   0.20406
C    -2.54312  -1.53206  -0.51597
C    -3.70952   0.35272   0.70707
H     4.62911   0.86305  -0.13373
H     3.46330   2.06008   0.70444
H     3.81298  -1.12164  -1.15994
H     2.18152  -0.95087  -1.86381
H     2.39021  -1.81884  -0.33822
H     1.11979   1.66014   0.78817
H     0.15771  -0.93744  -0.55841
H    -1.28051   1.38315   0.95295
H    -3.22735  -1.42999  -1.37674
H    -1.58879  -1.93104  -0.88305
H    -2.99882  -2.28797   0.14795
H    -3.56682   1.31185   1.22621
H    -4.41872   0.50800  -0.12582
H    -4.20446  -0.35013   1.40128
