34
Generated by autodE on: 2022-10-24. E = -749.277278 Ha
C     0.67441   1.68678  -1.91519
C     1.52084   1.03825  -0.82847
O     2.40923   1.73207  -0.28706
C     1.26746  -0.32485  -0.47693
C     2.00174  -1.14462   0.43148
C     3.21249  -0.59016   1.14631
O     1.64198  -2.32429   0.66461
N     0.17477  -1.00481  -1.14063
C     0.54675  -1.97077  -2.18484
C    -1.07970  -0.71159  -0.92168
C    -2.13717  -1.24703  -1.82556
C    -1.47363   0.12015   0.23317
C    -2.38699   1.17386   0.06328
C    -2.77528   1.94709   1.15939
C    -2.28548   1.65063   2.43401
C    -1.40183   0.57889   2.61277
C    -0.98663  -0.17807   1.51981
H    -0.23408   2.12608  -1.47119
H     1.25812   2.50563  -2.35787
H     0.35919   0.99300  -2.70704
H     3.66065  -1.39531   1.74549
H     2.92369   0.24329   1.80478
H     3.95266  -0.18566   0.44086
H     0.44763  -1.49921  -3.17472
H    -0.09444  -2.85985  -2.14029
H     1.58921  -2.26016  -2.02704
H    -2.25631  -2.32852  -1.63864
H    -1.86198  -1.12431  -2.88349
H    -3.10039  -0.76428  -1.63065
H    -2.77461   1.40423  -0.93075
H    -3.46872   2.77844   1.01634
H    -2.59909   2.24841   3.29287
H    -1.03444   0.33139   3.61102
H    -0.31065  -1.02180   1.65865
