34
Generated by autodE on: 2022-10-26. E = -749.275650 Ha
C     0.68052  -3.28694  -0.54768
C    -0.77739  -2.85865  -0.45622
O    -1.65213  -3.71781  -0.70088
C    -1.06673  -1.49997  -0.11685
C    -2.35232  -0.86365  -0.06623
C    -3.59799  -1.67911  -0.33641
O    -2.47531   0.35538   0.19180
N     0.02210  -0.62233   0.24401
C     0.56169  -0.80967   1.59737
C     0.35106   0.38539  -0.52002
C    -0.13651   0.47447  -1.92028
C     1.17559   1.49722  -0.00055
C     0.72201   2.23335   1.10814
C     1.46439   3.31902   1.57188
C     2.66670   3.66615   0.94647
C     3.11772   2.93727  -0.15886
C     2.36742   1.86579  -0.64514
H     0.76954  -4.03123  -1.35210
H     0.97458  -3.78495   0.39184
H     1.38225  -2.46279  -0.73258
H    -4.46981  -1.01521  -0.25424
H    -3.56480  -2.13082  -1.33889
H    -3.69347  -2.51207   0.37536
H     1.53455  -0.31849   1.70532
H     0.66977  -1.88589   1.77333
H    -0.14928  -0.40693   2.33245
H    -0.41118  -0.50850  -2.32265
H     0.62271   0.96179  -2.54714
H    -1.03269   1.11778  -1.93178
H    -0.22380   1.96518   1.58168
H     1.10215   3.89675   2.42497
H     3.25056   4.51151   1.31765
H     4.05485   3.20836  -0.64978
H     2.71371   1.30032  -1.51265
