57
Generated by autodE on: 2022-10-24. E = -1100.744103 Ha. Imaginary frequency = -308.5 cm-1
C    -2.97972   0.52951   1.42380
C    -2.96515  -0.21618   0.29545
C    -4.16800  -1.03346  -0.11001
C    -1.82610  -0.28523  -0.60972
C    -0.76333   0.65306  -0.60701
C    -0.33642   1.23442  -1.88505
C     0.23080   2.44571  -2.08534
C     0.52094   3.44461  -0.99863
C     0.62829   2.88590  -3.46861
C     0.93800  -0.48245   0.00988
C     1.37675  -0.98432  -1.34741
C     1.81354   0.56949   0.60915
C     1.36827   1.34460   1.70070
C     2.14194   2.38266   2.21149
C     3.38532   2.68226   1.64139
C     3.84267   1.92658   0.56039
C     3.06481   0.88401   0.04848
N     0.36375  -1.40201   0.88574
C     0.84718  -1.51828   2.27526
C    -0.69778  -2.20279   0.45391
C    -0.49379  -3.13500  -0.69520
C     0.78662  -3.94239  -0.69452
O    -1.36693  -3.37183  -1.52719
C    -1.70395  -2.59682   1.44165
C    -2.59151  -3.79835   1.18252
O    -1.82520  -1.99944   2.51989
H    -3.85253   0.52774   2.08163
H    -2.13308   1.14982   1.72694
H    -3.86611  -2.01940  -0.48999
H    -4.87180  -1.17215   0.72309
H    -4.70688  -0.53274  -0.93317
H    -1.99259  -0.84976  -1.53116
H    -0.75406   1.34105   0.23732
H    -0.50858   0.60671  -2.76604
H     0.15634   4.44482  -1.29126
H     1.60914   3.54517  -0.83907
H     0.06926   3.18131  -0.03434
H     0.10040   3.81205  -3.75972
H     1.70690   3.12397  -3.50734
H     0.41949   2.11518  -4.22567
H     0.58746  -1.53174  -1.87232
H     2.24460  -1.65286  -1.23686
H     1.67040  -0.14861  -1.98897
H     0.38786   1.15193   2.13583
H     1.76650   2.97311   3.05039
H     3.98976   3.50177   2.03704
H     4.81162   2.14730   0.10656
H     3.45001   0.30828  -0.79224
H     1.92371  -1.31058   2.28948
H     0.69563  -2.55208   2.60557
H     0.34106  -0.85351   2.98228
H     0.52865  -4.91936  -0.24894
H     1.58184  -3.49804  -0.08587
H     1.13464  -4.12229  -1.72174
H    -3.47613  -3.72573   1.82861
H    -2.89346  -3.91728   0.13884
H    -2.02803  -4.70415   1.46832
