45
Generated by autodE on: 2022-06-19. E = -960.501796 Ha
C     6.05586  -0.80631  -0.24543
C     5.00285   0.03581  -0.25590
C     5.14792   1.48658  -0.63145
C     3.67334  -0.46485   0.10898
C     2.54397   0.26596   0.14007
C     1.21098  -0.30907   0.50393
C     0.40938   0.51021   1.49381
C     1.03784   1.22064   2.57720
N     1.58480   1.78220   3.43451
N    -0.86117   0.53717   1.34090
C    -1.19530  -0.34296   0.19399
C    -1.60001  -1.65285   0.95211
C    -2.99010  -1.69911   1.52413
O    -0.80530  -2.55316   1.13594
C    -2.36998   0.18253  -0.60885
C    -2.83960   1.49198  -0.45367
C    -3.88982   1.96826  -1.24449
C    -4.48262   1.14005  -2.20120
C    -4.02030  -0.17076  -2.36026
C    -2.97224  -0.64536  -1.56934
C     0.14834  -0.43459  -0.64324
C     0.35017  -1.69651  -1.48020
C     0.24588   0.78316  -1.57806
H     5.93582  -1.85862   0.02967
H     7.06101  -0.46732  -0.51143
H     6.19003   1.73151  -0.88023
H     4.51505   1.73656  -1.49922
H     4.82391   2.14287   0.19340
H     3.61681  -1.52726   0.37389
H     2.56927   1.32918  -0.11265
H     1.36104  -1.30242   0.95607
H    -3.69074  -2.03233   0.74235
H    -3.32232  -0.70566   1.85474
H    -3.01716  -2.41930   2.35265
H    -2.37876   2.14269   0.28979
H    -4.24439   2.99318  -1.11133
H    -5.30297   1.51232  -2.81933
H    -4.47926  -0.82853  -3.10208
H    -2.62499  -1.67297  -1.69784
H     1.34757  -1.65829  -1.94593
H    -0.38914  -1.74789  -2.29317
H     0.28432  -2.61293  -0.88392
H     0.12734   1.73720  -1.04344
H    -0.52485   0.73305  -2.35867
H     1.22594   0.79003  -2.07589
