23
Generated by autodE on: 2022-06-19. E = -351.521380 Ha
C     3.44179  -0.60504   1.44541
C     2.51690  -0.13319   0.58062
C     2.91404   0.68371  -0.62237
C     1.09969  -0.41292   0.80302
C     0.07817   0.00056   0.01147
C    -1.31233  -0.30656   0.27805
C    -2.38846   0.06675  -0.45975
C    -3.77753  -0.33321  -0.04940
C    -2.31450   0.88862  -1.71517
H     4.50851  -0.41095   1.30280
H     3.15038  -1.19819   2.31776
H     4.00365   0.82012  -0.66906
H     2.44093   1.67953  -0.60037
H     2.58497   0.20023  -1.55724
H     0.86335  -1.01051   1.69172
H     0.30648   0.59692  -0.87613
H    -1.50032  -0.90667   1.17661
H    -4.26889  -0.91724  -0.84833
H    -3.78270  -0.93216   0.87309
H    -4.41071   0.55832   0.10916
H    -1.29232   1.16522  -2.00359
H    -2.77337   0.34131  -2.55746
H    -2.90166   1.81677  -1.59857
