26
Generated by autodE on: 2022-06-16. E = -780.833154 Ha
C     4.30255   0.31964  -0.45513
O     2.94773  -0.15961  -0.51090
C     2.05786   0.46319   0.25450
O     2.30888   1.38624   0.99824
C     0.68083  -0.11017   0.05634
C     0.51480  -1.65466   0.17018
C    -1.01912  -1.77761   0.36454
C    -1.43245  -0.29255   0.33511
C    -2.82989   0.03259   0.84129
C    -3.92333   0.13056  -0.17335
O    -2.99609   0.15720   2.03901
N    -0.33659   0.35412   1.00761
O    -1.29250   0.12374  -1.09065
C     0.03494   0.23844  -1.30018
O     0.53233   0.52425  -2.35866
H     4.70017   0.21657   0.56434
H     4.87120  -0.30586  -1.15208
H     4.34548   1.37376  -0.76358
H     1.06903  -2.00596   1.04929
H     0.89057  -2.16916  -0.72205
H    -1.52274  -2.33603  -0.43340
H    -1.28300  -2.21229   1.33643
H    -3.73325   0.99654  -0.82818
H    -4.89226   0.24155   0.32930
H    -3.92109  -0.76069  -0.82108
H    -0.43218   1.37306   0.97778
