20
Generated by autodE on: 2022-06-16. E = -702.169327 Ha
C    -4.24957  -0.07282   0.55982
O    -2.94909   0.15541   0.00026
C    -1.90630  -0.28689   0.71507
O    -2.00543  -0.86263   1.78876
C    -0.63992  -0.00665   0.07240
N     0.54995  -0.39059   0.64407
C     1.56264  -0.02906  -0.11171
C     2.98712  -0.27825   0.20098
C     3.99054   0.21979  -0.78704
O     3.24985  -0.86995   1.23697
O     1.12276   0.59726  -1.19670
C    -0.32635   0.65328  -1.15008
O    -0.93837   1.18551  -2.04677
H    -4.34712   0.43408   1.53091
H    -4.43109  -1.14959   0.69045
H    -4.96334   0.34637  -0.15862
H     0.64668  -0.88570   1.53422
H     3.86707   1.30527  -0.93299
H     5.00353  -0.00505  -0.43196
H     3.81529  -0.25748  -1.76547
