26
Generated by autodE on: 2022-06-27. E = -689.460875 Ha
C    -2.63857  -2.13790  -0.06367
O    -1.20985  -2.11178   0.01804
C    -0.51028  -0.97797   0.04928
C    -0.95384   0.31072   0.04626
O    -2.27818   0.64481   0.04976
C    -2.79032   1.17152  -1.17862
C     0.00735   1.43178   0.12498
O    -0.41321   2.58650   0.17286
C     1.47466   1.15105   0.15774
C     2.40539   2.32110   0.20840
C     1.92757  -0.12728   0.15830
C     3.38790  -0.45566   0.20687
C     0.96776  -1.25962   0.11003
O     1.34654  -2.42284   0.10856
H    -2.90715  -3.20184  -0.07386
H    -2.98869  -1.66239  -0.99085
H    -3.09326  -1.64682   0.80632
H    -3.85295   1.38935  -1.00773
H    -2.26972   2.09696  -1.46644
H    -2.69541   0.42960  -1.98902
H     3.02571   2.28527   1.11950
H     1.85426   3.26849   0.19424
H     3.10262   2.30084  -0.64546
H     3.55219  -1.53954   0.19601
H     3.85143  -0.03646   1.11514
H     3.91652  -0.00861  -0.65109
