55
Generated by autodE on: 2022-06-27. E = -1394.339535 Ha. Imaginary frequency = -321.4 cm-1
C     0.61007   4.23200  -1.54681
N     0.17626   3.69407  -0.27082
C    -0.17131   2.39956  -0.13736
O    -0.24584   1.63976  -1.10248
C    -0.39396   1.91212   1.28129
C    -0.25370   2.93679   2.28161
N    -0.11656   3.74992   3.10255
N    -1.44298   1.04506   1.63811
C    -1.58191  -0.27557   1.29313
C    -2.34982  -1.10677   2.28647
C    -1.88233  -0.65712  -0.11768
C    -1.73206  -1.97831  -0.57360
C    -2.14434  -2.34226  -1.85583
C    -2.76063  -1.40644  -2.69196
C    -2.97677  -0.10710  -2.22447
C    -2.54528   0.26294  -0.95061
C     0.62373  -0.63855   1.91513
C     0.44746  -0.90282   3.39072
C     0.82468  -1.82834   1.09996
O     0.59767  -2.96919   1.51795
C     1.32072  -1.67491  -0.31090
O     1.21020  -2.81151  -1.00344
C     1.27210  -2.83516  -2.43325
C     1.89664  -0.50695  -0.71492
O     2.55886  -0.41046  -1.90436
C     2.04817   0.49049  -2.89202
C     1.97484   0.64224   0.20189
O     2.66759   1.61268  -0.10476
C     1.27324   0.59615   1.53778
C     2.07392   1.33390   2.59422
H     0.56332   5.32719  -1.50484
H     1.64440   3.93015  -1.77914
H    -0.04483   3.87586  -2.35328
H     0.24351   4.29282   0.54524
H    -1.69537   1.18665   2.61521
H    -2.22223  -0.75631   3.31805
H    -3.42288  -1.08655   2.03470
H    -2.02121  -2.15388   2.22102
H    -1.28101  -2.73310   0.06580
H    -1.98908  -3.36788  -2.19749
H    -3.08929  -1.69408  -3.69335
H    -3.48734   0.62620  -2.85312
H    -2.74746   1.26890  -0.58700
H    -0.10624  -1.82994   3.56914
H    -0.07190  -0.07309   3.89112
H     1.43128  -1.01058   3.87879
H     0.87763  -3.81645  -2.72678
H     0.64055  -2.04438  -2.86239
H     2.30438  -2.72665  -2.78884
H     2.67742   0.35445  -3.78175
H     1.00368   0.24631  -3.14109
H     2.10667   1.53435  -2.55611
H     2.96966   0.74070   2.84553
H     1.50955   1.49242   3.51882
H     2.41111   2.30588   2.21502
