13
Generated by autodE on: 2022-05-28. E = -398.825278 Ha
C     1.18437  -1.68143  -1.40752
O     0.19181  -1.15039  -0.82996
C     0.13515  -0.03517  -0.04951
C     1.31345   0.68501   0.20872
N     2.30698   1.26764   0.40972
C    -1.15435   0.33968   0.46611
C    -2.33239  -0.53797   0.11597
O    -1.27282   1.34885   1.17376
H     2.18513  -1.24318  -1.31869
H     0.96511  -2.58454  -1.98077
H    -2.44783  -0.62656  -0.97548
H    -3.24064  -0.10068   0.55016
H    -2.18732  -1.55545   0.51270
