18
Generated by autodE on: 2022-06-17. E = -235.968071 Ha
C     1.52866  -1.13132  -0.51833
C     0.66222   0.04403  -0.13425
C     1.45311   1.32931  -0.08659
C    -0.66224  -0.04388   0.13420
C    -1.52855   1.13096   0.51988
C    -1.45320  -1.32904   0.08508
H     1.98809  -0.96233  -1.50891
H     0.99939  -2.09100  -0.55378
H     2.36924  -1.23562   0.19101
H     1.92528   1.52538  -1.06608
H     0.86387   2.21354   0.18417
H     2.28335   1.24232   0.63722
H    -0.99655   2.08850   0.56896
H    -2.36246   1.24422  -0.19599
H    -1.99742   0.95467   1.50472
H    -0.86639  -2.21104  -0.19797
H    -1.91647  -1.53255   1.06734
H    -2.28990  -1.23683  -0.63054
