17
Generated by autodE on: 2022-06-17. E = -509.631060 Ha
C    -4.02084  -0.72873   0.06202
N    -2.57027  -0.66341   0.04144
C    -1.93104   0.51199   0.01592
O    -2.46115   1.62129   0.00750
C    -0.46681   0.41824  -0.00180
N     0.69012   0.55177  -0.01727
N     1.94207   0.73214  -0.03433
C     2.68683  -0.45001  -0.02636
C     4.16692  -0.19941  -0.04804
O     2.18230  -1.56733  -0.00510
H    -4.44883  -0.26403  -0.83958
H    -4.32239  -1.78149   0.10022
H    -4.42429  -0.20630   0.94284
H    -2.02542  -1.52195   0.04252
H     4.71022  -1.15194  -0.02735
H     4.43658   0.36637  -0.95381
H     4.45579   0.41761   0.81718
