35
Generated by autodE on: 2022-06-17. E = -745.589771 Ha. Imaginary frequency = -338.0 cm-1
C     3.72748   1.37319   1.68117
N     2.38676   1.14717   1.17220
C     2.18129   0.61138  -0.03986
O     3.06917   0.26483  -0.81649
C     0.73413   0.44591  -0.36768
N    -0.19168   1.19300  -0.53965
N    -1.45723   1.26388  -0.77661
C    -2.22457   1.44695   0.34663
C    -3.70609   1.43727   0.08117
O    -1.76566   1.57250   1.49129
C    -1.16720  -1.61716  -0.40187
C    -2.02365  -1.72471  -1.63038
C    -1.85616  -1.66965   0.92816
C     0.22249  -1.69059  -0.47337
C     0.99976  -2.11228   0.76158
C     0.89157  -2.01790  -1.79500
H     3.65539   1.71175   2.72127
H     4.31625   0.44418   1.64407
H     4.25544   2.13878   1.09083
H     1.58041   1.42168   1.72689
H    -4.14202   0.53550   0.54113
H    -3.93655   1.44306  -0.99124
H    -4.16985   2.30821   0.56940
H    -3.02959  -1.31762  -1.46045
H    -2.14061  -2.79424  -1.89646
H    -1.58467  -1.22899  -2.50566
H    -2.93417  -1.48401   0.83338
H    -1.72198  -2.66393   1.39320
H    -1.44075  -0.93506   1.63706
H     2.08055  -1.97389   0.61697
H     0.83251  -3.18695   0.95440
H     0.69867  -1.56654   1.66572
H     0.75403  -3.08878  -2.03045
H     1.97045  -1.82159  -1.74924
H     0.47714  -1.44142  -2.63324
