35
Generated by autodE on: 2022-06-15. E = -5843.194174 Ha
C     3.66275   0.88442   0.96073
C     2.64727   0.66205   2.04271
O     2.94900   0.36363   3.18178
C     1.15993   0.85844   1.65117
C     0.90893   2.37802   1.65528
C     1.17109   3.10743   2.82563
C     0.93776   4.48323   2.87062
C     0.44092   5.15026   1.74591
C     0.18230   4.43038   0.57702
C     0.41742   3.05247   0.53066
C     0.85395   0.25142   0.36053
C     0.24920  -0.37269  -0.48560
C    -0.85047  -1.13175  -1.00662
Br   -1.33053  -0.54258  -2.84970
Br   -0.33112  -3.06360  -1.10340
C    -2.06433  -0.95803  -0.07726
C    -1.78327  -1.14670   1.42806
C    -1.27577   0.07167   2.25072
C     0.21263   0.12301   2.65355
H     3.66824  -0.00091   0.30253
H     4.66165   1.01322   1.39714
H     3.39320   1.74939   0.33680
H     1.56310   2.59886   3.70851
H     1.14696   5.03623   3.78933
H     0.25757   6.22663   1.78126
H    -0.20616   4.94036  -0.30770
H     0.21002   2.49913  -0.38646
H    -2.44762   0.06028  -0.25013
H    -2.84447  -1.65756  -0.41094
H    -2.74881  -1.44900   1.86098
H    -1.11418  -2.01035   1.57586
H    -1.56032   1.01046   1.74612
H    -1.84181   0.06730   3.19443
H     0.59700  -0.89925   2.79313
H     0.31396   0.63087   3.62251
