24
Generated by autodE on: 2022-06-15. E = -552.117162 Ha
C    -3.01992   0.64242   1.49098
C    -1.78736   0.42395   0.65443
C    -0.80892   1.44011   0.65923
N    -0.08854   2.35954   0.72065
N    -1.66591  -0.65959  -0.14429
C    -2.86320  -1.51418  -0.28664
N    -0.65933  -1.07667  -0.85805
C     0.63120  -0.59641  -0.59421
C     1.21427  -0.66258   0.68979
C     2.54661  -0.29915   0.87338
C     3.32355   0.13662  -0.20753
C     2.75480   0.18899  -1.48393
C     1.42373  -0.18337  -1.67997
H    -3.91351   0.84016   0.87548
H    -2.86394   1.51249   2.14185
H    -3.23695  -0.22573   2.13301
H    -3.73120  -0.90521  -0.56479
H    -2.63862  -2.25068  -1.06177
H    -3.06007  -2.01959   0.66786
H     0.61862  -1.00017   1.54045
H     2.98469  -0.35807   1.87287
H     4.36559   0.42628  -0.05516
H     3.35244   0.51965  -2.33703
H     0.97536  -0.15264  -2.67506
