36
Generated by autodE on: 2022-10-21. E = -1011.948312 Ha
C    -3.27042  -0.00875   2.11685
O    -2.49391  -0.20937   0.92300
C    -1.62979   0.74370   0.60522
O    -1.47609   1.76558   1.23643
C    -0.78644   0.35349  -0.62376
C    -0.21410   1.59216  -1.32666
O     0.93234   1.68919  -1.70248
O    -1.14926   2.51249  -1.52078
C    -0.75074   3.70607  -2.21642
N    -1.64862  -0.29274  -1.63066
C    -1.20921  -1.49751  -1.75842
C    -0.05437  -1.80075  -0.90947
O     0.58313  -2.97655  -0.84828
C     0.11486  -4.04852  -1.67166
C     0.26136  -0.66781  -0.20206
C     1.33072  -0.44633   0.76770
C     1.57367   0.83280   1.31804
C     2.60112   1.03654   2.23880
C     3.41890  -0.02490   2.63716
C     3.19323  -1.29793   2.10313
C     2.16723  -1.50920   1.18366
H    -2.60776   0.07265   2.99018
H    -3.87812   0.90256   2.02699
H    -3.91453  -0.89055   2.20583
H     0.05648   4.21291  -1.66912
H    -1.64250   4.34137  -2.25680
H    -0.41004   3.45820  -3.23174
H    -1.67819  -2.20191  -2.44998
H     0.76833  -4.90320  -1.45937
H     0.18863  -3.78674  -2.73860
H    -0.92484  -4.31083  -1.42143
H     0.95540   1.68269   1.03732
H     2.76328   2.03715   2.64647
H     4.22414   0.13786   3.35721
H     3.82262  -2.13825   2.40606
H     2.00504  -2.50673   0.78123
