18
Generated by autodE on: 2022-10-21. E = -588.716033 Ha
C     0.18120   2.13895  -1.63674
N     0.10524   1.22206  -0.93568
C     0.01359   0.15482  -0.11936
C    -1.30961  -0.33511   0.22099
O    -1.55355  -1.29004   0.94321
O    -2.28291   0.40077  -0.36492
C    -3.62973   0.00276  -0.09468
C     1.24348  -0.44031   0.37136
O     1.32386  -1.40289   1.11981
O     2.33424   0.20606  -0.10276
C     3.60524  -0.29421   0.32043
H     0.25225   2.99902  -2.29461
H    -3.84764   0.06216   0.98212
H    -4.26874   0.70385  -0.64498
H    -3.81263  -1.02469  -0.44312
H     3.74184  -1.33840   0.00184
H     4.35678   0.34452  -0.15915
H     3.70578  -0.23497   1.41448
