18
Generated by autodE on: 2022-10-21. E = -423.102476 Ha
C     4.22156  -0.22580   0.31095
O     3.29476  -0.42245  -0.78527
C     2.03871  -0.26556  -0.50975
C     0.84909  -0.12794  -0.29374
C    -0.55006   0.03122  -0.04005
C    -1.01469   0.35980   1.25196
C    -2.37976   0.51287   1.49507
C    -3.30729   0.34267   0.46145
C    -2.85735   0.01714  -0.82274
C    -1.49427  -0.13794  -1.07591
H     5.22165  -0.39635  -0.10379
H     4.13418   0.80221   0.69212
H     4.00970  -0.94893   1.11216
H    -0.29365   0.49300   2.06100
H    -2.72207   0.76727   2.50113
H    -4.37549   0.46322   0.65580
H    -3.57466  -0.11751  -1.63598
H    -1.14694  -0.39212  -2.07936
