36
Generated by autodE on: 2022-10-21. E = -1011.814140 Ha. Imaginary frequency = -391.9 cm-1
C    -2.65516  -0.59914   2.83323
O    -2.44333  -0.36614   1.43751
C    -1.61400   0.65091   1.11920
O    -1.07993   1.35212   1.96360
C    -1.42201   0.75469  -0.32298
C    -0.55879   1.70123  -1.02439
O    -0.43557   1.72093  -2.24218
O     0.11540   2.51963  -0.20814
C     0.97893   3.47779  -0.83090
N    -2.02750  -0.14992  -1.10064
C    -2.04347  -1.22614  -1.60195
C    -0.24857  -2.29780  -1.01140
O    -0.64112  -3.46184  -1.49311
C     0.32185  -4.52442  -1.34069
C     0.55137  -1.54571  -0.43008
C     1.47378  -0.62610   0.14236
C     2.37130   0.09007  -0.68498
C     3.27394   0.99456  -0.13072
C     3.30030   1.20993   1.25217
C     2.42048   0.50478   2.08147
C     1.51774  -0.40715   1.53907
H    -1.70937  -0.85501   3.33366
H    -3.09168   0.28760   3.31612
H    -3.35272  -1.44284   2.89578
H     1.52146   3.96699  -0.01381
H     0.38718   4.21835  -1.38994
H     1.68621   2.98650  -1.51148
H    -2.66275  -1.87886  -2.22155
H     0.53624  -4.68575  -0.27295
H     1.25020  -4.26977  -1.87467
H    -0.13539  -5.42069  -1.77743
H     2.33662  -0.06600  -1.76451
H     3.95725   1.54339  -0.78273
H     4.00451   1.92567   1.68223
H     2.43552   0.67079   3.16116
H     0.82792  -0.95364   2.18408
