41
Generated by autodE on: 2022-05-30. E = -1160.793642 Ha
C     3.22870  -1.87693   1.94362
N     2.01447  -1.64387   1.18671
C     1.85753  -0.54524   0.43321
O     2.74436   0.30233   0.29564
C     0.53435  -0.43479  -0.33635
C     0.39209  -1.76565  -1.21772
C    -0.68489  -1.64086  -2.26822
C    -1.84020  -1.66343  -1.59597
C    -1.46186  -1.80392  -0.13713
O    -0.25425  -2.58908  -0.22982
C    -0.83179  -0.47489   0.44955
C    -0.67231  -0.52370   1.98130
C    -1.40511  -1.55400   2.78210
O     0.03556   0.31291   2.51409
C    -1.47602   0.90340   0.03155
C    -2.95721   1.04974   0.26985
C    -0.60974   2.01048   0.69021
O    -0.89489   2.83694   1.51496
O     0.58688   1.98323   0.04232
C     0.40573   0.95229  -1.02109
C     1.34954   1.23469  -2.09916
N     2.07189   1.43320  -2.98210
N    -0.98340   1.04731  -1.35721
C    -1.42029   2.22388  -2.10282
H     3.13981  -2.83678   2.46655
H     4.11051  -1.90944   1.28446
H     3.38846  -1.08024   2.68751
H     1.26704  -2.33333   1.19565
H     1.35584  -2.18233  -1.52520
H    -0.50816  -1.46376  -3.32814
H    -2.85277  -1.51773  -1.96932
H    -2.19806  -2.28137   0.51201
H    -2.48601  -1.49828   2.57723
H    -1.07116  -2.56482   2.49885
H    -1.21362  -1.38665   3.84905
H    -3.52272   0.29324  -0.29061
H    -3.16557   0.92237   1.34186
H    -3.30725   2.04825  -0.02533
H    -1.22758   3.18168  -1.58501
H    -0.90482   2.24150  -3.07300
H    -2.49703   2.13972  -2.29755
