25
Generated by autodE on: 2022-05-30. E = -668.367383 Ha
C     3.81626   0.36576   0.16458
N     2.39058   0.46265  -0.06545
C     1.62441  -0.63493  -0.14462
O     2.07512  -1.79114  -0.07740
C     0.16385  -0.44508  -0.33757
C    -0.72083   0.56007  -0.12501
C    -0.53953   1.93562   0.36746
C    -1.76434   2.62720   0.89270
O     0.55480   2.50238   0.34900
C    -2.10838  -0.11097  -0.35070
C    -2.32630  -1.09764   0.81825
C    -1.44387  -2.07770   0.60592
C    -0.71023  -1.67027  -0.69013
O    -1.76805  -1.01780  -1.40811
H     4.04154  -0.06719   1.15387
H     4.25552   1.36938   0.11012
H     4.29266  -0.27342  -0.59485
H     1.91269   1.36957  -0.02511
H    -2.28738   1.98536   1.62016
H    -2.46782   2.80816   0.06277
H    -1.48875   3.58318   1.35528
H    -2.93852   0.54840  -0.62051
H    -3.02273  -0.94550   1.64180
H    -1.20536  -2.95400   1.20699
H    -0.22172  -2.45782  -1.27064
