16
Generated by autodE on: 2022-05-30. E = -492.395827 Ha
C    -2.06922  -1.77525   0.18095
C    -1.10237  -0.65778   0.06444
C    -1.38005   0.72520  -0.10937
O    -2.40151   1.38857  -0.20824
O    -0.10570   1.34803  -0.16538
C     0.83953   0.40076  -0.03545
C     2.20804   0.68879  -0.04933
N     3.35029   0.93400  -0.06033
N     0.25222  -0.79589   0.10301
C     0.94869  -2.06848   0.26640
H    -1.96703  -2.30892   1.14046
H    -3.08709  -1.36727   0.11882
H    -1.94208  -2.51427  -0.62763
H     0.69801  -2.72490  -0.57693
H     0.62307  -2.53636   1.20419
H     2.02934  -1.89074   0.29342
