41
Generated by autodE on: 2022-05-30. E = -1160.744822 Ha. Imaginary frequency = -213.9 cm-1
C     3.73358  -1.97331   1.42472
N     2.42014  -1.81735   0.83183
C     1.99897  -0.63648   0.33508
O     2.72582   0.35745   0.28758
C     0.59289  -0.72820  -0.22750
C     0.39848  -1.76098  -1.40224
C    -0.76299  -1.31094  -2.27179
C    -1.85260  -1.47498  -1.51238
C    -1.33963  -2.03929  -0.19349
O    -0.21761  -2.83955  -0.66008
C    -0.53908  -0.94756   0.56565
C    -0.64717  -0.72338   2.00227
C    -1.94290  -1.11006   2.67189
O     0.28086  -0.23722   2.65639
C    -1.74742   1.56634  -0.09598
C    -3.22411   1.59751  -0.05185
C    -0.85409   1.91767   0.98852
O    -1.05793   2.24893   2.13694
O     0.42515   1.87425   0.44648
C     0.33102   1.38907  -0.83963
C     1.36526   1.69643  -1.76856
N     2.17746   1.89567  -2.57708
N    -0.99654   1.48765  -1.20710
C    -1.50865   1.62008  -2.56899
H     3.91024  -3.03790   1.62211
H     4.51418  -1.60274   0.74383
H     3.81683  -1.41762   2.37391
H     1.74967  -2.57777   0.89118
H     1.32139  -2.07483  -1.89893
H    -0.66534  -0.89608  -3.27177
H    -2.88869  -1.21158  -1.72037
H    -2.03440  -2.62886   0.41049
H    -2.81119  -0.82304   2.06026
H    -1.97909  -2.20471   2.80449
H    -2.00016  -0.63428   3.65953
H    -3.65787   0.74877  -0.59948
H    -3.55117   1.56293   0.99546
H    -3.60860   2.52668  -0.50663
H    -1.80778   2.66825  -2.71635
H    -0.72334   1.36155  -3.28459
H    -2.37582   0.96840  -2.71276
