28
Generated by autodE on: 2022-06-07. E = -778.232437 Ha
C    -2.15028  -0.68704   3.27230
N    -1.28142  -0.50971   2.12342
C    -1.78375  -0.10867   0.93241
O    -2.99622   0.16263   0.81433
C    -0.87133  -0.02069  -0.21766
N     0.46658   0.03008  -0.15323
C     1.39666   0.11988   0.78248
C     2.76934   0.17536   0.31126
O     3.10016   0.11865  -0.86776
O     3.64155   0.29222   1.32428
C     5.02913   0.34649   0.97125
C    -1.32692  -0.00318  -1.63327
O    -0.47292  -0.02423  -2.54504
N    -2.64438   0.03786  -1.87092
C    -3.17386   0.08169  -3.21707
H    -2.71590   0.23440   3.47131
H    -2.87540  -1.50377   3.11835
H    -1.53234  -0.92078   4.14790
H    -0.36637  -0.94525   2.16058
H     0.84421   0.02030  -1.12646
H     1.15839   0.19940   1.83848
H     5.23364   1.21957   0.33405
H     5.57879   0.43256   1.91582
H     5.33009  -0.56873   0.44029
H    -3.24616   0.12196  -1.04961
H    -2.82261  -0.77632  -3.81136
H    -2.87048   1.00148  -3.74457
H    -4.26924   0.05100  -3.16832
