28
Generated by autodE on: 2022-07-27. E = -778.216010 Ha
C     1.03193   2.70704  -2.03154
N     1.19353   1.66844  -1.03809
C     0.29036   0.67015  -0.92322
O    -0.76520   0.66832  -1.58913
C     0.64019  -0.43364  -0.01062
N    -0.23114  -1.48339   0.09588
C    -1.53790  -1.55700  -0.04899
C    -2.47206  -0.42508  -0.00904
O    -3.55235  -0.44441  -0.57228
O    -2.07929   0.55366   0.81426
C    -2.89503   1.73047   0.84325
C     1.97037  -0.61516   0.57330
O     2.94611   0.11226   0.28688
N     2.12412  -1.63729   1.46435
C     3.41227  -1.88219   2.08529
H     1.13417   2.32445  -3.06249
H     1.79708   3.47722  -1.86980
H     0.03917   3.17372  -1.94756
H     2.10953   1.48014  -0.62403
H     0.21657  -2.39408   0.24970
H    -1.96500  -2.55545  -0.14599
H    -3.90695   1.49644   1.20450
H    -2.95620   2.17293  -0.16171
H    -2.39955   2.42508   1.53144
H     1.31126  -1.99767   1.95204
H     3.71538  -1.05749   2.75313
H     4.19271  -2.00108   1.32051
H     3.35054  -2.80664   2.67328
