46
Generated by autodE on: 2022-06-07. E = -3812.037130 Ha. Imaginary frequency = -273.8 cm-1
C     1.31807   3.48985  -1.32613
N     1.50767   2.49091  -0.29698
C     0.45536   1.84038   0.23328
O    -0.71526   2.15090  -0.04662
C     0.76288   0.70542   1.13750
C     2.16475   0.40942   1.54402
O     3.11330   0.58231   0.75779
N     2.36953  -0.09259   2.78014
C     3.69921  -0.48096   3.21386
N    -0.21833   0.11290   1.88071
C    -1.52280  -0.02574   1.60459
C    -2.46705   1.09392   1.33669
O    -3.43811   1.00417   0.61283
O    -2.24411   2.12599   2.15935
C    -3.09666   3.26663   1.99148
C    -0.99908  -1.27169  -0.36134
C    -2.22046  -1.04443  -1.14612
C    -2.32455   0.12534  -2.08479
O    -3.13194  -1.87066  -1.06022
C    -0.86879  -2.63638   0.38004
C    -0.43701  -3.66616  -0.67283
C     0.83183  -3.35771  -0.96637
C     1.15676  -2.14371  -0.07707
O     0.37331  -2.43869   1.08884
C     0.33817  -0.95440  -0.64319
Br    1.02419  -0.16235  -2.22276
H     0.91407   3.05197  -2.25510
H     2.28492   3.95792  -1.54956
H     0.61741   4.26766  -0.98900
H     2.41699   2.04176  -0.17493
H     1.63846  -0.04603   3.48124
H     3.62620  -0.92475   4.21399
H     4.38050   0.38446   3.25540
H     4.13114  -1.22182   2.52497
H     0.13623  -0.74061   2.32094
H    -2.00146  -0.85684   2.12773
H    -4.14840   2.99697   2.16460
H    -2.98373   3.67561   0.97686
H    -2.76705   4.00225   2.73434
H    -3.38410   0.37273  -2.23235
H    -1.76617   0.99843  -1.72933
H    -1.90338  -0.17851  -3.05822
H    -1.68691  -2.90634   1.05293
H    -1.08795  -4.42238  -1.10966
H     1.50266  -3.79113  -1.70700
H     2.20679  -1.94308   0.15736
