18
Generated by autodE on: 2022-07-27. E = -621.920820 Ha
C     3.21914   0.97153   0.10976
N     1.98915   1.15938   0.85181
C     0.78825   1.08482   0.27173
O     0.57147   0.87168  -0.92206
N    -0.24160   1.44815   1.18998
O    -1.45128   1.07835   0.91556
N    -1.87844   0.13105   0.12439
C    -0.99238  -0.93389  -0.13569
O    -0.16150  -1.34915   0.64946
O    -1.34530  -1.50991  -1.27104
C    -0.62861  -2.70454  -1.63162
H     3.56718   1.91523  -0.34233
H     3.99602   0.59887   0.78913
H     3.05520   0.24094  -0.69320
H     2.02900   1.45922   1.82310
H     0.44638  -2.48858  -1.70834
H    -1.02910  -3.00976  -2.60446
H    -0.79888  -3.49059  -0.88249
