23
Generated by autodE on: 2022-05-31. E = -998.312653 Ha
Cl    0.68520  -2.09733   1.45621
C     1.03878  -0.96192   0.21037
C     0.26906  -0.02430  -0.37803
C    -1.12344   0.37452  -0.21960
C    -1.53612   1.65599  -0.64254
C    -2.85845   2.07202  -0.48105
C    -3.80157   1.21566   0.09466
C    -3.40914  -0.06280   0.50850
C    -2.08811  -0.48081   0.35650
C     1.30893   0.75616  -1.24196
C     2.21900   1.53913  -0.27052
C     2.95733   0.60430   0.33488
C     2.48212  -0.73071  -0.28584
O     2.19346  -0.31227  -1.62742
H    -0.81353   2.33943  -1.09184
H    -3.15334   3.07156  -0.80915
H    -4.83752   1.53994   0.21734
H    -4.14076  -0.74243   0.95205
H    -1.80114  -1.48200   0.67672
H     0.91266   1.29103  -2.11067
H     2.18175   2.61553  -0.10721
H     3.69299   0.69814   1.13272
H     3.15866  -1.59074  -0.24128
