41
Generated by autodE on: 2022-05-31. E = -1620.230642 Ha. Imaginary frequency = -182.1 cm-1
C     5.01763   1.12195  -0.94899
N     3.59336   1.24059  -1.18096
C     2.72327   0.36902  -0.64298
O     3.05781  -0.58891   0.05334
N     1.40019   0.81941  -0.95679
O     0.36921   0.02254  -0.90211
N     0.27010  -1.16430  -0.31570
C     1.25032  -2.13214  -0.54727
O     1.43802  -3.04333   0.23411
O     1.74851  -2.05871  -1.78636
C     2.75158  -3.02805  -2.12347
C     0.52573  -0.32376   1.93970
C    -0.93807  -0.00881   2.33225
O    -0.73396   1.15772   3.15640
C    -0.01693   1.89908   2.15439
C    -1.02844   1.81999   1.00690
Cl   -1.14142   3.07625  -0.15869
C    -1.63810   0.61520   1.09517
C    -2.61350  -0.07850   0.26269
C    -3.19515  -1.28361   0.71035
C    -4.11504  -1.97326  -0.07914
C    -4.47335  -1.48100  -1.33765
C    -3.90041  -0.29058  -1.79890
C    -2.98185   0.40275  -1.01293
C     1.10897   0.90216   1.82559
H     5.26262   1.27869   0.11433
H     5.37537   0.12120  -1.23544
H     5.53840   1.87558  -1.55071
H     3.22503   2.02760  -1.70719
H     3.05557  -2.79892  -3.15123
H     2.33951  -4.04544  -2.06628
H     3.60972  -2.93504  -1.44274
H     0.99799  -1.29897   2.01519
H    -1.47645  -0.79321   2.86926
H     0.27629   2.89986   2.48538
H    -2.92788  -1.68915   1.68629
H    -4.55246  -2.90336   0.29103
H    -5.19208  -2.02254  -1.95702
H    -4.16722   0.09943  -2.78400
H    -2.53748   1.31914  -1.39647
H     2.15944   1.15837   1.72458
