42
Generated by autodE on: 2022-05-30. E = -1363.774992 Ha
C    -2.23973  -2.30623   2.45114
C    -2.42918  -1.03606   1.66281
O    -3.13114  -0.13308   2.08703
C    -1.81325  -0.96255   0.24528
C    -2.73227  -1.84117  -0.61643
N    -0.44798  -1.50535   0.21056
C     0.47337  -0.42491   0.60425
C     0.54172  -0.36684   2.14216
C     1.88359  -0.67637   0.07670
C     2.24156  -1.87079  -0.56230
C     3.54815  -2.07445  -1.02286
C     4.51970  -1.08790  -0.84954
C     4.17520   0.10669  -0.20659
C     2.87390   0.30630   0.25463
C    -0.19194   0.87517  -0.01526
Cl    0.06506   2.35034   1.02482
C     0.23615   1.20233  -1.49303
C    -0.44006   2.50762  -1.89230
C    -1.73051   2.19565  -2.05584
C    -1.83035   0.70998  -1.76052
O    -0.53969   0.23066  -2.20524
C    -1.69916   0.51381  -0.21961
H    -2.17006  -2.06400   3.52065
H    -3.14096  -2.92669   2.30978
H    -1.36580  -2.87683   2.12176
H    -3.74516  -1.41656  -0.66260
H    -2.79747  -2.85637  -0.20028
H    -2.33551  -1.92320  -1.63838
H    -0.26385  -1.72636  -0.76789
H     0.82087  -1.36169   2.51518
H    -0.41584  -0.07333   2.59257
H     1.29143   0.35686   2.48227
H     1.50605  -2.66299  -0.70073
H     3.80228  -3.01474  -1.51817
H     5.53878  -1.24621  -1.21021
H     4.92453   0.88907  -0.06382
H     2.61895   1.24787   0.74397
H     1.30365   1.09787  -1.70196
H     0.04419   3.48195  -1.93447
H    -2.57580   2.85205  -2.26314
H    -2.64417   0.16395  -2.24478
H    -2.38142   1.16088   0.33834
