29
Generated by autodE on: 2022-07-26. E = -596.553678 Ha
C    -4.12600  -0.84886   1.34258
C    -2.63196  -0.68173   1.10419
O    -1.84026  -0.89680   2.06539
C    -2.21684  -0.35350  -0.21052
C    -3.11979  -0.39283  -1.41206
N    -0.88015  -0.12979  -0.49574
C     0.05229   0.51646   0.19797
C    -0.34962   1.36226   1.34303
C     1.44026   0.38646  -0.25457
C     1.85504  -0.74087  -1.00087
C     3.16132  -0.84467  -1.47800
C     4.09317   0.16231  -1.20899
C     3.70435   1.27492  -0.45384
C     2.39904   1.38669   0.02087
H    -4.72173  -0.04549   0.88316
H    -4.48582  -1.80423   0.92324
H    -4.30844  -0.86300   2.42619
H    -3.95628  -1.09341  -1.28445
H    -2.55340  -0.71396  -2.30444
H    -3.55134   0.59599  -1.65664
H    -0.57692  -0.47687  -1.41061
H     0.42536   2.08627   1.61552
H    -1.29198   1.88489   1.09891
H    -0.59417   0.72851   2.21614
H     1.16125  -1.56453  -1.18021
H     3.45712  -1.72854  -2.04785
H     5.11849   0.07661  -1.57574
H     4.42443   2.06712  -0.23628
H     2.11773   2.27236   0.59113
