13
Generated by autodE on: 2022-05-30. E = -767.141594 Ha
Cl    0.45865  -1.80060   1.37156
C    -0.15477  -0.55117   0.35714
C    -1.22415   0.23457   0.50365
C    -1.10422   1.22276  -0.68090
C     0.11456   2.13703  -0.40352
C     1.18026   1.34305  -0.53785
C     0.59252  -0.04193  -0.90005
O    -0.54006   0.35403  -1.68984
H    -1.96596   0.26782   1.29905
H    -2.02836   1.70278  -1.02042
H     0.05646   3.18327  -0.10502
H     2.23738   1.55421  -0.38148
H     1.24022  -0.76096  -1.41253
