42
Generated by autodE on: 2022-05-30. E = -1363.684760 Ha. Imaginary frequency = -265.1 cm-1
C    -3.95225  -0.93729   1.72157
C    -2.49305  -1.34497   1.71002
O    -1.96064  -1.72787   2.76059
C    -1.82516  -1.35280   0.41024
C    -2.63460  -1.90091  -0.74182
N    -0.46699  -1.48935   0.27288
C     0.55364  -0.83515   0.86614
C     0.47288  -0.39408   2.29297
C     1.86744  -0.95088   0.20365
C     2.12395  -1.90602  -0.80541
C     3.34732  -1.93981  -1.47539
C     4.35787  -1.02873  -1.15469
C     4.12599  -0.08322  -0.15009
C     2.90475  -0.04644   0.52141
C    -0.29007   1.34661  -0.02620
Cl    0.38348   2.49824   1.11317
C     0.27320   1.33968  -1.46086
C    -0.30946   2.58261  -2.16826
C    -1.61493   2.31884  -2.29568
C    -1.81070   0.91892  -1.67669
O    -0.54653   0.30302  -2.02484
C    -1.63338   1.06681  -0.15111
H    -4.18339  -0.13949   1.00244
H    -4.57584  -1.81115   1.46544
H    -4.22082  -0.61887   2.73838
H    -2.05999  -1.87569  -1.67781
H    -2.93812  -2.94768  -0.55948
H    -3.55457  -1.32258  -0.89883
H    -0.23838  -1.73837  -0.68728
H     1.35021   0.19741   2.56971
H    -0.42113   0.20410   2.49316
H     0.42859  -1.27622   2.95094
H     1.37753  -2.66056  -1.06200
H     3.51414  -2.69591  -2.24631
H     5.31627  -1.05811  -1.67777
H     4.90251   0.63976   0.11126
H     2.74017   0.72665   1.27100
H     1.34234   1.13337  -1.57840
H     0.24857   3.48207  -2.42671
H    -2.41644   2.94733  -2.68368
H    -2.66026   0.33987  -2.04638
H    -2.42374   1.41294   0.51197
