27
Generated by autodE on: 2022-06-01. E = -3056.677837 Ha
C     2.83398   0.51070  -2.74790
C     1.33880   0.78028  -2.49210
C     0.90429   2.06322  -3.21780
C     1.08443   0.84606  -1.05285
C     0.76568   0.55668   0.08261
C     0.18083  -0.31292   1.07936
Br   -1.69721   0.36306   1.52391
C     0.87643  -0.30315   2.36550
N     1.44862  -0.32726   3.37461
C     0.07865  -1.74875   0.50033
C    -0.47862  -1.84803  -0.93080
C     0.51322  -1.71550  -2.12195
C     0.46476  -0.42684  -2.96907
H     3.45171   1.33376  -2.35812
H     3.01006   0.42702  -3.83152
H     3.16268  -0.42279  -2.26805
H    -0.15016   2.29896  -3.00928
H     1.02139   1.93034  -4.30450
H     1.52176   2.91948  -2.90634
H    -0.52929  -2.34427   1.19686
H     1.10099  -2.16151   0.53361
H    -0.93524  -2.84725  -0.99289
H    -1.31384  -1.13821  -1.04948
H     1.54286  -1.89942  -1.77224
H     0.29185  -2.54371  -2.81255
H     0.79043  -0.65530  -3.99734
H    -0.58111  -0.08544  -3.03972
