14
Generated by autodE on: 2022-06-01. E = -416.085412 Ha
C    -3.35494   0.68710   0.17977
N    -2.53993  -0.50469   0.43635
N    -1.39554  -0.46886   0.01144
C    -0.30165  -0.55106  -0.47991
C     1.07230  -0.32052  -0.05593
O     1.71405  -1.11460   0.60317
O     1.54439   0.82880  -0.54481
C     2.91372   1.14133  -0.23398
H    -4.41112   0.39777   0.22928
H    -3.16654   1.44681   0.95546
H    -3.13383   1.12482  -0.80642
H     3.05019   1.23437   0.85299
H     3.11969   2.09907  -0.72511
H     3.58239   0.36069  -0.62411
