41
Generated by autodE on: 2022-06-01. E = -3472.763675 Ha. Imaginary frequency = -187.7 cm-1
C    -0.46317  -0.36292  -4.18610
O    -0.87653  -0.14904  -2.82845
C    -1.08175   1.10839  -2.44497
O    -1.02971   2.08161  -3.17031
C    -1.30148   1.17093  -1.00680
N    -2.18335   1.46757  -0.23604
N    -2.77961   1.34231   0.83437
C    -3.20060   2.56962   1.50780
C    -0.72695  -0.11090   1.65483
C    -0.09439  -0.16959   0.59844
C     1.10736  -0.71366  -0.03318
Br    2.05923   0.70932  -1.15594
C     0.81309  -1.79417  -0.97625
N     0.61959  -2.70597  -1.66714
C     2.12197  -1.18372   1.04050
C     1.74683  -2.46503   1.80442
C     0.40338  -2.55519   2.55000
C     0.08231  -1.40227   3.52268
C    -1.05201  -0.42955   3.05729
C    -2.42483  -1.11412   3.16529
C    -1.02563   0.83258   3.93447
H    -0.28142  -1.43978  -4.27368
H     0.45985   0.19707  -4.39462
H    -1.25260  -0.04899  -4.88354
H    -3.65684   2.29284   2.46474
H    -2.34547   3.24220   1.68699
H    -3.95007   3.10636   0.90325
H     2.24995  -0.33599   1.72817
H     3.08874  -1.35856   0.54677
H     1.80955  -3.31842   1.10886
H     2.56307  -2.61110   2.53214
H    -0.41294  -2.66953   1.81979
H     0.42395  -3.50408   3.10883
H    -0.22698  -1.80076   4.50210
H     0.98943  -0.80419   3.70647
H    -3.21828  -0.44579   2.80304
H    -2.46059  -2.04037   2.57231
H    -2.62834  -1.36808   4.21716
H    -0.07120   1.36989   3.82662
H    -1.14315   0.54734   4.99173
H    -1.84235   1.51856   3.67210
