32
Generated by autodE on: 2022-06-14. E = -1313.793197 Ha
C    -3.02462   3.23064  -0.55423
O    -1.91014   2.48371  -0.03230
C    -1.47436   2.82049   1.17304
O    -1.94551   3.68971   1.86750
C    -0.22991   2.01215   1.58485
F    -0.12313   2.14546   2.96179
C    -0.30737   0.61388   1.17725
C    -0.11021  -0.35041   0.47519
C     0.48005  -1.18393  -0.56605
C    -0.63567  -1.84141  -1.41535
F    -0.13410  -2.50616  -2.46310
F    -1.37321  -2.70098  -0.69992
F    -1.46670  -0.90299  -1.88991
C     1.37091  -2.27358   0.08144
F     0.67979  -3.04000   0.93566
F     2.37535  -1.71630   0.77073
F     1.91234  -3.07941  -0.84074
C     1.33470  -0.23823  -1.48389
C     2.09786   0.91223  -0.79714
C     1.33235   2.23838  -0.52670
C     1.05019   2.61075   0.94092
H    -2.75630   4.29208  -0.65042
H    -3.89378   3.12544   0.10972
H    -3.23880   2.79814  -1.53764
H     0.64868   0.19144  -2.22714
H     2.03900  -0.87644  -2.03626
H     2.57718   0.55727   0.12611
H     2.92512   1.14758  -1.48335
H     1.94611   3.05868  -0.92733
H     0.39566   2.26510  -1.10494
H     0.97791   3.70371   1.05210
H     1.87887   2.27255   1.58292
