35
Generated by autodE on: 2022-10-07. E = -1044.603290 Ha
C     3.29200   2.73569   0.32719
N     2.44551   1.67561  -0.17524
C     1.74808   0.86090   0.62988
O     1.88463   0.81328   1.85478
C     0.78884  -0.10716  -0.13909
C     1.72034  -1.28110  -0.49448
C     2.23490  -2.11057   0.65978
O     2.21139  -1.40702  -1.60598
C    -0.40143  -0.48268   0.75912
C    -0.95512  -1.89726   0.48423
O    -1.88073  -2.29209   1.23244
O    -0.40596  -2.57524  -0.42944
C    -1.37117   0.70940   0.51542
C    -2.86725   0.31206   0.43610
O    -3.28853  -0.20135  -0.63363
O    -3.55292   0.54000   1.46747
N    -0.87475   1.38760  -0.70441
C    -0.56330   2.79227  -0.49299
N     0.20656   0.63473  -1.27645
C    -0.30825  -0.13896  -2.40968
H     2.70845   3.63857   0.57950
H     4.03850   3.00394  -0.43237
H     3.81096   2.39779   1.23399
H     2.09190   1.71541  -1.12983
H     3.21052  -1.69237   0.96020
H     1.58032  -2.11374   1.53773
H     2.40395  -3.13784   0.31013
H    -0.10185  -0.47736   1.81371
H    -1.27752   1.40384   1.36435
H    -1.49623   3.32643  -0.25335
H     0.14891   2.99017   0.33339
H    -0.15789   3.22830  -1.41710
H     0.50157  -0.71993  -2.86169
H    -0.68206   0.57724  -3.15557
H    -1.13407  -0.81264  -2.13537
