25
Generated by autodE on: 2022-10-13. E = -589.511522 Ha
C    -1.98183   2.22016  -1.58235
N    -0.96237   1.52236  -0.83869
N    -1.00531   0.24015  -0.83189
C    -2.06484  -0.48445  -1.56627
C    -0.05083  -0.44384  -0.12572
C     0.12088  -1.87565  -0.06211
C     1.31624  -2.34010   0.75223
O    -0.60541  -2.73689  -0.59382
C     0.97650   0.45143   0.52977
O     2.00982   0.79867  -0.05544
N     0.70712   0.81365   1.79530
C     1.58462   1.69288   2.54302
H    -3.00304   2.00685  -1.21952
H    -1.79550   3.29489  -1.46574
H    -1.96119   1.98410  -2.66148
H    -3.03718  -0.16204  -1.17309
H    -1.99722  -0.21568  -2.62802
H    -1.91843  -1.55519  -1.42512
H     1.19470  -2.06531   1.81133
H     1.39692  -3.43158   0.67025
H     2.24680  -1.87278   0.39764
H    -0.16349   0.50068   2.21204
H     1.19479   1.80379   3.56220
H     1.64640   2.68928   2.07542
H     2.60383   1.27945   2.59487
