10
Generated by autodE on: 2022-10-07. E = -455.046593 Ha
O     1.77357  -0.04404   1.43263
C     1.56323   0.02099   0.19412
O     2.10157  -0.68522  -0.69762
C     0.64726   1.13032  -0.28693
C    -0.68609   1.08312  -0.44488
C    -1.56934  -0.11011  -0.16524
O    -2.80795   0.06299  -0.35163
O    -1.03044  -1.18292   0.22853
H     1.16788   2.06677  -0.53140
H    -1.21570   1.97246  -0.80568
