35
Generated by autodE on: 2022-10-07. E = -1044.538703 Ha. Imaginary frequency = -329.7 cm-1
C     2.92078   2.61850   1.32579
N     1.91553   1.85523   0.62071
C     2.09300   0.55531   0.34239
O     3.11221  -0.05641   0.72009
C     1.04059  -0.17205  -0.46200
C     1.53689  -1.54390  -0.85500
C     1.89403  -2.53085   0.23339
O     1.71186  -1.87201  -2.02278
C    -0.43621  -0.41360   1.13369
C    -1.03353  -1.80184   0.90191
O    -1.42920  -2.37528   1.95307
O    -1.06090  -2.30081  -0.25412
C    -1.17098   0.77846   1.01138
C    -2.61978   0.89125   0.60999
O    -3.16360  -0.04332  -0.04767
O    -3.20492   1.95626   0.96211
N    -0.29242   1.63625  -0.77885
C    -1.25521   2.38849  -1.55454
N     0.21610   0.54080  -1.32179
C    -0.52876  -0.11228  -2.41384
H     3.09871   2.21561   2.33651
H     2.57766   3.65677   1.41951
H     3.88632   2.61296   0.79292
H     1.04171   2.25577   0.25526
H     1.63169  -2.20683   1.24450
H     1.37691  -3.47299   0.00184
H     2.97720  -2.71653   0.18822
H     0.29661  -0.41513   1.94707
H    -0.84041   1.62197   1.62042
H    -2.13637   1.80931  -1.87424
H    -1.60498   3.21082  -0.91882
H    -0.78066   2.82191  -2.45241
H    -1.52075  -0.40236  -2.04851
H    -0.62412   0.59571  -3.24625
H     0.01910  -0.98481  -2.76054
