37
Generated by autodE on: 2022-10-20. E = -825.678548 Ha
C     4.00708   1.65791   0.93396
O     2.82857   1.76124   0.14223
C     2.11046   0.64250  -0.08426
C     2.22282  -0.66695   0.22496
C     3.18138  -1.51277   0.99664
C     0.89205  -1.25002  -0.26806
O     0.59409  -0.43720  -1.42170
C     0.75252   0.81800  -0.75509
C    -0.30862   0.71079   0.37487
C    -0.20478  -0.79724   0.73884
C    -1.63850  -1.37661   0.58659
C    -1.84697  -2.25294  -0.64855
C    -2.07925  -2.11281   1.84506
O    -2.49798  -0.20314   0.48763
C    -1.79415   0.91594  -0.02609
C    -2.40036   2.18890   0.56212
C    -1.98019   0.96181  -1.50314
N    -2.19368   1.02982  -2.64186
H     4.40935   2.67466   1.03141
H     4.75746   1.01618   0.44484
H     3.77683   1.25796   1.93449
H     2.69280  -1.91610   1.90230
H     3.49663  -2.38659   0.40012
H     4.08256  -0.97612   1.31457
H     0.90194  -2.31457  -0.52698
H     0.65302   1.66793  -1.44025
H    -0.07274   1.37963   1.21053
H     0.14245  -0.94583   1.76821
H    -1.28511  -3.19352  -0.55186
H    -2.91526  -2.49911  -0.74331
H    -1.51886  -1.75250  -1.56780
H    -1.97989  -1.46018   2.72559
H    -3.12921  -2.43248   1.75996
H    -1.45590  -3.00655   1.99856
H    -3.46751   2.26146   0.30806
H    -1.87784   3.07492   0.17335
H    -2.28993   2.15521   1.65537
