17
Generated by autodE on: 2022-10-20. E = -364.110106 Ha
C     2.18073  -1.73101   0.52461
C     1.31032  -0.58027   0.17951
C     1.85573   0.73354  -0.22718
O     0.04647  -0.79927   0.25805
C    -1.07838  -0.06232   0.03730
C    -2.34278  -0.81576   0.31639
C    -1.06253   1.25347  -0.41322
N    -1.16591   2.36478  -0.79603
H     2.83020  -1.98773  -0.33146
H     1.58295  -2.60811   0.80486
H     2.85493  -1.46313   1.35759
H     1.51939   1.00224  -1.24358
H     2.95241   0.70855  -0.20951
H     1.50172   1.53023   0.44993
H    -3.20886  -0.17450   0.09948
H    -2.43454  -1.72299  -0.30828
H    -2.41852  -1.13196   1.37297
