20
Generated by autodE on: 2022-10-20. E = -461.427442 Ha
C     2.81572  -0.01347   0.87140
O     1.80372  -0.85693   0.33271
C     0.64606  -0.28530  -0.05501
C     0.12631   0.95735  -0.07003
C     0.54415   2.31686   0.38126
C    -1.32509   0.69990  -0.56891
C    -2.08796  -0.04697   0.54899
C    -1.54803  -1.27008   0.57112
C    -0.47354  -1.23477  -0.53984
O    -1.11681  -0.38327  -1.50158
H     3.66709  -0.66114   1.11807
H     3.13387   0.74144   0.13418
H     2.46411   0.49207   1.78524
H     0.41435   3.05790  -0.42702
H    -0.09414   2.65673   1.21798
H     1.58686   2.36330   0.71757
H    -1.82791   1.55560  -1.03558
H    -2.84751   0.39060   1.19662
H    -1.73801  -2.10907   1.23976
H    -0.14313  -2.18926  -0.96531
