37
Generated by autodE on: 2022-10-20. E = -825.546202 Ha. Imaginary frequency = -150.1 cm-1
C     4.47973   1.64364   0.46819
O     3.17023   1.74946  -0.07905
C     2.39945   0.64309  -0.09124
C     2.52492  -0.63960   0.30446
C     3.55616  -1.46923   0.99304
C     1.10289  -1.21239   0.03096
O     0.74361  -0.49004  -1.16672
C     0.94448   0.80880  -0.58965
C     0.03933   0.71948   0.65373
C     0.13184  -0.57445   1.04614
C    -2.31754  -1.44041   0.47891
C    -2.00015  -2.02476  -0.84885
C    -2.62896  -2.31368   1.64354
O    -2.71561  -0.21020   0.61630
C    -2.53919   0.89682  -0.13629
C    -3.02182   2.15433   0.51958
C    -2.25552   0.86766  -1.50618
N    -2.00535   0.97541  -2.65040
H     4.93628   2.63870   0.38694
H     5.08628   0.91733  -0.09681
H     4.44212   1.34377   1.52794
H     3.19172  -1.78691   1.98776
H     3.75694  -2.39671   0.42815
H     4.51087  -0.94981   1.13826
H     1.04439  -2.29772  -0.11502
H     0.76287   1.61934  -1.30414
H    -0.33529   1.57901   1.20419
H    -0.13897  -1.01344   2.00408
H    -1.66487  -3.06235  -0.72239
H    -2.91448  -2.02975  -1.47306
H    -1.22755  -1.45961  -1.38197
H    -2.80921  -1.71589   2.54708
H    -3.52786  -2.92507   1.43616
H    -1.80117  -3.01623   1.82553
H    -4.12150   2.26812   0.48154
H    -2.57891   3.03012   0.02295
H    -2.71716   2.17365   1.57823
