52
Generated by autodE on: 2022-06-23. E = -1150.863425 Ha
C     3.19936   0.99572  -2.77736
N     2.24852   0.82318  -1.69802
C     2.14392  -0.32450  -1.01810
O     2.92366  -1.27539  -1.15268
C     0.94383  -0.45985  -0.05643
C     1.52861  -1.12139   1.22122
O     1.10757  -2.07371   1.84087
O     2.60200  -0.43177   1.62482
C     3.19340  -0.82110   2.87143
N     0.30771   0.80954   0.26330
C     1.02236   1.85365   0.99115
C    -1.12520   0.68921   0.49879
C    -1.88617   1.81575  -0.24946
C    -1.16811   2.62310  -1.29901
O    -3.06270   2.02793  -0.01481
C    -1.42717   0.71518   2.03313
C    -2.74180   1.18338   2.59121
O    -0.54926   0.33386   2.78717
C    -1.53509  -0.76656  -0.07877
C    -1.96872  -1.73044   1.04398
C    -2.72943  -0.70482  -1.04299
C    -0.20357  -1.25833  -0.79574
C    -0.21205  -0.88728  -2.29532
C    -0.01184  -2.78185  -0.76643
H     2.88123   0.46002  -3.68851
H     3.29223   2.06405  -3.01066
H     4.18311   0.60805  -2.47852
H     1.48520   1.48553  -1.59415
H     2.45689  -0.73802   3.68359
H     3.56280  -1.85509   2.81534
H     4.02607  -0.12877   3.04037
H     1.94726   2.12422   0.46619
H     1.27992   1.58713   2.02569
H     0.38915   2.75088   1.03391
H    -0.31944   3.17617  -0.87357
H    -1.88228   3.32912  -1.74170
H    -0.76153   1.96998  -2.08272
H    -3.59857   0.76936   2.04766
H    -2.77947   0.90809   3.65365
H    -2.80492   2.27891   2.49785
H    -2.26175  -2.69108   0.59937
H    -2.85462  -1.34188   1.56420
H    -1.18317  -1.92009   1.77910
H    -3.63865  -0.41403  -0.49978
H    -2.89884  -1.70460  -1.46906
H    -2.59892  -0.00194  -1.87379
H    -1.02988  -1.41480  -2.80091
H     0.71762  -1.21569  -2.77952
H    -0.33653   0.18398  -2.48013
H    -0.81437  -3.26142  -1.34671
H     0.94474  -3.03403  -1.24698
H    -0.00266  -3.20745   0.23822
