18
Generated by autodE on: 2022-06-23. E = -235.968069 Ha
C    -1.77234  -0.77350  -0.38160
C    -0.63802   0.01612   0.22620
C    -1.10071   0.84575   1.39987
C     0.63798  -0.01581  -0.22642
C     1.77197   0.77520   0.38021
C     1.10110  -0.84762  -1.39837
H    -2.57989  -0.09452  -0.70965
H    -1.48415  -1.39065  -1.24086
H    -2.22548  -1.43913   0.37494
H    -0.30778   1.42909   1.88306
H    -1.55924   0.19871   2.16914
H    -1.89291   1.54861   1.08478
H     1.47972   1.40831   1.22640
H     2.23661   1.42557  -0.38250
H     2.57186   0.09630   0.72689
H     0.31127  -1.44364  -1.87103
H     1.54667  -0.20105  -2.17568
H     1.90339  -1.53928  -1.08419
