34
Generated by autodE on: 2022-06-23. E = -914.856578 Ha
C     4.24425   0.27101  -1.07545
N     2.80100   0.20980  -0.92257
C     2.22594   0.15942   0.28201
O     2.82765   0.17314   1.35763
C     0.71623   0.10829   0.28627
C     0.02154   1.33226   0.80514
O    -1.00785   1.32570   1.44198
O     0.75181   2.41059   0.54718
C     0.24091   3.66756   1.02255
N     0.07297  -1.00650   0.05546
C     0.83576  -2.25195  -0.16792
C    -1.29118  -0.99219  -0.32061
C    -2.21570  -1.94367   0.24873
C    -1.81072  -2.69784   1.50485
O    -3.35993  -2.12543  -0.19781
C    -1.61621   0.01482  -1.30821
C    -2.91979  -0.07353  -2.06298
O    -0.83392   0.95024  -1.57041
H     4.48163   0.36294  -2.14158
H     4.72163  -0.63829  -0.67804
H     4.65597   1.13905  -0.53856
H     2.20561   0.19654  -1.74670
H     0.97553   4.42223   0.72156
H    -0.73461   3.87427   0.56004
H     0.13665   3.64595   2.11636
H     1.66992  -2.31102   0.54090
H     0.16896  -3.10636  -0.02797
H     1.20511  -2.26215  -1.20222
H    -0.92491  -2.29551   2.01239
H    -2.66571  -2.66816   2.19654
H    -1.63272  -3.75719   1.25790
H    -3.08252  -1.07086  -2.49161
H    -2.91399   0.69149  -2.85071
H    -3.75779   0.11444  -1.37415
