34
Generated by autodE on: 2022-07-27. E = -914.855682 Ha
C     3.77768  -0.57844  -2.45537
N     2.42927  -0.64056  -1.91879
C     2.05181   0.12347  -0.88761
O     2.76944   0.96115  -0.33874
C     0.64032  -0.09405  -0.38524
C     0.29073  -1.44421   0.16110
O    -0.80342  -1.95694   0.07082
O     1.37335  -2.04054   0.64725
C     1.19721  -3.36504   1.17751
N    -0.24836   0.86340  -0.47014
C     0.08038   2.07133  -1.25821
C    -1.38437   0.91303   0.36714
C    -2.67039   1.27476  -0.18942
C    -2.86104   1.22555  -1.69713
O    -3.65559   1.55102   0.51212
C    -1.13744   0.59448   1.75921
C    -2.17159   0.94670   2.80081
O    -0.07830   0.05391   2.12900
H     4.50977  -0.98894  -1.74134
H     3.81654  -1.16240  -3.38221
H     4.05574   0.46285  -2.67329
H     1.78252  -1.33541  -2.28183
H     0.48550  -3.34052   2.01489
H     0.82784  -4.04272   0.39505
H     2.18651  -3.68278   1.52427
H     0.85385   2.63388  -0.72070
H    -0.81124   2.69515  -1.34671
H     0.44550   1.78208  -2.25093
H    -2.92593   2.25108  -2.09532
H    -3.83070   0.74309  -1.88898
H    -2.07653   0.68272  -2.23929
H    -3.05376   0.29904   2.67851
H    -1.72891   0.77497   3.79109
H    -2.52398   1.98139   2.70538
