52
Generated by autodE on: 2022-06-23. E = -1150.781428 Ha. Imaginary frequency = -203.0 cm-1
C     3.28077   0.40587  -2.85215
N     2.29233   0.61219  -1.81150
C     2.23110  -0.20161  -0.74392
O     3.07045  -1.09505  -0.55258
C     1.06165  -0.08652   0.20502
C     1.40989  -0.94726   1.43060
O     1.17750  -2.11011   1.65695
O     2.27701  -0.21294   2.15112
C     2.81074  -0.83776   3.32428
N     0.42019   1.11053   0.36181
C     1.19156   2.37550   0.16023
C    -0.87226   1.25273   0.91195
C    -1.77605   2.19986   0.26515
C    -1.43085   2.81721  -1.07802
O    -2.88383   2.48475   0.74432
C    -1.20608   0.59338   2.15468
C    -2.57054   0.72847   2.78969
O    -0.36395  -0.10175   2.75451
C    -1.63883  -1.21246  -0.33341
C    -1.98419  -2.10312   0.81982
C    -2.79609  -0.45157  -0.90817
C    -0.45577  -1.40443  -1.07078
C    -0.35693  -0.75328  -2.43189
C     0.24195  -2.74889  -1.02456
H     3.11016  -0.54378  -3.38728
H     3.21898   1.23464  -3.56793
H     4.29223   0.37749  -2.42226
H     1.50461   1.21417  -2.01868
H     1.99823  -1.09565   4.01914
H     3.36966  -1.74695   3.05865
H     3.48138  -0.10116   3.78216
H     2.23345   2.20525   0.45319
H     0.76950   3.12679   0.83524
H     1.15976   2.77070  -0.85929
H    -0.98290   3.81136  -0.92225
H    -2.37379   2.96298  -1.62230
H    -0.74351   2.22014  -1.68707
H    -3.38244   0.48322   2.09310
H    -2.59787   0.05328   3.65611
H    -2.74564   1.76261   3.11947
H    -2.33567  -3.07415   0.42148
H    -2.80584  -1.68565   1.41534
H    -1.12743  -2.30564   1.47151
H    -3.43600  -0.01132  -0.13227
H    -3.42177  -1.18557  -1.45528
H    -2.51335   0.32535  -1.62442
H    -1.14253  -1.16671  -3.08849
H     0.60666  -0.96929  -2.90968
H    -0.50240   0.33408  -2.40435
H    -0.18368  -3.35767  -1.84355
H     1.32017  -2.66314  -1.21606
H     0.10068  -3.28902  -0.08703
