40
Generated by autodE on: 2022-06-18. E = -861.206935 Ha
C     4.09270   0.20056  -1.19741
C     3.09129   0.55288  -0.37984
C     3.29777   0.85882   1.07819
C     1.67650   0.63422  -0.91545
N     1.11670   1.99237  -0.69815
N     0.08766   1.99640  -0.01441
C    -0.31450   0.63294   0.43525
C    -0.21236   0.57988   1.98205
C    -0.75975   1.75778   2.73000
O     0.28929  -0.37628   2.53553
C    -1.79621   0.34680   0.12908
O    -2.36770  -0.56319   0.73610
N    -2.36837   1.11747  -0.80435
C    -3.74036   0.95942  -1.24644
C     0.65638  -0.34685  -0.28762
C     0.02168  -1.23800  -1.32127
C    -0.43653  -2.48684  -1.12322
C    -1.06339  -3.26686  -2.24686
C    -0.40022  -3.20047   0.20030
H     3.91653  -0.01451  -2.25543
H     5.11913   0.11004  -0.82942
H     2.72997   0.16507   1.71867
H     2.94111   1.87344   1.32273
H     4.36019   0.79041   1.35108
H     1.71815   0.51208  -2.00703
H    -0.06644   2.60472   2.59607
H    -1.73213   2.07498   2.32503
H    -0.84174   1.51941   3.79815
H    -1.81470   1.86505  -1.21089
H    -4.19758   0.12939  -0.69589
H    -3.77879   0.73706  -2.32384
H    -4.31938   1.87633  -1.05737
H     1.13659  -0.95581   0.48483
H    -0.08875  -0.79986  -2.31964
H    -2.10906  -3.52553  -2.00338
H    -1.05613  -2.70745  -3.19399
H    -0.53607  -4.22466  -2.40183
H    -1.42387  -3.48612   0.49768
H     0.17345  -4.14019   0.11785
H     0.02537  -2.59782   1.01178
