23
Generated by autodE on: 2022-06-18. E = -351.521382 Ha
C     3.62377  -0.99641  -0.42013
C     2.57416  -0.24857  -0.01399
C     2.77390   1.01270   0.78702
C     1.21208  -0.65928  -0.34902
C     0.07906   0.00029   0.00036
C    -1.24998  -0.45181  -0.35740
C    -2.42820   0.14444  -0.04439
C    -2.55362   1.41187   0.75266
C    -3.73370  -0.45133  -0.49020
H     3.47507  -1.91195  -1.00097
H     4.65297  -0.71270  -0.18318
H     2.26394   0.94842   1.76262
H     3.84092   1.20534   0.96711
H     2.34701   1.88608   0.26652
H     1.12033  -1.58280  -0.93337
H     0.16329   0.92125   0.58350
H    -1.29246  -1.37729  -0.94442
H    -3.09324   2.17847   0.16897
H    -1.59052   1.83530   1.06536
H    -3.16077   1.23408   1.65796
H    -3.59322  -1.37555  -1.06976
H    -4.30074   0.26690  -1.10940
H    -4.37720  -0.67840   0.37885
