17
Generated by autodE on: 2022-06-18. E = -509.671692 Ha
C     3.11731   0.98903  -0.25778
N     1.68064   0.81624  -0.28522
C     1.05651  -0.25983   0.22120
O     1.61785  -1.22054   0.76312
C    -0.43284  -0.23649   0.09009
N    -1.02413  -1.29949   0.60471
N    -1.51287  -2.21230   1.04772
C    -1.27868   0.79078  -0.52377
C    -2.76769   0.56736  -0.53432
O    -0.77448   1.80341  -1.01348
H     3.52288   1.07952  -1.27800
H     3.39438   1.89528   0.30397
H     3.57698   0.12041   0.22792
H     1.08090   1.52976  -0.70355
H    -3.25392   1.41603  -1.03095
H    -3.01654  -0.36398  -1.06832
H    -3.15264   0.47445   0.49416
