40
Generated by autodE on: 2022-06-18. E = -861.162395 Ha. Imaginary frequency = -443.9 cm-1
C     4.21468   1.08618  -1.00282
C     3.22592   0.45468  -0.34284
C     3.43310  -0.10818   1.03846
C     1.89417   0.30270  -0.98305
N     1.21253   2.10419  -0.68446
N     0.26568   2.05347   0.00216
C    -0.46507   1.01239   0.54430
C    -0.29562   0.75472   1.97804
C     0.59540   1.66334   2.78123
O    -0.88175  -0.19127   2.51613
C    -1.72715   0.75749  -0.20865
O    -1.92687   1.29616  -1.30620
N    -2.57127  -0.12145   0.35420
C    -3.74892  -0.60155  -0.33588
C     0.91955  -0.59851  -0.47734
C     0.00548  -1.27079  -1.37439
C    -0.77171  -2.34394  -1.07678
C    -1.63495  -2.97594  -2.12854
C    -0.82969  -2.99812   0.27306
H     4.06157   1.48601  -2.00989
H     5.20382   1.21662  -0.55504
H     3.33838  -1.20696   1.03603
H     2.68247   0.26900   1.74848
H     4.43045   0.14914   1.42164
H     1.89886   0.42996  -2.06974
H     1.45586   2.03730   2.21283
H    -0.00279   2.53912   3.08760
H     0.93321   1.13778   3.68388
H    -2.27435  -0.53894   1.23674
H    -4.03550  -1.57701   0.07763
H    -3.54434  -0.71215  -1.40984
H    -4.60248   0.08838  -0.22196
H     1.09888  -1.05715   0.49368
H    -0.04963  -0.86557  -2.38999
H    -2.69214  -2.98015  -1.81168
H    -1.35525  -4.03444  -2.27690
H    -1.56063  -2.45599  -3.09452
H    -1.87755  -3.07765   0.60827
H    -0.44787  -4.03283   0.21077
H    -0.26720  -2.46345   1.04755
