36
Generated by autodE on: 2022-10-21. E = -1007.986916 Ha
C    -0.49764  -2.85977  -1.25824
O    -1.19367  -1.67018  -0.88831
C    -0.49383  -0.75131  -0.09825
C     0.01060  -1.37060   1.13941
N     0.39111  -1.91497   2.08946
C     0.63459  -0.00697  -0.91114
C     1.97226   0.12228  -0.23996
C     2.95736  -0.83985  -0.49917
C     4.18586  -0.78321   0.16276
C     4.43920   0.24046   1.08123
C     3.45940   1.20549   1.33650
C     2.22671   1.14692   0.68278
O     0.10141   1.32029  -1.16751
N    -1.29310   1.28610  -0.98279
C    -1.97632   1.00484  -2.10906
N    -2.57101   0.87829  -3.10271
C    -1.50514   0.42141   0.20232
O    -2.83466   0.09742   0.20026
C    -3.27304  -0.79003   1.23687
O    -1.04688   1.03666   1.33891
C    -1.65938   2.28466   1.68845
H    -1.18463  -3.42827  -1.89726
H     0.42195  -2.63777  -1.82333
H    -0.24209  -3.46109  -0.37040
H     0.72926  -0.53679  -1.86909
H     2.75626  -1.63736  -1.21857
H     4.94884  -1.53739  -0.04281
H     5.40135   0.28772   1.59661
H     3.65460   2.00785   2.05172
H     1.45901   1.89374   0.88652
H    -4.36856  -0.79483   1.18847
H    -2.94927  -0.43152   2.22459
H    -2.89307  -1.80733   1.06223
H    -1.35038   3.07523   0.98919
H    -2.75524   2.19755   1.69162
H    -1.30321   2.52302   2.69773
