17
Generated by autodE on: 2022-10-26. E = -493.285587 Ha
N    -3.81532   0.57618  -1.46432
C    -3.08135   1.13578  -0.72917
N    -2.34839   1.84151   0.10256
O    -1.06996   1.24047   0.32247
C    -0.66503   0.15158  -0.20252
C     0.64284  -0.34808   0.08698
C     1.03192  -1.56012  -0.52681
C     2.29673  -2.08523  -0.28051
C     3.17610  -1.40948   0.57325
C     2.79530  -0.20500   1.18627
C     1.53657   0.32967   0.94959
H    -1.33520  -0.39234  -0.88171
H     0.33315  -2.07349  -1.19089
H     2.60112  -3.02099  -0.75288
H     4.16908  -1.82226   0.76502
H     3.49110   0.31204   1.84982
H     1.22953   1.26517   1.41945
