27
Generated by autodE on: 2022-06-16. E = -644.838658 Ha. Imaginary frequency = -394.8 cm-1
C     3.77160  -1.29133   1.23061
N     2.73504  -0.45564   0.65332
C     1.45289  -0.54658   1.09657
O     1.10716  -1.39028   1.93146
N     0.53546   0.38153   0.59556
N     0.84303   0.93990  -0.57272
N     0.02686   1.88303  -0.92607
C    -1.79838   0.78811  -0.64291
C    -2.04324   0.61241  -2.05818
O    -2.76129   1.35127  -2.73617
C    -1.33954  -0.25396   0.22633
C    -1.90540  -0.23791   1.62598
C    -1.05919  -1.62714  -0.34671
H     3.49646  -2.35315   1.15812
H     4.70320  -1.13046   0.67367
H     3.95012  -1.05662   2.29380
H     3.02618   0.37586   0.15030
H     1.26143   0.33132  -1.29739
H     0.13765   2.01884  -1.94069
H    -2.34484   1.61776  -0.18755
H    -1.52270  -0.24349  -2.54606
H    -2.92792  -0.65302   1.60963
H    -1.29848  -0.84990   2.30435
H    -1.95959   0.78755   2.01912
H    -0.58475  -2.26731   0.40742
H    -0.40349  -1.58788  -1.22930
H    -2.00320  -2.10645  -0.65447
