38
Generated by autodE on: 2022-05-30. E = -989.950581 Ha
C    -0.44209  -0.24842   2.55628
C    -0.63043  -0.35710   1.03839
C    -1.74424   0.55873   0.49850
C    -2.82804   0.91698   1.31367
C    -3.87584   1.69259   0.80862
C    -3.85479   2.12865  -0.51845
C    -2.77704   1.78112  -1.33812
C    -1.73279   1.00355  -0.83420
N    -0.91956  -1.77967   0.69886
C    -0.17490  -2.18894  -0.47751
C    -0.97270  -2.17849  -1.73568
N    -1.62677  -2.14357  -2.69221
C     0.37995  -3.55532  -0.30088
N     0.82004  -4.61450  -0.13595
C     0.94163  -1.13731  -0.54269
C     1.99564  -1.27146  -1.47920
N     2.83068  -1.41885  -2.27697
C     0.69049  -0.11651   0.31507
C     1.54063   1.05283   0.55718
C     2.94299   0.94608   0.45496
C     3.75756   2.05376   0.68332
C     3.18952   3.28780   1.01519
C     1.80073   3.40413   1.13054
C     0.98108   2.29781   0.91248
H     0.43925  -0.83184   2.85737
H    -0.30557   0.79383   2.87350
H    -1.31619  -0.66213   3.07704
H    -2.86626   0.59103   2.35300
H    -4.71110   1.95891   1.46060
H    -4.67122   2.73917  -0.91108
H    -2.74373   2.12025  -2.37605
H    -0.89726   0.75636  -1.49094
H    -1.91676  -1.96672   0.61196
H     3.40323  -0.01643   0.22983
H     4.84220   1.94979   0.60985
H     3.82881   4.15564   1.19232
H     1.35031   4.36351   1.39386
H    -0.09883   2.40838   1.00089
