23
Generated by autodE on: 2022-05-30. E = -589.065324 Ha
C     0.53989  -2.02367  -0.04651
C     0.01607  -0.63172  -0.06164
N     0.84997   0.38411  -0.11031
C     2.24920   0.42169  -0.03172
C     2.89622   1.55564  -0.55204
N     3.44019   2.50003  -0.98201
C     3.00294  -0.54655   0.65064
N     3.66341  -1.32159   1.22994
C    -1.42019  -0.32889  -0.02102
C    -2.35671  -1.22392  -0.57842
C    -3.71551  -0.91387  -0.58169
C    -4.16879   0.28356  -0.01825
C    -3.25211   1.17194   0.55288
C    -1.89139   0.86991   0.55671
H    -0.24907  -2.74616  -0.27808
H     0.93937  -2.27672   0.94955
H     1.36425  -2.13371  -0.76818
H     0.42353   1.30711  -0.22604
H    -2.02078  -2.15293  -1.04012
H    -4.42549  -1.61167  -1.03079
H    -5.23518   0.51984  -0.01680
H    -3.59945   2.09946   1.01297
H    -1.19816   1.55708   1.04679
