40
Generated by autodE on: 2022-06-17. E = -790.039392 Ha
C     3.97291  -0.40928   0.73320
O     2.87609  -0.42963  -0.19075
C     1.76428   0.21901   0.17425
O     1.69253   0.83717   1.21874
C     0.61761   0.07997  -0.85425
C     1.21768  -0.12155  -2.25332
N    -0.28429   1.22180  -0.82160
C     0.26766   2.53864  -1.04179
C    -1.39113   1.07519   0.15365
C    -2.72857   1.33375  -0.56307
C    -1.31044   2.03526   1.35317
C    -1.20075  -0.38239   0.66093
C    -2.45325  -1.14206   0.98019
O    -2.58506  -1.81633   1.98595
C    -0.30988  -1.11234  -0.39470
C     0.44591  -2.27640   0.25355
C    -1.11968  -1.66907  -1.57663
H     4.77883  -0.98150   0.25931
H     3.68203  -0.87866   1.68437
H     4.29926   0.62347   0.92183
H     0.42789  -0.05441  -3.01093
H     1.70950  -1.09944  -2.33771
H     1.97123   0.64789  -2.47292
H     0.91105   2.91134  -0.21959
H     0.86906   2.54917  -1.96365
H    -0.54483   3.26696  -1.18546
H    -2.70842   2.34181  -1.00571
H    -2.91301   0.61363  -1.37163
H    -3.57788   1.29756   0.13720
H    -2.09616   1.77747   2.08070
H    -1.47497   3.07829   1.04333
H    -0.33671   1.96506   1.85282
H    -0.62396  -0.35005   1.59490
H    -3.27939  -1.09442   0.23719
H     1.16426  -2.72070  -0.45165
H    -0.26539  -3.06260   0.54957
H     0.99067  -1.97081   1.15919
H    -1.85680  -2.40345  -1.21823
H    -0.45999  -2.19576  -2.28009
H    -1.65654  -0.88748  -2.12861
