14
Generated by autodE on: 2022-06-17. E = -270.687342 Ha
C    -1.55031   1.10874  -0.42758
C    -0.95573  -0.13416   0.16414
C    -1.95089  -1.08333   0.75936
C     0.37054  -0.43022   0.18854
C     1.43575   0.39608  -0.35177
O     2.62401   0.08746  -0.30130
H    -0.81867   1.80005  -0.86101
H    -2.27737   0.83092  -1.20949
H    -2.12363   1.64512   0.34755
H    -2.68263  -1.39354  -0.00665
H    -1.47478  -1.97863   1.18219
H    -2.53105  -0.57724   1.55035
H     0.70238  -1.36713   0.64858
H     1.13927   1.35488  -0.83316
