26
Generated by autodE on: 2022-07-27. E = -519.302186 Ha
C     2.73488  -1.97381  -1.08663
O     1.74604  -1.00402  -1.39819
C     0.94731  -0.58470  -0.34044
O     1.12129  -1.08576   0.79030
C     0.03528   0.41117  -0.73037
C     0.05174   1.04716  -2.09529
N    -0.79765   0.97519   0.26359
C    -0.77191   2.44181   0.41236
C    -1.52299   0.25737   1.10023
C    -1.75235  -1.18646   0.86123
C    -2.15172   0.90562   2.29223
H     3.26448  -2.18803  -2.02503
H     2.28776  -2.90410  -0.70016
H     3.45444  -1.59952  -0.34018
H    -0.90478   1.54724  -2.31235
H     0.19220   0.27831  -2.86973
H     0.85564   1.79436  -2.24319
H    -0.18529   2.71171   1.30258
H    -0.29329   2.88283  -0.46575
H    -1.78791   2.84371   0.51303
H    -1.71876  -1.40505  -0.21869
H    -0.94664  -1.78764   1.31924
H    -2.71423  -1.49232   1.29679
H    -1.45357   1.57574   2.81611
H    -3.02313   1.51482   1.99258
H    -2.50356   0.14089   2.99597
