26
Generated by autodE on: 2022-06-17. E = -519.302132 Ha
C     3.03706   1.74622  -0.52428
O     2.36067   0.50235  -0.42436
C     0.98100   0.56623  -0.26754
O     0.42300   1.68272  -0.22185
C     0.39711  -0.71095  -0.20630
C     1.17008  -1.97849  -0.45935
N    -1.01026  -0.79297  -0.09921
C    -1.71876  -1.60233  -1.10760
C    -1.71233  -0.12879   0.79986
C    -3.20046  -0.04709   0.67479
C    -1.04763   0.52034   1.95343
H     4.10412   1.51009  -0.63614
H     2.69979   2.32727  -1.39819
H     2.89311   2.36295   0.37782
H     0.63703  -2.85561  -0.06112
H     2.14330  -1.93752   0.05227
H     1.38342  -2.17903  -1.52738
H    -2.22394  -0.93826  -1.82380
H    -2.46281  -2.25572  -0.63469
H    -0.99360  -2.21290  -1.65153
H    -3.67011  -1.02155   0.89692
H    -3.59942   0.68923   1.38335
H    -3.51296   0.23587  -0.34258
H    -0.73278   1.54677   1.69257
H    -0.12441  -0.02189   2.21626
H    -1.73640   0.56664   2.80870
