40
Generated by autodE on: 2022-06-17. E = -789.966995 Ha. Imaginary frequency = -290.0 cm-1
C     3.98005  -1.17765  -0.75249
O     2.67983  -0.72530  -1.13148
C     2.05484   0.12043  -0.26680
O     2.60930   0.45318   0.77572
C     0.70167   0.42950  -0.73073
C     0.50917   0.33846  -2.24165
N    -0.03230   1.42977  -0.04057
C     0.62965   2.29441   0.95243
C    -1.38329   1.41120  -0.04208
C    -2.19065   1.06119  -1.26760
C    -2.13741   2.27243   0.92628
C    -1.39437  -0.70918   0.97381
C    -2.76518  -0.97900   0.68133
O    -3.73334  -0.61142   1.37038
C    -0.29565  -1.37004   0.35024
C     0.78234  -1.83938   1.30157
C    -0.50511  -2.31166  -0.80850
H     4.31609  -1.84159  -1.55844
H     3.94575  -1.73102   0.19782
H     4.67611  -0.33187  -0.64931
H    -0.05756   1.20017  -2.60902
H    -0.00043  -0.57250  -2.58314
H     1.48482   0.36263  -2.74323
H     0.64702   1.84101   1.95411
H     1.65563   2.48505   0.63651
H     0.10016   3.25147   0.99455
H    -2.13574   1.90846  -1.97394
H    -1.87270   0.15796  -1.78860
H    -3.24313   0.94741  -0.98199
H    -3.12317   1.81524   1.09092
H    -2.30832   3.27859   0.50180
H    -1.64506   2.38039   1.89835
H    -1.21674  -0.26909   1.96078
H    -2.96230  -1.56181  -0.24639
H     1.68222  -2.19165   0.77974
H     0.38686  -2.69929   1.87169
H     1.06975  -1.06621   2.02562
H    -0.83463  -3.29692  -0.43217
H     0.44166  -2.47318  -1.34479
H    -1.25497  -1.96415  -1.52993
