29
Generated by autodE on: 2022-10-21. E = -1242.598714 Ha
C    -2.89667   1.74154  -0.14241
O    -2.25953   0.45504  -0.08203
C    -0.94639   0.33808  -0.06898
C     0.11205   1.20474  -0.13019
Cl    0.08308   2.93424  -0.24471
C     1.32051   0.38089  -0.05746
C     2.73890   0.88500  -0.13377
C     3.80596  -0.01845   0.40861
O     2.97452   1.97467  -0.62441
N     1.08182  -0.89158   0.05466
C    -0.36189  -1.05116   0.06496
C    -0.89867  -1.63725   1.40648
C    -0.05203  -1.45221   2.62267
O    -1.98332  -2.17888   1.40168
C    -0.75136  -1.99370  -1.10824
C    -0.28122  -3.41238  -0.99765
O    -1.39054  -1.56798  -2.04468
H    -3.97324   1.53592  -0.11750
H    -2.61189   2.35300   0.72448
H    -2.63581   2.25634  -1.07689
H     4.79028   0.44250   0.25805
H     3.76247  -0.99984  -0.08661
H     3.63062  -0.19538   1.48240
H     0.32990  -0.42123   2.67387
H    -0.63221  -1.69930   3.52083
H     0.82346  -2.11764   2.55000
H    -0.27138  -3.87881  -1.99133
H    -0.99117  -3.95978  -0.35583
H     0.70845  -3.46805  -0.52509
