23
Generated by autodE on: 2022-06-21. E = -741.491377 Ha
C     4.24204   0.67526   0.43583
O     2.82060   0.85586   0.42957
C     2.08586  -0.19056   0.01999
O     2.58637  -1.24810  -0.33615
C     0.66609   0.11901   0.06674
C     0.06748   1.34769   0.48284
O     0.45788   2.42206   0.88450
O    -1.33227   1.11111   0.34059
C    -1.52421  -0.12806  -0.11158
C    -2.88833  -0.64226  -0.35145
C    -4.00460   0.31520  -0.06219
O    -3.05350  -1.78260  -0.76067
N    -0.36483  -0.74515  -0.28594
C    -0.22259  -2.12332  -0.77897
H     4.61096   0.46210  -0.57811
H     4.66171   1.62041   0.79946
H     4.52595  -0.14854   1.10689
H    -3.96413   0.63650   0.99105
H    -3.89485   1.22092  -0.68029
H    -4.96391  -0.17292  -0.27286
H     0.84279  -2.34895  -0.83715
H    -0.72720  -2.80479  -0.08441
H    -0.69278  -2.19940  -1.76574
