43
Generated by autodE on: 2022-06-21. E = -1199.167998 Ha. Imaginary frequency = -388.5 cm-1
C     4.45310  -0.17800   0.97423
O     3.21305  -0.20020   0.24963
C     2.39642   0.83710   0.43245
O     2.66037   1.78675   1.14571
C     1.12636   0.64099  -0.29080
C     0.92847  -0.29502  -1.39963
O     1.64449  -1.11596  -1.92513
O    -0.36003  -0.07802  -1.81877
C    -0.96843   0.77402  -0.88660
C    -2.16835   1.47788  -1.50349
C    -2.96312   2.44736  -0.68060
O    -2.46721   1.19523  -2.64791
C    -1.45434  -0.45742   0.42082
N    -2.30110  -1.42035  -0.19048
C    -3.66642  -1.07732  -0.54754
C    -1.74295  -2.57710  -0.71439
C    -0.52099  -3.02896  -0.38489
C     0.31371  -2.33351   0.65546
C    -0.18760  -0.93260   0.95414
C     0.27590  -0.27216   2.19791
N     1.34390  -0.82980   2.82241
O    -0.28329   0.73218   2.66793
N     0.07763   1.51855  -0.32193
C    -0.09160   2.75084   0.44527
H     5.05307   0.69388   0.67799
H     4.96975  -1.10655   0.70753
H     4.25927  -0.14346   2.05553
H    -3.98949   2.47215  -1.07001
H    -2.52942   3.45390  -0.79495
H    -2.96118   2.19645   0.38768
H    -1.99359   0.19426   1.11408
H    -3.99427  -0.21013   0.04028
H    -4.34192  -1.91379  -0.30823
H    -3.78425  -0.84045  -1.61767
H    -2.38093  -3.11191  -1.42285
H    -0.14739  -3.95037  -0.83366
H     0.30404  -2.91726   1.59852
H     1.37712  -2.30921   0.35525
H     1.75150  -0.31846   3.59868
H     1.92034  -1.52946   2.36990
H     0.83673   2.94970   0.98281
H    -0.29940   3.58139  -0.24291
H    -0.90734   2.65003   1.16718
