42
Generated by autodE on: 2022-05-30. E = -1363.774656 Ha
C    -1.78094  -2.81738   1.13647
C    -2.41954  -2.15937  -0.05202
O    -3.62876  -2.19266  -0.22751
C    -1.51607  -1.40594  -1.05315
C    -2.03522  -1.70392  -2.47082
N    -0.11323  -1.75300  -0.85671
C     0.79149  -0.62263  -1.09576
C     1.28005  -0.59282  -2.55800
C     2.00130  -0.68605  -0.15291
C     3.07388   0.21068  -0.30313
C     4.15551   0.19406   0.58031
C     4.19026  -0.72445   1.63533
C     3.12923  -1.61845   1.79614
C     2.04478  -1.59503   0.91209
C    -0.09810   0.63152  -0.81537
C     0.02855   1.26580   0.60201
O    -0.77173   0.39075   1.40438
C    -1.99454   0.57976   0.66609
C    -2.11623   2.09896   0.62290
C    -0.84629   2.51427   0.57942
Cl   -0.20707   4.09714   0.32972
C    -1.57666   0.12921  -0.77283
H    -1.13154  -3.64030   0.79911
H    -1.12999  -2.10390   1.66043
H    -2.55944  -3.20600   1.80635
H    -1.52030  -1.07993  -3.21300
H    -3.11303  -1.50236  -2.53460
H    -1.86357  -2.76203  -2.72557
H     0.15568  -2.57310  -1.39667
H     1.96616   0.24519  -2.74426
H     1.80837  -1.52922  -2.79810
H     0.43205  -0.48651  -3.24794
H     3.06025   0.94782  -1.10823
H     4.97467   0.90490   0.44531
H     5.03700  -0.73988   2.32586
H     3.14064  -2.33948   2.61769
H     1.21152  -2.28419   1.04243
H     0.07869   1.39279  -1.58421
H     1.03841   1.38140   1.00309
H    -2.82554   0.03894   1.12955
H    -3.03697   2.67091   0.52223
H    -2.22356   0.60831  -1.51597
