29
Generated by autodE on: 2022-05-30. E = -596.558429 Ha
C     4.38050   0.21092   1.03445
C     2.87265   0.11809   0.94240
O     2.20379  -0.11216   1.99139
C     2.22872   0.28645  -0.32067
C     2.92728   0.54901  -1.61508
N     0.86885   0.13970  -0.19885
C    -0.20675   0.19060  -0.96308
C    -0.16461   0.56019  -2.41244
C    -1.50266  -0.09374  -0.32999
C    -2.70216   0.26315  -0.98562
C    -3.94407   0.01570  -0.39947
C    -4.02829  -0.60008   0.85232
C    -2.85004  -0.97191   1.51114
C    -1.60775  -0.72958   0.93003
H     4.87062  -0.54889   0.40474
H     4.74451   1.19519   0.69856
H     4.68358   0.05712   2.07862
H     2.59998   1.48946  -2.09041
H     4.00786   0.63212  -1.44847
H     2.77414  -0.26058  -2.34987
H     0.70062  -0.05228   0.80403
H    -0.57321   1.57458  -2.56326
H    -0.79149  -0.12653  -3.00091
H     0.84560   0.54270  -2.82457
H    -2.66721   0.75427  -1.95801
H    -4.85412   0.30998  -0.92774
H    -5.00113  -0.79589   1.30871
H    -2.89895  -1.46825   2.48319
H    -0.71572  -1.06671   1.46294
