42
Generated by autodE on: 2022-05-30. E = -1363.676488 Ha. Imaginary frequency = -298.0 cm-1
C    -2.53929  -2.81326   0.76905
C    -1.20364  -2.25690   0.30027
O    -0.32350  -2.03452   1.14754
C    -1.07543  -2.04009  -1.12585
C    -2.13799  -2.58925  -2.04574
N     0.03455  -1.57498  -1.78406
C     1.01202  -0.68215  -1.46011
C     1.65202  -0.01925  -2.65843
C     1.92317  -0.88265  -0.31473
C     2.68427   0.18391   0.19956
C     3.62825  -0.02685   1.20621
C     3.85757  -1.31530   1.69971
C     3.13992  -2.39135   1.16606
C     2.18482  -2.17919   0.17216
C    -0.61025   0.98151  -0.94906
C    -0.23439   1.77367   0.31727
O    -0.59240   0.83308   1.33509
C    -1.96048   0.66930   0.90239
C    -2.44063   2.14139   0.92133
C    -1.35287   2.82094   0.54698
Cl   -1.14779   4.49897   0.20804
C    -1.75526   0.29829  -0.58012
H    -2.70465  -3.83047   0.37813
H    -3.38626  -2.19616   0.43309
H    -2.53130  -2.85050   1.86635
H    -1.97141  -2.25760  -3.08192
H    -3.13939  -2.24319  -1.75229
H    -2.16579  -3.69248  -2.04549
H    -0.15114  -1.55004  -2.78535
H     2.06257   0.96081  -2.37992
H     2.49018  -0.62613  -3.04477
H     0.92514   0.13542  -3.46992
H     2.53781   1.19158  -0.18946
H     4.19313   0.82103   1.60136
H     4.60037  -1.48168   2.48354
H     3.32724  -3.40657   1.52488
H     1.64741  -3.02661  -0.25194
H    -0.40864   1.36908  -1.94615
H     0.78936   2.14128   0.42654
H    -2.50432  -0.03257   1.54317
H    -3.45564   2.48913   1.10339
H    -2.58559   0.02546  -1.22842
