39
Generated by autodE on: 2022-06-09. E = -6231.778600 Ha
C     4.26084   0.71521  -2.37289
N     2.87073   0.38794  -2.13051
C     2.51201  -0.67939  -1.40710
O     3.30559  -1.48652  -0.91090
C     1.03421  -0.87544  -1.20792
N     0.14998  -0.10853  -1.72503
C    -1.19335  -0.62020  -1.38293
C    -2.18708   0.48243  -0.99362
O    -3.27381   0.15407  -0.51072
N    -1.78899   1.73480  -1.23592
C    -2.58570   2.90440  -0.93422
C    -1.71502  -1.27544  -2.68348
O    -1.68014  -2.46427  -2.90463
O    -2.15890  -0.36521  -3.53990
C    -2.61901  -0.84052  -4.81781
C    -0.99572  -1.70776  -0.30236
C    -1.19896  -1.40809   1.22140
O    -0.32155  -2.41558   1.76289
C     0.89134  -1.91783   1.18051
C     0.84286  -0.45421   1.61576
Br    2.33047   0.63174   1.91832
C    -0.46055  -0.13666   1.64924
Br   -1.25149   1.47444   2.16490
C     0.52562  -1.99169  -0.34424
H     4.78430   0.95012  -1.43181
H     4.31148   1.58796  -3.03445
H     4.78514  -0.12680  -2.85057
H     2.13457   0.99081  -2.48499
H    -0.86860   1.84924  -1.65069
H    -3.43823   2.60754  -0.31194
H    -1.98292   3.64557  -0.38936
H    -2.96867   3.37534  -1.85435
H    -2.93986   0.04941  -5.37032
H    -3.46090  -1.53382  -4.68299
H    -1.80135  -1.34871  -5.34800
H    -1.58803  -2.59618  -0.53560
H    -2.22327  -1.51981   1.58639
H     1.76723  -2.49452   1.48974
H     0.79508  -2.97821  -0.74313
