26
Generated by autodE on: 2022-06-09. E = -776.978138 Ha
C     3.70432  -1.43226  -0.02352
N     3.92716   0.00288  -0.02955
C     2.98099   0.95058  -0.01875
O     3.15708   2.16983  -0.02000
C     1.60277   0.47020  -0.00566
N     0.45650   0.24972   0.00004
C    -0.81712  -0.12068   0.00641
C    -1.04553  -1.58499   0.00148
O    -0.08158  -2.37098  -0.00699
N    -2.33431  -1.98066   0.00829
C    -2.74051  -3.36874   0.00058
C    -1.83735   0.91239   0.01644
O    -3.04770   0.70082   0.02201
O    -1.31903   2.15285   0.01915
C    -2.25083   3.24075   0.02895
H     2.62782  -1.65185  -0.02078
H     4.15025  -1.89032   0.87177
H     4.14665  -1.89630  -0.91738
H     4.88511   0.34955  -0.03799
H    -3.03705  -1.24200   0.01236
H    -3.36362  -3.60363   0.87841
H    -1.84776  -4.00463   0.02364
H    -3.32052  -3.60990  -0.90516
H    -2.89151   3.21279  -0.86466
H    -2.88115   3.20546   0.92965
H    -1.64530   4.15469   0.02920
