39
Generated by autodE on: 2022-06-09. E = -6231.658007 Ha. Imaginary frequency = -293.2 cm-1
C     4.63339   0.92333  -2.25967
N     3.22192   0.82724  -1.92983
C     2.59620  -0.35736  -1.89922
O     3.10898  -1.43747  -2.18877
C     1.18605  -0.30667  -1.42182
N     0.20813   0.36546  -1.63992
C    -1.11042   0.41702  -1.70404
C    -1.73684   1.64391  -1.12816
O    -1.02141   2.58131  -0.75113
N    -3.07907   1.66833  -1.02945
C    -3.76352   2.78385  -0.41317
C    -1.71225  -0.60576  -2.58088
O    -1.07086  -1.36588  -3.28765
O    -3.05515  -0.61334  -2.53417
C    -3.72979  -1.55873  -3.37748
C    -0.72518  -2.18864  -0.24448
C    -0.82875  -2.09841   1.28603
O     0.32273  -2.88734   1.66686
C     1.26861  -2.11153   0.90333
C     0.98137  -0.71227   1.48733
Br    2.24989   0.63986   1.70772
C    -0.33886  -0.70004   1.71414
Br   -1.44947   0.67179   2.31103
C     0.61828  -2.17316  -0.51179
H     4.96245   1.95527  -2.09110
H     4.81659   0.65556  -3.31207
H     5.22498   0.24750  -1.62362
H     2.70099   1.66946  -1.70410
H    -3.60234   0.86125  -1.35280
H    -3.49592   3.73460  -0.90018
H    -4.84577   2.63152  -0.50674
H    -3.51190   2.87441   0.65687
H    -4.80061  -1.39703  -3.20970
H    -3.45132  -2.58556  -3.10091
H    -3.47757  -1.38061  -4.43241
H    -1.55930  -2.42466  -0.89766
H    -1.75422  -2.45412   1.74936
H     2.29296  -2.48493   0.99581
H     1.12253  -2.60693  -1.37654
