51
Generated by autodE on: 2022-06-09. E = -2662.538701 Ha
C    -2.32707   3.41109   1.90979
O    -1.48371   2.51273   1.16672
C    -2.08308   1.62532   0.38960
O    -3.28055   1.55755   0.22859
C    -1.06974   0.70638  -0.33504
C    -1.54221   0.74386  -1.83456
C    -0.82183   1.71235  -2.72453
O    -2.49435   0.09117  -2.20043
N     0.29485   1.19278  -0.19545
C     1.24015   0.17910   0.25142
C     1.59689   0.47246   1.73934
O     1.44376   1.58381   2.20149
O     2.18088  -0.52365   2.37516
C     2.60000  -0.27875   3.72827
C     2.59004   0.26390  -0.48551
C     2.82564   1.31682  -1.37685
C     4.04772   1.41723  -2.04760
C     5.04753   0.46508  -1.83502
C     4.81963  -0.58379  -0.93873
C     3.60313  -0.68092  -0.26025
C     0.43369  -1.13492  -0.05518
Cl    0.96195  -2.62594   0.74901
Cl    0.59371  -1.38839  -1.86168
C    -1.04762  -0.75684   0.25956
Cl   -1.10193  -0.56539   2.11355
C    -2.15543  -1.74721  -0.07402
C    -1.93651  -2.93431  -0.78829
C    -2.98910  -3.81781  -1.04941
C    -4.27875  -3.53802  -0.60104
C    -4.50440  -2.36808   0.13181
C    -3.45641  -1.49131   0.39893
H    -2.95544   2.83872   2.60640
H    -1.64667   4.07076   2.45875
H    -2.96045   3.98950   1.22341
H    -0.79250   2.70553  -2.24938
H    -1.34136   1.76546  -3.68962
H     0.22135   1.40075  -2.86937
H     0.35042   2.00519   0.41453
H     1.73092  -0.01602   4.34795
H     3.33757   0.53549   3.75703
H     3.04827  -1.21604   4.07573
H     2.04093   2.05144  -1.54967
H     4.21488   2.24412  -2.74183
H     6.00174   0.54108  -2.36155
H     5.59468  -1.33315  -0.76213
H     3.44674  -1.50083   0.43856
H    -0.95069  -3.19959  -1.15533
H    -2.78528  -4.73378  -1.60845
H    -5.09963  -4.22836  -0.80810
H    -5.50414  -2.13700   0.50638
H    -3.65801  -0.59963   0.98695
