35
Generated by autodE on: 2022-07-27. E = -973.854003 Ha
C    -3.61494   2.35767   1.99398
O    -2.55407   1.58450   1.42505
C    -2.76366   1.07273   0.18662
O    -3.78805   1.30317  -0.43912
C    -1.64202   0.25132  -0.25868
N    -0.63109   0.11624   0.65948
C     0.63476  -0.25910   0.61974
C     1.21066  -0.33306   1.99576
O     0.52861  -0.15938   2.99375
O     2.51392  -0.56957   2.01706
C     3.13714  -0.64935   3.30928
C     1.45103  -0.39658  -0.58921
C     1.34170   0.56353  -1.61279
C     2.15292   0.48406  -2.74281
C     3.06889  -0.56505  -2.87845
C     3.17481  -1.52984  -1.87120
C     2.37935  -1.44424  -0.72913
C    -1.66334  -0.55194  -1.47075
C    -2.71752  -0.29868  -2.52022
O    -0.83734  -1.45900  -1.63427
H    -3.26080   2.67608   2.98148
H    -3.83139   3.23619   1.36894
H    -4.52714   1.75157   2.09700
H    -0.91527   0.38026   1.61581
H     2.68344  -1.45683   3.90125
H     4.19469  -0.86200   3.11800
H     3.02774   0.30552   3.84266
H     0.62461   1.38122  -1.51737
H     2.06683   1.24212  -3.52452
H     3.69814  -0.63090  -3.76901
H     3.88347  -2.35457  -1.97486
H     2.46441  -2.19855   0.05315
H    -2.75671   0.76319  -2.80287
H    -3.71575  -0.56445  -2.14176
H    -2.48077  -0.91770  -3.39593
