16
Generated by autodE on: 2022-06-09. E = -1688.667483 Ha
Cl    1.95262   2.29707  -0.35478
C     0.61903   1.19582  -0.43608
Cl   -0.62137   1.66718  -1.55719
C     0.54934   0.05395   0.27995
Cl    1.90623  -0.38414   1.29853
C    -0.58008  -0.90206   0.28457
C    -0.34433  -2.27083   0.06605
C    -1.40478  -3.17706   0.07598
C    -2.70874  -2.73147   0.31772
C    -2.94725  -1.37389   0.55189
C    -1.89058  -0.46183   0.53662
H     0.67372  -2.62181  -0.11319
H    -1.21155  -4.23696  -0.10423
H    -3.53744  -3.44320   0.32971
H    -3.96111  -1.02153   0.75475
H    -2.07941   0.59496   0.73038
