19
Generated by autodE on: 2022-06-08. E = -585.874058 Ha
C     4.32567   1.30746  -0.18443
N     2.88964   1.08494  -0.17821
C     2.38015  -0.10944   0.13880
O     3.00736  -1.11963   0.45107
C     0.91934  -0.19131   0.10265
N    -0.22477  -0.41122   0.10862
C    -1.55912  -0.42947   0.05130
C    -2.24517  -1.62871   0.34029
N    -2.83896  -2.60678   0.57367
C    -2.20807   0.83180  -0.31978
C    -3.71252   0.81959  -0.38858
O    -1.53574   1.83375  -0.55858
H     4.76002   1.07361   0.79907
H     4.51269   2.36119  -0.41937
H     4.81870   0.67609  -0.93963
H     2.25750   1.84159  -0.43026
H    -4.13964   0.52790   0.58415
H    -4.07292   1.81780  -0.66740
H    -4.05635   0.08039  -1.12967
