33
Generated by autodE on: 2022-06-08. E = -1306.785690 Ha
C     1.14266  -3.77465  -2.77781
O     1.50388  -2.52160  -2.16445
C     1.01736  -1.42054  -2.71330
O     0.30033  -1.37409  -3.68143
C     1.49380  -0.16123  -1.92619
C     2.96357  -0.12195  -1.98016
N     4.11975  -0.06648  -2.04568
C     0.99082  -0.25286  -0.55306
C     0.23912  -0.06486   0.37403
C    -0.83233   0.53181   1.16588
C    -0.22161   1.37564   2.31263
F     0.58564   0.64683   3.09444
F     0.50808   2.38541   1.81957
F    -1.17154   1.90754   3.09260
C    -1.74465  -0.57629   1.74616
F    -1.10251  -1.34284   2.63757
F    -2.17307  -1.38086   0.76359
F    -2.82356  -0.06344   2.34961
C    -1.67517   1.43772   0.19780
C    -0.90464   2.18187  -0.91005
C    -0.58743   1.40288  -2.21787
C     0.89690   1.14784  -2.54378
H     0.05261  -3.90880  -2.74254
H     1.64475  -4.54998  -2.18923
H     1.48889  -3.79661  -3.82035
H    -2.22229   2.15840   0.82198
H    -2.42978   0.79192  -0.27250
H     0.01387   2.62642  -0.50134
H    -1.54659   3.03399  -1.17911
H    -0.97658   1.99402  -3.06024
H    -1.14605   0.45438  -2.24600
H     1.04503   1.07288  -3.62988
H     1.50769   1.98861  -2.18435
