52
Generated by autodE on: 2022-06-08. E = -1892.657617 Ha. Imaginary frequency = -289.4 cm-1
C   -10.87171  -3.04561   7.90562
N   -10.33582  -4.28989   7.37564
C    -9.05295  -4.60870   7.54249
O    -8.22437  -3.99650   8.21235
C    -8.55083  -5.82004   6.82212
N    -8.52176  -7.00571   7.02494
C    -7.79902  -8.10781   6.96610
C    -8.33773  -9.26571   6.34409
N    -8.75474 -10.21990   5.82246
C    -6.61477  -8.15493   7.88374
C    -5.95331  -9.49076   8.05972
O    -6.28458  -7.14961   8.49106
C    -6.45019  -6.43803   5.00416
C    -7.25119  -5.50345   5.15474
C    -7.85424  -4.30236   4.49206
C    -9.29766  -4.52880   4.30391
N   -10.42118  -4.74580   4.12009
C    -7.65797  -3.00356   5.30323
O    -8.50329  -2.14335   5.39899
O    -6.44534  -2.95392   5.82199
C    -6.12133  -1.79664   6.61625
C    -7.21013  -4.08968   3.07941
C    -7.25298  -5.35287   2.20024
C    -5.88669  -5.98945   1.90588
C    -4.90645  -6.18155   3.06638
C    -5.33130  -7.07507   4.28075
C    -5.73764  -8.48924   3.79005
F    -5.74255  -9.40227   4.77334
F    -4.90256  -8.93780   2.84444
F    -6.97136  -8.46692   3.26565
C    -4.08381  -7.16719   5.20388
F    -3.67615  -5.94123   5.55459
F    -4.31104  -7.84286   6.33591
F    -3.06535  -7.77586   4.57827
H   -10.66563  -2.96559   8.98186
H   -11.95569  -3.03561   7.74462
H   -10.41976  -2.18095   7.39416
H   -10.88910  -4.82623   6.71134
H    -6.62384 -10.13028   8.65896
H    -5.00372  -9.36233   8.59330
H    -5.78799  -9.99794   7.10053
H    -6.19925  -0.88577   6.00698
H    -6.80425  -1.73734   7.47443
H    -5.09042  -1.94789   6.95374
H    -6.18011  -3.74973   3.25276
H    -7.74952  -3.25450   2.61086
H    -7.71134  -5.09603   1.23391
H    -7.92157  -6.10153   2.65032
H    -6.04922  -6.94231   1.37964
H    -5.35022  -5.34335   1.19148
H    -4.64558  -5.20608   3.49582
H    -3.97800  -6.60609   2.65971
