41
Generated by autodE on: 2022-05-30. E = -1267.300679 Ha. Imaginary frequency = -334.0 cm-1
C     2.83671  -2.34158   1.70100
N     2.07237  -1.37815   0.93467
C     2.27269  -1.23666  -0.37849
O     3.07164  -1.91365  -1.03467
C     1.41607  -0.23995  -1.12590
F     1.77197  -0.19019  -2.43023
C    -0.31066  -1.59585  -1.55411
C     0.16635  -2.98174  -1.73078
O    -1.04817  -1.36176  -0.50287
C    -1.53217  -0.14372  -0.14325
C    -2.21912   0.75662  -1.07291
C    -2.55138   0.28827  -2.47045
O    -2.54074   1.89125  -0.71547
C    -1.72951  -0.04192   1.31289
O    -2.20489   0.92191   1.88796
O    -1.29046  -1.13121   1.96334
C    -1.34169  -1.07801   3.39372
C     0.73569   0.90521  -0.69882
F     0.39749   1.72964  -1.71031
C     0.62479   1.54499   0.64401
O     0.94975   0.95905   1.68988
N     0.16371   2.80337   0.61073
C    -0.16985   3.55387   1.80565
H     2.43278  -2.38062   2.72039
H     2.76248  -3.34243   1.24969
H     3.90513  -2.07214   1.75339
H     1.51272  -0.65898   1.41331
H    -0.42699  -0.95754  -2.43162
H     0.32985  -3.46945  -0.76017
H    -0.59455  -3.55010  -2.29617
H     1.09051  -2.98502  -2.32333
H    -3.46669   0.80956  -2.78260
H    -2.69586  -0.79829  -2.54973
H    -1.74508   0.58980  -3.15879
H    -0.74154  -0.23500   3.76495
H    -2.37859  -0.97214   3.74439
H    -0.91925  -2.02684   3.74450
H    -0.17438   3.16100  -0.27701
H    -1.26016   3.57317   1.95688
H     0.19405   4.58720   1.71407
H     0.30232   3.08237   2.67459
