24
Generated by autodE on: 2022-06-13. E = -580.265313 Ha
C     3.67944  -0.11564   0.85574
N     2.37590   0.10498   0.26688
C     1.30929  -0.70135   0.48234
O     1.36385  -1.71804   1.19403
C     0.04668  -0.32070  -0.17784
C    -0.33472   0.83327  -0.76022
F     0.41290   1.92776  -0.94316
C    -1.81428   0.82680  -1.02311
C    -2.48499   0.91361   0.39195
C    -2.09639  -0.44286   1.04892
C    -1.24104  -1.13221  -0.06043
C    -1.99412  -0.67656  -1.32941
H     3.64525  -1.02873   1.46103
H     4.45192  -0.23545   0.07920
H     3.97176   0.72624   1.50403
H     2.24722   0.92585  -0.31457
H    -2.16827   1.56227  -1.75534
H    -2.12853   1.78764   0.95492
H    -3.57399   1.00863   0.27251
H    -2.98757  -1.04681   1.27541
H    -1.52245  -0.32330   1.97858
H    -1.08677  -2.20817   0.08048
H    -3.05009  -0.98524  -1.34366
H    -1.49852  -0.98751  -2.26041
