33
Generated by autodE on: 2022-06-05. E = -803.195726 Ha
C     3.81418   0.98431   1.34073
N     3.82535  -0.46827   1.30293
C     3.01045  -1.20574   0.52942
O     2.94576  -2.44206   0.54258
C     2.20307  -0.45214  -0.46065
N     1.01753  -0.18939  -0.34462
C    -0.24165   0.07955  -0.31380
C    -0.65443   1.41521   0.17080
C     0.23788   2.50236   0.08087
C    -0.12030   3.75842   0.56881
C    -1.37289   3.95445   1.16140
C    -2.26122   2.87968   1.26520
C    -1.90844   1.62016   0.77698
C    -1.17190  -0.98562  -0.75280
C    -0.79346  -2.33857  -0.63521
C    -1.63881  -3.35317  -1.08317
C    -2.87731  -3.03964  -1.65384
C    -3.25783  -1.70018  -1.78270
C    -2.41444  -0.67974  -1.33974
H     3.80120   1.39414   0.31922
H     4.72680   1.33517   1.83833
H     2.94195   1.38294   1.88412
H     4.37405  -0.98085   1.98920
H     1.21678   2.35944  -0.38111
H     0.58244   4.59067   0.48395
H    -1.65292   4.93873   1.54355
H    -3.23656   3.01875   1.73745
H    -2.60454   0.78812   0.88601
H     0.16981  -2.59157  -0.18685
H    -1.33106  -4.39632  -0.97962
H    -3.54128  -3.83559  -1.99870
H    -4.21650  -1.44453  -2.24017
H    -2.71496   0.36026  -1.47107
