16
Generated by autodE on: 2022-06-05. E = -743.987485 Ha
F     0.19789   2.31829   0.11656
C     0.55948   1.09044  -0.19610
C    -0.14751  -0.04221  -0.21666
C    -1.54342  -0.31755   0.17254
F    -2.23873   0.80764   0.41187
F    -2.21236  -1.00679  -0.77665
F    -1.60340  -1.07211   1.29444
C     0.92685  -1.11686  -0.52945
C     1.85109  -1.22294   0.70598
C     2.53397  -0.07514   0.72703
C     2.02009   0.70969  -0.50358
O     1.77454  -0.36670  -1.42242
H     0.56173  -2.04541  -0.97995
H     1.86265  -2.05702   1.40634
H     3.25831   0.30062   1.44813
H     2.65285   1.50060  -0.91947
