23
Generated by autodE on: 2022-10-06. E = -833.124376 Ha
C     4.02111   0.63691   1.45742
O     2.63851   0.28644   1.55173
C     1.89933   0.50476   0.44318
O     2.36616   0.94151  -0.60609
N     0.59188   0.21627   0.61088
N     0.08650  -0.42425   1.77124
C    -1.35110  -0.18246   1.62684
C    -1.65535  -0.32330   0.11539
C    -2.85388   0.55102  -0.30608
O    -2.64062   1.78226  -0.46868
O    -3.96675  -0.02851  -0.40604
C    -0.30568   0.05730  -0.53947
C     0.15654  -1.06131  -1.50096
O    -0.35953  -1.03656  -2.64669
O     0.95691  -1.92075  -1.04948
H     4.52146   0.05717   0.66750
H     4.46106   0.39430   2.43262
H     4.14343   1.71063   1.24965
H     0.24294  -1.42955   1.62378
H    -1.91604  -0.88700   2.25038
H    -1.57218   0.84503   1.95591
H    -1.89734  -1.37342  -0.10151
H    -0.39141   1.00597  -1.08327
