13
Generated by autodE on: 2022-10-13. E = -378.020473 Ha
C    -2.87520  -0.40908   0.85863
N    -1.60197  -0.45340   0.65589
N    -0.89670   0.37071  -0.12493
C     0.41589   0.02159  -0.09416
O     0.92791  -0.90470   0.54390
O     1.14017   0.84565  -0.88296
C     2.54388   0.59256  -0.94177
H    -3.31364  -1.15171   1.52459
H    -3.46757   0.36203   0.36288
H    -1.04729  -1.18980   1.13124
H     2.74869  -0.41697  -1.32968
H     3.00680   0.69537   0.05165
H     2.96037   1.34380  -1.62437
