10
Generated by autodE on: 2022-10-06. E = -455.051690 Ha
O     2.88199  -0.64506   0.33253
C     1.96877   0.13148  -0.06467
O     2.14040   1.24588  -0.63106
C     0.54918  -0.34308   0.17187
C    -0.54926   0.34282  -0.17272
C    -1.96876  -0.13145   0.06467
O    -2.14022  -1.24668   0.62950
O    -2.88212   0.64605  -0.33028
H     0.43850  -1.31680   0.66130
H    -0.43857   1.31655  -0.66214
