42
Generated by autodE on: 2022-06-04. E = -2357.299409 Ha
C    -2.17839   3.33525   1.58881
O    -1.21669   2.37213   1.13345
C    -0.13737   2.18533   1.88602
O     0.11577   2.81542   2.88844
C     0.81521   1.14333   1.27934
O     1.61695   1.82853   0.32640
C     1.35154   1.36054  -0.99775
C     0.72176   2.49277  -1.81435
C     2.68285   0.97756  -1.53610
N     3.76334   0.73414  -1.87938
C     0.45012   0.13093  -0.79170
C     0.13977   0.03095   0.51316
C    -0.62387  -1.04960   1.24765
Cl   -1.14791  -0.37968   2.91383
C     0.38698  -2.15834   1.68888
C    -0.17335  -3.47649   2.13170
O     1.57669  -1.91994   1.67518
C    -1.89491  -1.60233   0.59813
C    -2.88270  -0.59047   0.02374
C    -2.43035   0.18957  -1.21940
C    -1.57367  -0.56274  -2.24444
C    -0.05415  -0.72834  -1.93219
Cl    0.85309  -0.37891  -3.48433
Cl    0.40068  -2.48137  -1.58392
H    -2.98488   3.32753   0.84714
H    -1.72211   4.33322   1.65013
H    -2.56345   3.04119   2.57571
H     1.45055   0.76445   2.09330
H     1.40431   3.35438  -1.81234
H     0.52856   2.19106  -2.84999
H    -0.22106   2.77751  -1.32946
H     0.62370  -4.06540   2.60256
H    -1.01508  -3.34567   2.82578
H    -0.55230  -4.01990   1.25093
H    -2.40887  -2.20639   1.35648
H    -1.59625  -2.30985  -0.18426
H    -3.18804   0.12147   0.80745
H    -3.78396  -1.16846  -0.23560
H    -3.33450   0.51238  -1.75857
H    -1.91612   1.11511  -0.93228
H    -1.98672  -1.55726  -2.46718
H    -1.61949   0.00739  -3.17988
