25
Generated by autodE on: 2022-06-04. E = -1843.745251 Ha
C     3.61998  -0.18558   0.58765
C     2.97425  -0.23922  -0.76270
O     3.54781   0.02267  -1.79847
C     1.48206  -0.65465  -0.80573
Cl    1.58114  -2.51454  -0.72560
C     0.66866  -0.20335   0.30296
C    -0.30810   0.21995   0.88201
C    -1.66492   0.70775   0.98233
Cl   -1.62660   2.53314   1.09112
Cl   -2.50106   0.07568   2.46748
C    -2.43410   0.27054  -0.27751
C    -1.72717   0.55162  -1.61888
C    -0.74261  -0.51612  -2.17462
C     0.77027  -0.23255  -2.10227
H     4.71042  -0.12265   0.48318
H     3.33457  -1.05545   1.19694
H     3.25092   0.71349   1.11039
H    -2.61753  -0.81004  -0.17135
H    -3.41152   0.77393  -0.24453
H    -2.53786   0.65701  -2.35495
H    -1.23888   1.53911  -1.57937
H    -0.96934  -0.63126  -3.24483
H    -0.95427  -1.49979  -1.72397
H     0.95695   0.84794  -2.21887
H     1.29296  -0.73252  -2.92947
