17
Generated by autodE on: 2022-07-27. E = -513.410800 Ha
C    -2.46042   1.45124   1.10358
O    -1.40033   0.58614   0.68064
C    -0.55046   0.16079   1.63084
O    -0.69916   0.40512   2.82362
C     0.48976  -0.72248   1.15023
O     0.86023  -0.93950  -0.09542
C     0.82969  -0.22436  -1.19175
C     0.49973   1.21706  -1.25260
C     1.33311  -0.92754  -2.31261
N     1.72595  -1.47822  -3.26491
H    -3.02203   1.70649   0.19734
H    -2.05466   2.36290   1.56630
H    -3.11551   0.93843   1.82283
H     0.91670  -1.44480   1.84470
H     0.87249   1.70938  -0.33606
H     0.98660   1.65705  -2.13392
H    -0.58186   1.41431  -1.30594
