17
Generated by autodE on: 2022-06-04. E = -513.424589 Ha
C     3.42331  -0.13269   0.54445
O     2.00812  -0.04122   0.35017
C     1.48810  -0.82718  -0.61293
O     2.16128  -1.58372  -1.30412
C     0.05926  -0.70192  -0.76051
O    -0.57284   0.13614   0.02761
C    -1.85697   0.38487   0.05614
C    -2.78983  -0.30693  -0.85692
C    -2.23955   1.34473   1.01628
N    -2.59440   2.13640   1.79927
H     3.66350   0.56633   1.35433
H     3.71279  -1.15474   0.83119
H     3.96303   0.15196  -0.37110
H    -0.48517  -1.28474  -1.50128
H    -2.72607  -1.40189  -0.71026
H    -3.82070   0.02281  -0.68133
H    -2.51679  -0.10614  -1.91016
