42
Generated by autodE on: 2022-06-04. E = -2357.164341 Ha. Imaginary frequency = -55.5 cm-1
C    -0.89509   3.13954   1.94928
O     0.12948   2.29923   1.40587
C     0.79853   1.52406   2.25884
O     0.57624   1.49960   3.46431
C     1.78819   0.62278   1.68176
O     2.39448   0.63249   0.52317
C     2.33777   1.23056  -0.63650
C     1.76726   2.57645  -0.92462
C     3.25774   0.64239  -1.55194
N     4.00866   0.17748  -2.31354
C    -0.06060  -0.23796  -0.88533
C    -0.21124  -0.69056   0.23854
C    -0.81847  -1.54103   1.25537
Cl   -2.00499  -0.51857   2.22314
C     0.25255  -2.20170   2.16654
C     0.09843  -2.16174   3.65092
O     1.17650  -2.74974   1.59983
C    -1.58901  -2.66709   0.51544
C    -2.82899  -2.27596  -0.30461
C    -2.79279  -1.10674  -1.30705
C    -1.72216  -1.13993  -2.42042
C    -0.60619  -0.09734  -2.22609
Cl   -1.31106   1.58858  -2.41122
Cl    0.65900  -0.30508  -3.50768
H    -1.33272   3.66601   1.09324
H    -0.46917   3.85926   2.66322
H    -1.66091   2.53170   2.45124
H     2.23084  -0.10342   2.36145
H     2.25998   3.32587  -0.27917
H     1.97154   2.82314  -1.97430
H     0.69082   2.63316  -0.74474
H     0.18088  -1.11748   3.99285
H    -0.89923  -2.51819   3.94901
H     0.88338  -2.77308   4.11353
H    -1.89740  -3.41166   1.26669
H    -0.83312  -3.15173  -0.12072
H    -3.65020  -2.06360   0.39766
H    -3.12301  -3.19266  -0.84290
H    -3.78089  -1.08984  -1.79151
H    -2.72726  -0.15434  -0.76094
H    -1.22376  -2.12113  -2.45771
H    -2.16675  -0.96277  -3.40999
