26
Generated by autodE on: 2022-06-08. E = -557.206170 Ha
C     4.63317   0.27088   0.37965
C     3.11778   0.36944   0.37098
O     2.57548   1.23737   1.11448
C     2.44290  -0.53057  -0.47274
N     1.06083  -0.64132  -0.59905
C     0.61781  -1.73061  -1.48918
C     0.19508   0.15646   0.00487
C    -1.25500   0.08988   0.02634
C    -2.05076  -1.06794  -0.14210
C    -3.44100  -0.99108  -0.05942
C    -4.07650   0.22875   0.19401
C    -3.30406   1.37981   0.38845
C    -1.91579   1.30903   0.31744
H     5.02597  -0.50433  -0.29319
H     4.97585   0.06074   1.40664
H     5.06237   1.24547   0.09310
H     3.00220  -1.23504  -1.08110
H     1.40594  -1.91655  -2.22586
H     0.44472  -2.64744  -0.91001
H    -0.29974  -1.43953  -2.01004
H     0.66881   0.97331   0.54916
H    -1.59204  -2.04138  -0.30071
H    -4.03416  -1.89973  -0.18618
H    -5.16604   0.27970   0.25303
H    -3.78763   2.33607   0.60107
H    -1.31578   2.20782   0.47811
