26
Generated by autodE on: 2022-07-27. E = -557.206163 Ha
C    -0.55480   4.34311  -1.58495
C    -0.59225   2.92155  -1.05177
O    -1.69382   2.48200  -0.61188
C     0.62117   2.21213  -1.09373
N     0.82077   0.91769  -0.62154
C     2.21414   0.44385  -0.71846
C    -0.14077   0.15043  -0.13418
C    -0.05185  -1.16819   0.46583
C    -1.25218  -1.92151   0.45470
C    -1.31291  -3.19394   1.01543
C    -0.18121  -3.74656   1.62644
C     1.00343  -3.00493   1.67752
C     1.07490  -1.73320   1.10911
H    -0.87614   5.03607  -0.78950
H     0.43644   4.65029  -1.94686
H    -1.28288   4.44175  -2.40740
H     1.51333   2.67825  -1.50098
H     2.75254   0.65578   0.21496
H     2.23106  -0.63104  -0.92374
H     2.70292   0.97472  -1.54183
H    -1.13130   0.59795  -0.21564
H    -2.13993  -1.49041  -0.01401
H    -2.24837  -3.75707   0.98088
H    -0.22615  -4.74318   2.07127
H     1.88446  -3.41722   2.17489
H     2.00224  -1.17322   1.20480
