55
Generated by autodE on: 2022-06-08. E = -6283.846963 Ha. Imaginary frequency = -221.4 cm-1
C    -1.54100  -2.54528   3.64154
O    -0.23339  -2.14182   4.06921
C     0.35484  -2.85576   5.02820
O    -0.16851  -3.81415   5.56001
C     1.72155  -2.28838   5.43283
C     2.60011  -3.42821   5.97289
C     1.45480  -1.28458   6.61155
C     0.92472   0.10319   6.21732
C     1.94410   1.24250   6.35613
C     3.30824   1.10421   5.66353
C     3.29986   0.81423   4.15749
Br    2.22020   2.22581   3.23338
Br    5.20912   1.02297   3.51498
C     2.82203  -0.51483   3.82504
C     2.35642  -1.56885   4.30144
C     2.42416  -3.04637   2.34577
C     2.48594  -4.46187   2.70261
C     1.23812  -5.12731   2.73083
C     1.13109  -6.45795   3.12729
C     2.27384  -7.16980   3.50545
C     3.51697  -6.52906   3.48870
C     3.62783  -5.19397   3.10022
N     3.36994  -2.28790   1.77472
C     4.78400  -2.67259   1.77703
C     3.11537  -0.96003   1.51015
C     1.83635  -0.47376   1.02799
C     1.89045   0.76711   0.16253
O     0.74567  -1.04103   1.20939
H    -1.53688  -3.59972   3.33294
H    -1.78679  -1.90021   2.79045
H    -2.26856  -2.40375   4.45395
H     3.60012  -3.03869   6.21069
H     2.70299  -4.24440   5.25074
H     2.15489  -3.83348   6.89251
H     2.40691  -1.18402   7.15536
H     0.76187  -1.78609   7.30494
H     0.52336   0.08053   5.19384
H     0.06910   0.35735   6.86260
H     2.17214   1.38102   7.42688
H     1.47105   2.17887   6.02204
H     3.87359   2.03150   5.83461
H     3.88906   0.28752   6.12003
H     1.42496  -2.64379   2.21871
H     0.34160  -4.57709   2.43935
H     0.15130  -6.94073   3.14189
H     2.19621  -8.21346   3.81842
H     4.41401  -7.07038   3.79826
H     4.60390  -4.72093   3.15783
H     5.18295  -2.64170   2.80159
H     4.90280  -3.67979   1.36236
H     5.34251  -1.96896   1.15179
H     3.99049  -0.40132   1.19010
H     2.78110   1.38099   0.34529
H     1.91368   0.43478  -0.89067
H     0.98211   1.36828   0.30629
