51
Generated by autodE on: 2022-06-08. E = -3922.753127 Ha
C     2.56070  -1.54818   5.16835
O     1.66090  -1.83669   4.08494
C     0.38843  -1.51792   4.26093
O    -0.04006  -0.96513   5.25166
C    -0.50093  -1.94719   3.06494
C    -0.31542  -0.90070   1.92579
C    -1.14604  -1.09256   0.69251
O     0.51902  -0.02642   2.03886
C    -1.94755  -2.09235   3.54723
C    -2.28137  -3.39281   3.65674
C    -3.61586  -4.03386   3.95741
Br   -4.41594  -4.42781   2.12163
C    -3.47867  -5.33322   4.77444
C    -4.42127  -6.47831   4.56312
O    -2.63738  -5.33673   5.65341
C    -4.70441  -3.20788   4.68204
C    -4.38673  -2.73218   6.10321
C    -3.17590  -1.81390   6.26240
C    -3.12886  -0.60893   5.32227
C    -2.77494  -0.86258   3.85404
F    -3.90728  -0.88285   3.06211
F    -2.08602   0.24203   3.39422
C    -1.02684  -4.23786   3.30069
C    -1.22710  -5.55151   2.54115
C    -0.26723  -4.52517   4.56345
N     0.46609  -4.66273   5.45332
N    -0.25071  -3.27508   2.52502
C     1.05845  -3.65669   2.02323
H     2.25824  -2.10892   6.06413
H     2.56313  -0.47112   5.38587
H     3.55059  -1.87390   4.83024
H    -1.22189  -0.13949   0.15279
H    -2.14332  -1.49219   0.91979
H    -0.63509  -1.82336   0.04396
H    -5.45308  -6.13532   4.40370
H    -4.12229  -7.03406   3.66003
H    -4.36615  -7.14703   5.43139
H    -5.60173  -3.84132   4.72427
H    -4.97000  -2.35847   4.04796
H    -4.27240  -3.59421   6.77818
H    -5.28774  -2.19401   6.44168
H    -3.18324  -1.42067   7.29084
H    -2.24104  -2.38615   6.17079
H    -2.35709   0.08127   5.68321
H    -4.08667  -0.06412   5.32261
H    -1.84582  -6.25825   3.10650
H    -0.25355  -6.03446   2.38330
H    -1.69263  -5.35273   1.56917
H     1.73773  -4.03916   2.80498
H     0.94686  -4.42610   1.24592
H     1.53730  -2.78393   1.56184
