25
Generated by autodE on: 2022-06-08. E = -3237.023070 Ha
C    -2.38684   0.48765  -2.15750
C    -1.22989  -0.46438  -2.12708
O    -1.07185  -1.35913  -2.93062
C    -0.20849  -0.29129  -0.97966
Br    1.03506   1.13610  -1.72974
C    -0.72861   0.20849   0.26891
C    -0.88596   0.35614   1.46179
C    -0.59004   0.01161   2.85619
F    -1.56819  -0.82827   3.33357
F    -0.61001   1.10543   3.67725
C     0.76981  -0.67388   2.92867
C     0.98107  -1.83711   1.93999
C     1.54939  -1.51523   0.52861
C     0.59370  -1.56836  -0.67818
H    -3.09937   0.18117  -1.37235
H    -2.07365   1.51583  -1.92638
H    -2.88620   0.44289  -3.13356
H     0.86287  -1.03297   3.96608
H     1.53183   0.10649   2.77897
H     0.04591  -2.41500   1.85160
H     1.69658  -2.51534   2.42723
H     2.32788  -2.26336   0.31872
H     2.07376  -0.54532   0.54373
H    -0.15488  -2.36441  -0.52537
H     1.14250  -1.83162  -1.59284
