51
Generated by autodE on: 2022-06-08. E = -3922.649364 Ha. Imaginary frequency = -115.9 cm-1
C     3.05585  -2.10752   5.19523
O     2.16841  -2.32431   4.09111
C     1.12275  -1.48348   3.98653
O     1.00173  -0.49912   4.68650
C     0.20851  -1.87862   2.87989
C    -0.17597  -0.79870   1.94728
C    -1.32745  -0.97618   0.97939
O     0.38586   0.29387   2.00716
C    -2.11377  -2.01451   3.89482
C    -2.47469  -3.19392   3.82305
C    -3.58353  -4.13692   3.84580
Br   -3.69204  -5.00609   1.99165
C    -3.41925  -5.35348   4.77581
C    -4.62084  -6.22442   5.00781
O    -2.35308  -5.55936   5.31905
C    -4.88111  -3.32644   4.05430
C    -5.05126  -2.71119   5.46272
C    -3.87260  -2.02972   6.18101
C    -3.30939  -0.70616   5.64813
C    -2.69126  -0.70380   4.25082
F    -3.67384  -0.41815   3.31005
F    -1.81250   0.33839   4.14370
C    -0.07758  -4.17926   3.45471
C    -0.06101  -5.63098   3.08737
C     0.04521  -3.87858   4.84754
N     0.17506  -3.71478   5.99240
N     0.11295  -3.21223   2.54137
C     0.09118  -3.63039   1.12668
H     2.50258  -2.14690   6.14438
H     3.55644  -1.13313   5.10161
H     3.79316  -2.91765   5.15329
H    -2.01806  -0.13876   1.15830
H    -1.88376  -1.91223   1.08602
H    -0.95568  -0.88271  -0.05278
H    -5.26546  -6.31115   4.12440
H    -4.28860  -7.21583   5.34194
H    -5.21771  -5.76837   5.81579
H    -5.74769  -3.97320   3.85684
H    -4.88688  -2.54001   3.28877
H    -5.40015  -3.50830   6.13808
H    -5.88794  -1.99710   5.38416
H    -4.22518  -1.81062   7.20149
H    -3.04558  -2.74406   6.31055
H    -2.51083  -0.37669   6.32952
H    -4.08038   0.08117   5.63801
H    -0.31003  -6.23596   3.96547
H     0.94468  -5.92083   2.73472
H    -0.78200  -5.85774   2.29138
H     0.81814  -4.44158   0.99440
H    -0.90629  -3.98843   0.84041
H     0.39807  -2.79677   0.49363
