44
Generated by autodE on: 2022-06-22. E = -1183.086994 Ha
C    -2.15738   1.80921   1.34253
O    -1.87635   0.84264   0.31118
C    -1.61840  -0.39708   0.68793
O    -1.66845  -0.80411   1.82709
C    -1.18356  -1.28013  -0.51833
C    -1.58912  -2.65687  -0.17016
N    -1.94208  -3.73590   0.06362
N    -1.70514  -0.91426  -1.81161
C    -3.13375  -0.71197  -1.95329
C    -0.82666   0.05511  -2.46876
C     0.47187   0.10969  -1.63479
C     1.72912   0.17969  -2.52406
C     0.52201   1.40414  -0.81533
O     0.14022   2.46395  -1.29249
C     1.13321   1.38884   0.52799
O     1.22983   2.55779   1.19450
C     1.92332   3.66473   0.59636
C     1.46412   0.22067   1.16645
O     2.04966   0.10929   2.36092
C     2.88923   1.14725   2.88658
C     1.13254  -1.10304   0.58225
O     1.43193  -2.12206   1.18156
C     0.39029  -1.17432  -0.75147
C     0.88791  -2.41692  -1.50320
H    -2.23554   2.77298   0.82905
H    -3.10233   1.55537   1.84167
H    -1.33778   1.82601   2.07298
H    -3.68021  -1.53870  -1.47455
H    -3.48722   0.24112  -1.51699
H    -3.39632  -0.71670  -3.02207
H    -1.28498   1.05529  -2.51841
H    -0.61556  -0.26105  -3.50277
H     1.70888   1.11644  -3.09931
H     1.75657  -0.65642  -3.23369
H     2.64602   0.16563  -1.91670
H     2.43940   4.18588   1.41494
H     2.66700   3.31471  -0.13409
H     1.21564   4.34799   0.10905
H     3.50094   0.66265   3.65859
H     3.54123   1.55521   2.09995
H     2.29380   1.95283   3.33351
H     0.38134  -2.52036  -2.47017
H     0.71357  -3.32159  -0.90994
H     1.96865  -2.33889  -1.67757
