18
Generated by autodE on: 2022-06-22. E = -493.588539 Ha
C    -1.94025   1.54641   0.50309
N    -1.66193   0.31951   0.17343
C    -2.78375  -0.62858  -0.00255
C    -0.37683  -0.21174  -0.03676
C    -0.26709  -1.56467  -0.40768
N    -0.15886  -2.68839  -0.71663
C     0.81370   0.58455   0.11436
O     0.86870   1.77117   0.43168
O     1.93316  -0.13738  -0.14056
C     3.17788   0.55445  -0.02120
H    -2.98723   1.81589   0.63375
H    -1.13006   2.25837   0.63620
H    -2.77063  -1.01639  -1.02850
H    -2.66737  -1.45941   0.70431
H    -3.72438  -0.10394   0.18817
H     3.32183   0.93299   1.00196
H     3.22992   1.39672  -0.72742
H     3.95599  -0.18080  -0.25949
