26
Generated by autodE on: 2022-06-22. E = -689.460855 Ha
C     3.06637  -1.07705  -0.04286
O     2.22018  -0.26547   0.77849
C     0.92535  -0.14171   0.36271
C     0.41915   1.00991  -0.16192
O     1.03556   2.16486  -0.41191
C     2.44283   2.34723  -0.22358
C    -1.04027   1.08810  -0.52384
O    -1.47794   2.13252  -0.98686
C    -1.90918  -0.10052  -0.32615
C    -3.34926   0.01924  -0.71920
C    -1.39304  -1.24328   0.19033
C    -2.22803  -2.46580   0.40567
C     0.04597  -1.30933   0.58683
O     0.50700  -2.32263   1.10957
H     4.06147  -1.06139   0.42114
H     2.70289  -2.11404  -0.09243
H     3.13237  -0.66165  -1.06220
H     2.64434   3.37881  -0.53901
H     2.72159   2.21809   0.83001
H     3.01663   1.65250  -0.85353
H    -3.57560   1.02402  -1.09481
H    -3.60149  -0.71544  -1.50180
H    -4.00725  -0.19600   0.13858
H    -3.06268  -2.25078   1.09368
H    -2.68167  -2.79959  -0.54210
H    -1.63052  -3.28522   0.82181
