22
Generated by autodE on: 2022-07-27. E = -550.191434 Ha
C     3.36765  -0.70250  -2.02485
N     1.97777  -0.51203  -1.67442
C     1.56007  -0.53600  -0.38396
O     2.32721  -0.81447   0.54964
N     0.22747  -0.14176  -0.29189
N    -0.46811  -0.44299   0.76774
C    -0.03806  -1.49310   1.73732
C    -1.64806   0.12446   1.02135
C    -2.27165   1.21216   0.27290
C    -3.60283   1.65231   0.84132
O    -1.79299   1.74996  -0.72518
H     3.45542  -0.76121  -3.11697
H     4.00486   0.12507  -1.66617
H     3.75677  -1.63604  -1.59112
H     1.32605  -0.17119  -2.37229
H    -0.90372  -1.76968   2.34519
H     0.76638  -1.09467   2.36196
H     0.33088  -2.35912   1.17792
H    -2.17270  -0.26887   1.88833
H    -4.31887   0.81399   0.82389
H    -3.99931   2.48853   0.25108
H    -3.49168   1.95863   1.89428
