34
Generated by autodE on: 2022-06-17. E = -707.473910 Ha. Imaginary frequency = -366.0 cm-1
C     3.79006  -0.22521  -1.83786
N     2.40139  -0.31999  -1.44205
C     1.98843   0.06501  -0.20629
O     2.78729   0.42246   0.67519
N     0.61015   0.07323  -0.06566
C    -0.64821  -1.38978  -0.99459
C     0.04383  -2.65944  -0.58275
C    -1.89895  -1.04119  -0.46866
C    -2.88451  -0.28024  -1.32082
C    -1.21500   0.33917   1.23112
C    -1.79818   1.56409   0.65755
C    -3.16442   1.91555   1.19879
O    -1.23617   2.28982  -0.15788
N     0.10574   0.04675   1.16421
C     0.68079  -0.81091   2.21951
H     4.44056  -0.71160  -1.09566
H     3.92100  -0.73333  -2.80185
H     4.12626   0.82127  -1.94575
H     1.69804  -0.50806  -2.14701
H    -0.42072  -1.02248  -2.00059
H    -0.15470  -2.90267   0.47158
H    -0.34006  -3.50114  -1.18789
H     1.13105  -2.62018  -0.74058
H    -2.32417  -1.71649   0.28082
H    -3.72584   0.12149  -0.73935
H    -3.31721  -0.94223  -2.09244
H    -2.39972   0.55789  -1.84523
H    -1.71356  -0.03675   2.12561
H    -3.76001   1.02362   1.43944
H    -3.69769   2.55490   0.48248
H    -3.02577   2.48159   2.13688
H    -0.12046  -1.40106   2.68341
H     1.16166  -0.18929   2.98744
H     1.42647  -1.48574   1.79007
