31
Generated by autodE on: 2022-05-28. E = -826.231306 Ha
C    -3.37214   0.51534   1.93812
C    -3.08613  -0.03110   0.56742
O    -3.94204  -0.60364  -0.10224
C    -1.73612   0.13219   0.01091
C    -0.67025   0.79399   0.48954
F    -0.58884   1.43342   1.64188
C     0.49902   0.81723  -0.44529
C     1.83832   0.52892   0.20128
C     1.99029  -0.56233   1.06973
C     3.23080  -0.83470   1.64840
C     4.33468  -0.02397   1.35699
C     4.19051   1.06123   0.48866
C     2.94452   1.33714  -0.08424
N     0.09285  -0.18359  -1.44520
C     0.60971   0.05368  -2.78009
C    -1.36446  -0.35592  -1.37642
C    -1.73136  -1.76197  -1.63059
N    -1.96922  -2.87300  -1.86436
H    -3.21940   1.60638   1.94944
H    -4.40717   0.28159   2.21826
H    -2.67503   0.08567   2.67461
H     0.54697   1.83644  -0.88570
H     1.13198  -1.20146   1.29256
H     3.33912  -1.68255   2.32900
H     5.30597  -0.23926   1.80876
H     5.04880   1.69604   0.25615
H     2.82671   2.18760  -0.76066
H     0.22853   0.99588  -3.22376
H     0.33193  -0.77996  -3.44210
H     1.70763   0.10633  -2.74587
H    -1.90343   0.24972  -2.13526
