22
Generated by autodE on: 2022-07-26. E = -496.757802 Ha
C    -2.01616   0.74564  -2.77325
N    -1.38600   0.25298  -1.53105
C    -2.05049  -0.80842  -0.95621
C    -1.99376  -1.08729   0.40284
N    -1.95336  -1.33024   1.55291
C    -0.30870   0.89680  -1.09967
C     0.65152   0.50063  -0.08822
C     0.92839  -0.83583   0.28515
C     1.96109  -1.12155   1.17774
C     2.72381  -0.09349   1.74147
C     2.46513   1.23443   1.37898
C     1.45370   1.52621   0.46840
H    -3.01629   1.13759  -2.54513
H    -2.11082  -0.09450  -3.47425
H    -1.39048   1.52320  -3.22260
H    -2.78878  -1.30919  -1.57947
H    -0.12018   1.84459  -1.60460
H     0.36278  -1.65695  -0.15231
H     2.16764  -2.16187   1.44025
H     3.51873  -0.32513   2.45402
H     3.06096   2.04524   1.80478
H     1.26706   2.56187   0.17373
