22
Generated by autodE on: 2022-05-28. E = -496.760431 Ha
C     2.07643   0.84546  -2.05703
N     1.15845   0.21160  -1.08656
C     1.45262  -1.08205  -0.73691
C     2.59288  -1.72433  -1.21253
N     3.54850  -2.30231  -1.58239
C     0.13112   0.94638  -0.67290
C    -0.86889   0.65100   0.33101
C    -2.02747   1.46935   0.30839
C    -3.04526   1.30983   1.24251
C    -2.93462   0.33839   2.24602
C    -1.78894  -0.46012   2.30198
C    -0.76941  -0.31699   1.35930
H     3.08865   0.86915  -1.63289
H     1.74254   1.86684  -2.26093
H     2.08758   0.25892  -2.98474
H     0.72978  -1.64817  -0.15962
H     0.02883   1.89972  -1.18874
H    -2.11623   2.23573  -0.46559
H    -3.93043   1.94833   1.19247
H    -3.73282   0.21042   2.98060
H    -1.68257  -1.20793   3.09147
H     0.11893  -0.93669   1.45979
