31
Generated by autodE on: 2022-05-28. E = -826.101619 Ha. Imaginary frequency = -309.4 cm-1
C    -3.66908  -0.14114   1.22498
C    -3.14569   0.56017  -0.00301
O    -3.82661   0.66365  -1.02947
C    -1.86068   1.19016   0.10495
C    -0.73367   1.69091   0.04154
F     0.08476   2.67505   0.27140
C     0.77014   0.34288  -1.09913
C     1.78084  -0.07663  -0.11738
C     2.10598  -1.42617   0.13102
C     3.15013  -1.75969   0.99492
C     3.89074  -0.76131   1.63347
C     3.59533   0.58229   1.37625
C     2.56341   0.92114   0.50379
N    -0.20350  -0.43780  -1.61908
C    -0.77756  -0.00937  -2.91114
C    -0.96623  -1.32561  -0.94796
C    -0.78777  -1.69072   0.39375
N    -0.70860  -2.02767   1.51081
H    -4.07114   0.62417   1.91127
H    -4.48347  -0.82369   0.94461
H    -2.87638  -0.68005   1.76176
H     1.07238   1.15530  -1.76145
H     1.56918  -2.22765  -0.37591
H     3.38668  -2.81253   1.16556
H     4.70099  -1.02720   2.31608
H     4.17906   1.37329   1.85289
H     2.35575   1.97124   0.29643
H    -1.62612   0.66065  -2.71382
H    -1.13097  -0.89349  -3.45428
H    -0.01037   0.50281  -3.49972
H    -1.74137  -1.83995  -1.51440
