31
Generated by autodE on: 2022-06-17. E = -726.270903 Ha
C     3.94597   1.00988  -0.16123
N     2.49744   0.94809  -0.16543
C     1.83957  -0.15738   0.21859
O     2.40158  -1.20346   0.55510
C     0.32672  -0.07465   0.14455
N    -0.39437  -0.98563   1.04319
C    -1.71202  -0.52439   0.69916
C    -2.84780  -0.97412   1.56650
O    -1.59156   0.98695   0.82477
C    -0.34044   1.27352   0.45806
O     0.09290   2.40259   0.35533
C    -1.76455  -0.79859  -0.81855
C    -2.84343  -0.04936  -1.58499
C    -0.30239  -0.46193  -1.24871
C     0.41528  -1.61312  -1.93952
H     4.36863   0.15178  -0.70369
H     4.26513   1.93524  -0.65633
H     4.35393   0.99738   0.86342
H     1.95560   1.80347  -0.27716
H    -0.17690  -0.78598   2.02279
H    -2.95898  -2.06462   1.48512
H    -2.65850  -0.71001   2.61746
H    -3.78513  -0.49992   1.24453
H    -1.92766  -1.88148  -0.92521
H    -2.79117  -0.30202  -2.65527
H    -2.72298   1.04009  -1.48716
H    -3.84886  -0.31859  -1.22548
H    -0.28489   0.42239  -1.90259
H    -0.15925  -1.92779  -2.82489
H     0.51508  -2.47823  -1.26843
H     1.41991  -1.31780  -2.27831
