12
Generated by autodE on: 2022-06-17. E = -157.300302 Ha
C     1.95319   0.05358  -0.19927
C     0.51681  -0.37385  -0.20456
C    -0.51680   0.37382   0.20463
C    -1.95320  -0.05356   0.19922
H     2.57054  -0.62412   0.41688
H     2.07337   1.07636   0.19130
H     2.38405   0.02141  -1.21587
H     0.31357  -1.38683  -0.57945
H    -0.31357   1.38679   0.57953
H    -2.38433  -0.02074   1.21567
H    -2.07331  -1.07656  -0.19079
H    -2.57036   0.62379  -0.41752
