64
Generated by autodE on: 2022-12-31. E = -2232.764846 Ha
C     5.86855  27.64529 -15.03890
N     4.68485  26.93647 -15.48778
C     3.46506  27.28848 -15.07607
O     3.26733  28.25238 -14.32430
C     2.27505  26.38626 -15.49250
C     2.60676  25.63851 -16.81620
O     3.47484  24.75549 -16.80260
N     1.98996  26.02595 -17.94081
C     2.14874  25.29724 -19.18502
C     2.21220  25.32697 -14.32832
C     1.26778  25.64668 -13.15787
C    -0.00542  24.79368 -13.14745
C    -1.15218  25.12718 -14.11623
C    -0.78782  25.43183 -15.57926
Cl   -2.46448  25.28334 -16.51351
O     0.08591  24.58345 -16.19384
C    -0.14246  23.17748 -16.14466
C    -0.25793  26.84687 -15.77868
C     1.02623  27.22967 -15.65560
C     1.08016  28.75039 -15.84022
C     2.13700  29.20172 -16.76123
N     2.94203  29.54095 -17.52177
C     1.10039  29.50697 -14.48481
O     0.42516  29.14074 -13.54946
O     1.77565  30.63812 -14.55213
C     1.80125  31.44970 -13.36346
O    -0.16480  29.08475 -16.43822
C    -1.10638  28.04274 -16.20798
C    -1.77251  27.84795 -17.59069
O    -2.86659  28.27024 -17.87981
O    -0.91922  27.26799 -18.42343
C    -1.37630  26.99984 -19.75992
C    -2.16518  28.51300 -15.18334
O    -2.87895  27.76690 -14.55557
O    -2.18894  29.83280 -15.09121
C    -3.08918  30.39314 -14.11960
H     5.76370  28.72392 -15.22590
H     6.04379  27.49930 -13.96051
H     6.73657  27.26965 -15.59389
H     4.77670  26.06899 -16.01417
H     1.16519  26.61559 -17.87074
H     3.19512  24.99159 -19.31132
H     1.86108  25.94670 -20.02190
H     1.51502  24.39396 -19.20129
H     3.23678  25.21334 -13.95248
H     1.95422  24.35523 -14.75952
H     1.02723  26.71905 -13.11324
H     1.80794  25.42456 -12.22520
H     0.29551  23.74283 -13.28617
H    -0.45303  24.84392 -12.14182
H    -1.71278  25.99832 -13.75833
H    -1.85633  24.28333 -14.11425
H    -1.07460  22.92895 -16.67415
H    -0.19014  22.80060 -15.11379
H     0.71108  22.72186 -16.66153
H     2.39276  32.33559 -13.61863
H     2.27660  30.89210 -12.54425
H     0.77952  31.73632 -13.07848
H    -0.53361  26.52238 -20.27142
H    -1.65471  27.93626 -20.26249
H    -2.23934  26.32009 -19.72494
H    -2.97290  31.47969 -14.19683
H    -4.12422  30.09905 -14.34243
H    -2.81219  30.04809 -13.11337
