38
Generated by autodE on: 2022-12-31. E = -1302.595213 Ha
C     2.48006  -3.16758  -2.20490
N     1.93419  -1.96160  -1.61147
C     1.80342  -1.82273  -0.28414
O     2.09992  -2.70019   0.52455
C     1.23073  -0.44444   0.17737
C     2.15615   0.64322  -0.42774
O     1.97210   1.03614  -1.58482
N     3.17311   1.06562   0.33048
C     4.13405   2.03755  -0.15999
C    -0.12114  -0.22911  -0.33096
C    -1.29574   0.06919  -0.34529
C    -2.52007   0.58628   0.25861
Cl   -3.34434   1.75752  -0.99024
O    -3.42814  -0.37679   0.63228
C    -3.77298  -1.35454  -0.34445
C    -2.13445   1.41980   1.48797
C    -1.21032   0.69903   2.49291
C     0.32822   0.81024   2.29774
C     1.08212  -0.40791   1.72193
H     1.92108  -4.05388  -1.86924
H     3.53872  -3.30866  -1.93227
H     2.40286  -3.09150  -3.29615
H     1.73569  -1.15671  -2.20049
H     3.26177   0.72487   1.28076
H     3.64716   2.99919  -0.38589
H     4.89777   2.19785   0.61016
H     4.62116   1.67704  -1.07883
H    -4.23949  -0.87662  -1.22058
H    -2.88566  -1.92332  -0.66781
H    -4.49071  -2.03414   0.13184
H    -3.08217   1.69430   1.97598
H    -1.66021   2.34676   1.13705
H    -1.44240   1.14161   3.47346
H    -1.50742  -0.35978   2.57116
H     0.56429   1.71488   1.71273
H     0.76226   0.98687   3.29322
H     2.08507  -0.48230   2.16961
H     0.56991  -1.33481   2.01611
