26
Generated by autodE on: 2022-12-31. E = -930.037593 Ha
C     3.80484   1.40308   1.56541
O     2.56834   0.88750   1.04335
C     2.47176  -0.43273   0.94374
O     3.34042  -1.22939   1.24584
C     1.16709  -0.86813   0.40259
C     0.90061  -2.25561   0.33396
N     0.75333  -3.41071   0.38182
O     0.30859   0.07930   0.15688
C    -0.89098   0.23323  -0.31570
C    -1.39518   1.62479  -0.25185
O    -2.45584   1.98138  -0.72598
O    -0.54406   2.42949   0.38497
C    -0.92344   3.81096   0.48237
C    -1.55084  -0.87081  -1.04302
O    -0.90176  -1.77086  -1.54566
O    -2.86779  -0.75618  -1.10741
C    -3.56397  -1.75855  -1.87087
H     4.64475   1.10128   0.92367
H     3.96992   1.03377   2.58762
H     3.69619   2.49323   1.56592
H    -1.03548   4.24869  -0.52006
H    -1.86928   3.91013   1.03411
H    -0.11092   4.30599   1.02578
H    -4.62478  -1.49192  -1.81307
H    -3.39187  -2.75300  -1.43527
H    -3.22011  -1.74684  -2.91474
