64
Generated by autodE on: 2022-12-31. E = -2232.641984 Ha. Imaginary frequency = -246.0 cm-1
C     5.32791  28.06877 -13.58161
N     4.52790  27.42116 -14.60203
C     3.23512  27.15731 -14.41591
O     2.63180  27.39648 -13.36251
C     2.47387  26.44956 -15.57333
C     3.09379  26.61064 -16.98701
O     4.31941  26.64703 -17.15571
N     2.23266  26.60869 -18.00895
C     2.67285  26.73558 -19.38432
C     2.51939  24.88679 -15.33951
C     1.77442  24.29700 -14.14020
C     0.24727  24.09252 -14.27738
C    -0.64032  25.15010 -13.59898
C    -1.21233  26.22805 -14.53211
Cl   -1.98459  27.48209 -13.31047
O    -2.14531  25.82026 -15.44753
C    -3.27609  25.07683 -15.00332
C    -0.12827  26.90217 -15.26603
C     1.08321  26.89932 -15.50044
C     1.08542  29.29346 -16.53463
C     2.26902  29.52687 -17.28853
N     3.23835  29.74628 -17.89489
C     1.00635  29.83580 -15.15596
O     0.03416  29.82536 -14.43586
O     2.21482  30.28463 -14.79720
C     2.36124  30.71968 -13.43581
O     0.08858  28.82386 -17.26659
C    -1.09992  28.37963 -16.89946
C    -1.65082  27.37146 -17.86382
O    -2.82919  27.18628 -18.07518
O    -0.67043  26.68026 -18.44757
C    -1.06068  25.63937 -19.35936
C    -2.04465  29.33187 -16.23899
O    -1.84274  30.52880 -16.21845
O    -3.13586  28.73514 -15.79775
C    -4.11509  29.56370 -15.15667
H     6.38512  28.01224 -13.86881
H     5.05019  29.12918 -13.46341
H     5.19406  27.57250 -12.60927
H     4.90485  27.21179 -15.53034
H     1.22885  26.56783 -17.84048
H     3.41696  27.54021 -19.47328
H     1.80337  26.98427 -20.00525
H     3.12385  25.80105 -19.75587
H     3.58867  24.63782 -15.27362
H     2.13702  24.41759 -16.25853
H     1.99870  24.87197 -13.22804
H     2.22781  23.30530 -13.98606
H     0.00088  23.12886 -13.80739
H    -0.03167  23.98212 -15.33879
H    -1.49293  24.67695 -13.09216
H    -0.06673  25.67518 -12.82448
H    -3.76168  25.58239 -14.15488
H    -3.00007  24.04981 -14.71907
H    -3.96677  25.04713 -15.85559
H     3.39232  31.07912 -13.34735
H     2.19119  29.87452 -12.75555
H     1.65218  31.53035 -13.21706
H    -0.12700  25.18595 -19.70958
H    -1.62365  26.06387 -20.20196
H    -1.67701  24.89625 -18.83436
H    -4.50799  30.30783 -15.86399
H    -4.91230  28.88690 -14.83092
H    -3.66935  30.07372 -14.29131
