59
Generated by autodE on: 2022-06-30. E = -3842.711842 Ha
C    -0.59237  -2.76055   2.19829
C    -1.33882  -1.71693   1.41626
O    -2.53918  -1.56485   1.53736
C    -0.54259  -0.91632   0.35306
C    -0.93557  -1.62071  -0.95977
C    -2.27318  -1.64718  -1.38671
C    -2.62901  -2.27435  -2.58157
C    -1.65703  -2.90334  -3.36586
C    -0.32924  -2.91011  -2.93242
C     0.02718  -2.28078  -1.73648
N     0.89469  -1.05499   0.58447
N     1.47840   0.03301  -0.09219
C     2.81915  -0.09537  -0.48644
C     3.42301  -1.36996  -0.47937
C     4.74602  -1.52943  -0.89077
C     5.50649  -0.43123  -1.30320
C     4.91937   0.83661  -1.28442
C     3.59603   1.01363  -0.87645
C     0.71356   1.20264   0.02197
Br    1.61897   2.47110   1.48951
C     0.53993   2.03504  -1.27080
C    -0.19984   3.35207  -0.99915
C    -1.62200   2.87188  -0.60770
C    -1.55360   1.32821  -0.77788
C    -0.57277   1.22871  -1.96067
C    -0.75874   0.69652   0.40421
C    -1.32266   1.02062   1.78604
C    -2.66771   1.39760   1.92797
C    -3.25616   1.54226   3.18661
C    -2.51564   1.29648   4.34523
C    -1.18342   0.89565   4.22398
C    -0.59906   0.75965   2.96253
H     0.01167  -3.38649   1.52486
H    -1.30925  -3.37520   2.75720
H     0.09989  -2.27987   2.90860
H    -3.04569  -1.18502  -0.77477
H    -3.67492  -2.27557  -2.89728
H    -1.93540  -3.39384  -4.30156
H     0.44039  -3.40900  -3.52622
H     1.06559  -2.29107  -1.41468
H     1.11414  -0.97622   1.58071
H     2.84865  -2.23019  -0.14289
H     5.18559  -2.52991  -0.88137
H     6.54267  -0.55977  -1.62305
H     5.49861   1.71386  -1.58294
H     3.18792   2.01890  -0.84136
H     1.46852   2.14558  -1.83655
H     0.27884   3.95776  -0.22209
H    -0.21529   3.94207  -1.92694
H    -2.38516   3.27309  -1.29042
H    -1.89380   3.18433   0.40593
H    -2.53394   0.86864  -0.92876
H    -0.94964   1.74441  -2.85580
H    -0.27605   0.21592  -2.24065
H    -3.28871   1.55337   1.04742
H    -4.30587   1.83738   3.25733
H    -2.97451   1.40623   5.33065
H    -0.58819   0.68407   5.11549
H     0.43967   0.44084   2.91376
