32
Generated by autodE on: 2022-06-30. E = -765.073976 Ha
C     3.72125  -0.31082   1.24832
C     2.44226  -0.89898   0.71607
O     2.36726  -2.11361   0.46296
C     1.28775  -0.03246   0.47728
N     0.25942  -0.69970  -0.07037
N    -0.89422  -0.24299  -0.40469
C    -1.81150  -1.15621  -0.92047
C    -3.02380  -0.59936  -1.38147
C    -4.02204  -1.40776  -1.91962
C    -3.83708  -2.79243  -2.00776
C    -2.64125  -3.35590  -1.54586
C    -1.63550  -2.55647  -1.00469
C     1.21058   1.41057   0.75870
C     1.58692   1.91592   2.01708
C     1.53231   3.28626   2.27984
C     1.09792   4.17518   1.29243
C     0.71576   3.68363   0.03912
C     0.76753   2.31521  -0.22621
H     3.90488   0.70447   0.87176
H     3.67344  -0.25380   2.34845
H     4.55328  -0.97504   0.97794
H     0.50607  -1.70071  -0.19564
H    -3.15548   0.48183  -1.30708
H    -4.95133  -0.95478  -2.27312
H    -4.61848  -3.42889  -2.42848
H    -2.48964  -4.43651  -1.60282
H    -0.72638  -3.04288  -0.64430
H     1.91006   1.22864   2.80045
H     1.82497   3.65924   3.26415
H     1.05440   5.24720   1.49861
H     0.37687   4.37202  -0.73874
H     0.47039   1.94140  -1.20643
