59
Generated by autodE on: 2022-06-30. E = -3842.659087 Ha. Imaginary frequency = -411.3 cm-1
C    -0.23745  -2.55361   2.49888
C    -1.10607  -1.95996   1.41424
O    -2.32559  -1.98599   1.51613
C    -0.45201  -1.39464   0.19179
C    -1.07657  -1.71453  -1.11566
C    -2.45389  -1.53879  -1.34347
C    -3.02095  -1.87596  -2.57470
C    -2.23215  -2.40520  -3.59895
C    -0.86579  -2.61016  -3.37382
C    -0.29506  -2.27232  -2.14837
N     0.90754  -1.27390   0.26418
N     1.48641  -0.41717  -0.58094
C     2.89111  -0.39619  -0.54461
C     3.66910  -1.14440   0.36159
C     5.06218  -1.05241   0.33740
C     5.70709  -0.22195  -0.58346
C     4.94055   0.50462  -1.50227
C     3.55102   0.41062  -1.49205
C     0.63788   1.31621  -0.05591
Br    1.92791   2.07849   1.18656
C     0.51828   2.11201  -1.35318
C    -0.18391   3.45833  -1.02329
C    -1.63292   3.01893  -0.67647
C    -1.56565   1.46707  -0.82381
C    -0.62132   1.34372  -2.03178
C    -0.70658   0.96344   0.34892
C    -1.27611   0.96718   1.70927
C    -2.66816   1.14530   1.87812
C    -3.26432   1.09763   3.13916
C    -2.49325   0.86520   4.28086
C    -1.11513   0.67668   4.13575
C    -0.51739   0.73037   2.87704
H     0.35782  -3.38470   2.08646
H    -0.88849  -2.92684   3.29907
H     0.46084  -1.82136   2.92837
H    -3.07999  -1.13060  -0.55504
H    -4.09067  -1.71849  -2.73248
H    -2.67747  -2.66294  -4.56271
H    -0.23879  -3.03994  -4.15883
H     0.76971  -2.43862  -1.98849
H     1.30525  -1.33920   1.20580
H     3.20308  -1.82129   1.07842
H     5.64773  -1.64366   1.04571
H     6.79715  -0.15457  -0.59712
H     5.43034   1.14037  -2.24376
H     2.95971   0.95372  -2.22826
H     1.45974   2.22031  -1.90055
H     0.31434   3.99221  -0.20260
H    -0.15798   4.10883  -1.90994
H    -2.36084   3.42588  -1.39473
H    -1.94569   3.32958   0.32928
H    -2.54327   0.98709  -0.92072
H    -1.00970   1.86502  -2.91910
H    -0.35393   0.31778  -2.29375
H    -3.30284   1.30899   1.00822
H    -4.34473   1.23806   3.22568
H    -2.95899   0.82410   5.26814
H    -0.49373   0.47891   5.01281
H     0.55256   0.55262   2.80325
