49
Generated by autodE on: 2022-06-02. E = -1166.394015 Ha
C    -1.47071   0.63235  -4.06979
C    -0.49160   1.31485  -3.16842
O     0.04676   2.37650  -3.42232
C    -0.10000   0.55753  -1.91294
N     0.62844  -0.48690  -2.10011
C     0.89964  -1.04127  -0.76919
C     2.35252  -1.09415  -0.59338
N     3.50516  -1.09881  -0.46448
C     0.21502  -2.46298  -0.83444
C     1.06026  -3.59359  -1.32686
O    -0.97161  -2.53750  -0.61730
C     0.23910  -0.09933   0.23026
C    -0.39262   0.87785  -0.48276
C    -1.19578   2.12097  -0.09320
C    -0.24614   3.33097  -0.26466
C    -2.41174   2.27235  -1.03511
C    -1.72643   2.16279   1.35879
C    -2.78612   1.14178   1.76390
C    -2.36676  -0.32092   1.65864
C    -1.08786  -0.69361   2.40528
C     0.31354  -0.30801   1.73921
C     0.92866   0.88728   2.33070
N     1.48897   1.79378   2.79037
C     1.18809  -1.53229   2.18486
C     1.81845  -1.47344   3.54067
O     1.27397  -2.51068   1.47454
H    -2.37046   0.35124  -3.50032
H    -1.72911   1.28147  -4.91638
H    -1.01833  -0.30463  -4.43429
H     1.88550  -3.78600  -0.62751
H     1.50503  -3.31525  -2.29569
H     0.44232  -4.49315  -1.43989
H     0.57210   3.28556   0.46944
H     0.19153   3.36237  -1.27107
H    -0.80618   4.26498  -0.10095
H    -3.08333   3.04612  -0.63404
H    -2.12933   2.60010  -2.04297
H    -2.98377   1.33694  -1.12007
H    -2.15967   3.16824   1.48190
H    -0.89329   2.13650   2.06883
H    -3.06430   1.35356   2.81051
H    -3.70209   1.28992   1.16995
H    -3.16478  -0.94294   2.09617
H    -2.28821  -0.63838   0.60947
H    -1.09311  -0.27714   3.42298
H    -1.07945  -1.78704   2.50937
H     2.11537  -2.48406   3.84651
H     1.14716  -1.02069   4.28471
H     2.71567  -0.83539   3.47706
