17
Generated by autodE on: 2022-06-02. E = -530.472847 Ha
C    -3.30629  -0.98082   0.51586
C    -2.76807   0.24945  -0.15173
O    -3.43164   1.14230  -0.65199
C    -1.32110   0.33132  -0.16435
N    -0.15283   0.39661  -0.19809
C     1.15653   0.22201  -0.10654
C     2.03398   1.20394  -0.62138
N     2.78335   1.99599  -1.03605
C     1.59942  -1.02564   0.54714
C     3.08354  -1.23545   0.65848
O     0.77068  -1.82741   0.96570
H    -4.03633  -1.45590  -0.15756
H    -2.50930  -1.69022   0.77784
H    -3.83624  -0.67115   1.43188
H     3.54470  -1.23172  -0.34224
H     3.54239  -0.41329   1.23085
H     3.28256  -2.19247   1.15663
