49
Generated by autodE on: 2022-06-02. E = -1166.281947 Ha. Imaginary frequency = -304.2 cm-1
C    -1.58868  -0.04991  -3.65365
C    -0.72118   1.10474  -3.26552
O    -0.67545   2.18493  -3.81485
C     0.13859   0.82326  -2.07499
N     1.24917   0.37113  -1.93521
C     1.92393  -0.46968  -1.16199
C     3.20983  -0.10983  -0.67998
N     4.25904   0.17834  -0.26312
C     1.42856  -1.87471  -1.15206
C     2.24946  -2.87331  -0.38586
O     0.42824  -2.17860  -1.78756
C    -0.04653   0.12367   0.63912
C    -0.64969   0.98353  -0.02242
C    -1.53309   2.19870   0.00180
C    -0.78914   3.40474  -0.60317
C    -2.85477   1.95376  -0.74329
C    -1.80039   2.53123   1.49926
C    -2.70724   1.60763   2.31929
C    -2.29153   0.13949   2.50033
C    -0.84737  -0.07537   2.98531
C     0.10240  -0.67593   1.86872
C     1.48375  -0.62550   2.36214
N     2.56741  -0.56890   2.77188
C    -0.36024  -2.15881   1.66309
C     0.17049  -3.18372   2.61799
O    -1.15463  -2.41190   0.78461
H    -2.11664  -0.43761  -2.76891
H    -2.29820   0.26746  -4.42895
H    -0.94645  -0.86333  -4.02914
H     2.56807  -2.47960   0.58926
H     3.16315  -3.09109  -0.96477
H     1.67497  -3.79892  -0.25847
H     0.14555   3.60009  -0.05584
H    -0.54379   3.25779  -1.66343
H    -1.42532   4.30025  -0.52895
H    -3.54177   2.79293  -0.55260
H    -2.70645   1.89521  -1.82973
H    -3.34255   1.02573  -0.41280
H    -2.25722   3.53472   1.51592
H    -0.82253   2.63574   1.99610
H    -2.79075   2.06651   3.31970
H    -3.72645   1.62402   1.89993
H    -2.97577  -0.31325   3.23444
H    -2.45879  -0.41461   1.56583
H    -0.39138   0.87069   3.31044
H    -0.80911  -0.75516   3.84820
H    -0.43314  -4.09740   2.54989
H     0.18620  -2.80463   3.65016
H     1.21194  -3.41594   2.34396
