40
Generated by autodE on: 2022-06-01. E = -1217.732347 Ha
C     4.13253  -0.24694  -1.70988
O     2.89136  -0.78155  -1.20420
C     2.37649  -0.17844  -0.15772
O     2.86786   0.73867   0.46021
C     1.02657  -0.79187   0.28717
C     1.32593  -1.41852   1.59713
N     1.66544  -1.94709   2.57156
O     0.59149  -1.75946  -0.64650
N    -0.83029  -1.90899  -0.53446
C    -1.14425  -3.05756   0.30740
C    -1.35360  -0.57747  -0.18194
C    -2.13390   0.01638  -1.36212
C    -2.91145  -0.94120  -2.21236
O    -2.15818   1.22025  -1.54240
C    -2.25319  -0.55431   1.13152
C    -2.80185   0.85011   1.31005
C    -1.76814   1.58538   1.73173
C    -0.59216   0.62336   1.79785
O    -1.23988  -0.61110   2.13906
C    -0.12885   0.27365   0.33956
C     0.25932   1.43796  -0.56841
O     0.71521   1.26881  -1.68111
O     0.12668   2.61760   0.01283
C     0.46784   3.77105  -0.77506
H     4.90637  -0.28790  -0.93123
H     3.97981   0.79151  -2.03488
H     4.40439  -0.88146  -2.55997
H    -0.60092  -3.92209  -0.09600
H    -0.89735  -2.93547   1.37322
H    -2.21862  -3.26357   0.20880
H    -2.21688  -1.45665  -2.89427
H    -3.39283  -1.71737  -1.59842
H    -3.65624  -0.38902  -2.79982
H    -2.95750  -1.38621   1.20798
H    -3.81504   1.16322   1.06325
H    -1.71871   2.65272   1.93288
H     0.22788   0.85796   2.48374
H    -0.16779   3.81231  -1.67059
H     1.52558   3.72625  -1.06934
H     0.28310   4.63826  -0.13183
