24
Generated by autodE on: 2022-06-01. E = -688.223145 Ha
C     3.86624  -0.06846   0.19618
O     2.49827  -0.49553   0.11618
C     1.56687   0.38200   0.51234
O     1.82711   1.49063   0.93790
C     0.22480  -0.21103   0.36946
C    -0.98692   0.31851   0.09140
C    -1.48897   1.66475  -0.26297
C    -0.69377   2.89354   0.05743
O    -2.57438   1.72654  -0.83445
C    -1.90810  -0.91742  -0.08660
C    -1.47501  -1.60939  -1.39706
C    -0.27487  -2.12985  -1.12697
C    -0.00463  -1.74753   0.34506
O    -1.32913  -1.79734   0.88825
H     4.13249   0.16575   1.23700
H     4.02763   0.81983  -0.43138
H     4.46622  -0.90862  -0.17121
H     0.25152   2.88338  -0.50717
H    -1.27848   3.78362  -0.20857
H    -0.42148   2.91144   1.12255
H    -2.97636  -0.74786   0.07477
H    -2.03993  -1.58956  -2.32800
H     0.42615  -2.65716  -1.77234
H     0.70940  -2.35366   0.91008
