16
Generated by autodE on: 2022-07-26. E = -529.419321 Ha
C    -2.30558  -2.49412  -1.15720
N    -1.53427  -1.91985  -0.08797
O    -0.87654  -0.91354  -0.54081
C    -0.07607  -0.17679   0.21631
C     0.08863  -0.47219   1.58249
N     0.23239  -0.70931   2.71586
C     0.57999   0.91945  -0.49679
O     0.42418   1.15907  -1.67917
O     1.36901   1.61516   0.32907
C     2.07626   2.72626  -0.24181
H    -2.15303  -1.97609  -2.11403
H    -2.03404  -3.55984  -1.24892
H    -3.37198  -2.46575  -0.87264
H     2.66175   3.16126   0.57591
H     2.74185   2.38398  -1.04731
H     1.36829   3.46741  -0.63996
