16
Generated by autodE on: 2022-06-01. E = -529.411967 Ha
C     3.03268   0.39538   0.35021
N     1.99265   1.04735   1.08948
O     0.79087   0.71815   0.75570
C     0.26647  -0.10637  -0.13912
C     0.94652  -0.92790  -1.07020
N     1.38826  -1.64316  -1.87841
C    -1.20795  -0.16095  -0.13798
O    -1.82575  -0.88189  -0.90081
O    -1.76118   0.64213   0.76662
C    -3.19676   0.63679   0.83185
H     2.99185  -0.70176   0.47603
H     3.98505   0.76839   0.74326
H     2.97014   0.62710  -0.72860
H    -3.56398  -0.36676   1.09029
H    -3.62523   0.94867  -0.13132
H    -3.46245   1.35330   1.61712
