40
Generated by autodE on: 2022-06-01. E = -1217.654669 Ha. Imaginary frequency = -113.9 cm-1
C     4.30542   1.16334  -0.33011
O     3.20067   0.42524   0.21792
C     2.48143  -0.30263  -0.63673
O     2.64794  -0.34430  -1.83792
C     1.43083  -1.05156   0.07544
C     1.44793  -1.25820   1.47260
N     1.53123  -1.42271   2.62337
O     0.67713  -1.78513  -0.72797
N    -0.39848  -2.35490  -0.25745
C    -0.98180  -3.15240  -1.30726
C    -1.60169  -0.19450  -0.05890
C    -1.99068  -0.25402  -1.49053
C    -3.45332  -0.46719  -1.76315
O    -1.16372  -0.16475  -2.38705
C    -2.51792  -0.65221   1.11056
C    -3.29440   0.60247   1.57763
C    -2.37555   1.37197   2.16894
C    -1.06023   0.56946   2.05379
O    -1.54963  -0.77057   2.15288
C    -0.67432   0.61454   0.55605
C     0.11144   1.77612   0.09739
O     0.36449   2.69450   0.86079
O     0.49220   1.75082  -1.17488
C     1.22541   2.88574  -1.65924
H     4.72435   1.73659   0.50413
H     3.96199   1.83874  -1.12465
H     5.05702   0.46980  -0.73388
H    -0.80059  -2.73377  -2.30838
H    -2.05792  -3.23370  -1.10361
H    -0.55464  -4.17185  -1.26250
H    -4.06379   0.27525  -1.22421
H    -3.75315  -1.46094  -1.39127
H    -3.64450  -0.40404  -2.84189
H    -3.08210  -1.57605   0.95384
H    -4.35144   0.78843   1.39284
H    -2.46237   2.36900   2.59794
H    -0.26040   0.78198   2.76861
H     2.07700   3.10376  -1.00159
H     1.57394   2.60931  -2.66033
H     0.56770   3.76568  -1.71079
