63
Generated by autodE on: 2022-07-03. E = -2334.150277 Ha
C    -1.27417  -8.08028   7.93671
N    -2.56402  -7.43639   7.78381
C    -3.41143  -7.78984   6.82721
O    -3.13980  -8.64356   5.96447
C    -4.75904  -7.01042   6.68147
C    -5.11973  -6.02683   7.85304
O    -4.39378  -5.85359   8.84074
N    -6.25150  -5.34053   7.68398
C    -6.72844  -4.41061   8.68874
N    -4.58437  -6.25456   5.45136
C    -5.62894  -6.50454   4.46215
C    -6.39194  -5.15879   4.33448
C    -5.84010  -4.07646   3.46022
O    -7.34878  -4.96098   5.06458
C    -4.92353  -6.98692   3.14663
O    -5.12165  -6.47263   2.04564
N    -4.07466  -8.00536   3.33644
C    -3.37184  -8.61145   2.22525
C    -6.47393  -7.61389   5.13095
C    -5.94150  -7.94264   6.33587
C    -6.31556  -9.11490   7.25819
F    -7.68972  -9.35410   7.22081
C    -6.12864  -8.84300   8.77322
F    -6.61280  -9.86996   9.48140
F    -4.83941  -8.69831   9.10586
F    -6.79490  -7.75000   9.17038
C    -5.55492 -10.40699   6.89175
C    -6.15587 -11.25357   5.76607
C    -6.49695 -10.54663   4.45245
C    -7.82634  -9.77430   4.51823
C    -7.75150  -8.20391   4.48842
C    -7.90977  -7.87655   2.97264
F    -7.79195  -6.58148   2.65401
F    -7.01191  -8.55600   2.24346
F    -9.12662  -8.25799   2.54208
C    -9.03806  -7.60430   5.19786
F   -10.02538  -8.51249   5.25340
F    -9.54030  -6.54695   4.53902
F    -8.80675  -7.19949   6.44894
H    -0.72935  -8.08819   6.98142
H    -1.38421  -9.12394   8.27505
H    -0.68697  -7.52789   8.68048
H    -2.93371  -6.78798   8.48745
H    -6.83467  -5.50121   6.86404
H    -5.96871  -3.64645   8.91245
H    -7.63053  -3.91727   8.30714
H    -6.97406  -4.93507   9.62654
H    -4.29454  -5.28753   5.56409
H    -4.74038  -4.08001   3.45874
H    -6.22917  -3.10814   3.80131
H    -6.15711  -4.26277   2.42397
H    -3.83303  -8.29326   4.29279
H    -2.64627  -7.91718   1.76842
H    -4.07927  -8.92379   1.44128
H    -2.83170  -9.49477   2.58902
H    -5.50178 -11.03865   7.78904
H    -4.53088 -10.12131   6.63100
H    -5.41908 -12.04755   5.56590
H    -7.06041 -11.76405   6.13508
H    -6.60077 -11.31751   3.67487
H    -5.66304  -9.90768   4.12901
H    -8.46882 -10.07721   3.68469
H    -8.37252 -10.07897   5.40922
