34
Generated by autodE on: 2022-07-03. E = -911.089276 Ha
C    -2.88910  -1.84589  -1.86338
N    -2.16716  -0.62643  -1.54533
C    -1.49701  -0.50900  -0.38089
O    -1.58637  -1.32134   0.54237
C    -0.72289   0.75689  -0.17995
N     0.46701   0.75975   0.38934
C     1.40020  -0.18840   0.65163
C     2.46424   0.18460   1.57069
C     2.49622   1.59685   2.11751
O     3.33159  -0.62718   1.93446
C     1.38244  -1.44823  -0.12722
O     0.71529  -1.54802  -1.17350
N     2.15695  -2.45103   0.32831
C     2.35127  -3.65703  -0.44789
C    -1.30302   2.13045  -0.24666
O    -0.62014   3.09075   0.15064
N    -2.55008   2.26896  -0.71944
C    -3.18730   3.56903  -0.80174
H    -2.19692  -2.69342  -2.00156
H    -3.58463  -2.09757  -1.05098
H    -3.45922  -1.69280  -2.78790
H    -1.88040  -0.02497  -2.31332
H     0.69592   1.72784   0.67981
H     2.50498   2.34897   1.31112
H     3.40589   1.71423   2.71902
H     1.61958   1.79587   2.75455
H     2.79733  -2.20451   1.08602
H     1.38339  -4.10777  -0.71313
H     2.89932  -3.46457  -1.38661
H     2.92333  -4.37767   0.14987
H    -3.05613   1.44597  -1.03102
H    -3.30222   4.01956   0.19685
H    -2.59429   4.26058  -1.42020
H    -4.17884   3.44713  -1.25304
