21
Generated by autodE on: 2022-05-28. E = -736.290774 Ha
C     4.19893   0.26505  -0.47108
O     2.76862   0.39604  -0.50139
C     2.05869  -0.64732  -0.06359
O     2.53275  -1.68944   0.34688
C     0.62492  -0.37180  -0.11630
C    -0.40119  -1.13221   0.31418
N    -1.58556  -0.48429   0.07598
C    -2.90128  -0.83481   0.35583
C    -3.93331   0.12053  -0.15319
O    -3.10757  -1.86410   0.97633
O    -1.32109   0.62826  -0.79019
N     0.07955   0.88213  -0.61637
C     0.29067   2.00554   0.10932
N     0.51101   3.02258   0.63109
H     4.59447   1.21143  -0.85613
H     4.54450   0.09644   0.55882
H     4.51850  -0.57126  -1.10898
H    -0.38689  -2.11059   0.78976
H    -4.92503  -0.24267   0.14056
H    -3.86870   0.19732  -1.25031
H    -3.75741   1.12591   0.25971
