10
Generated by autodE on: 2022-05-28. E = -305.347601 Ha
C     2.51459   0.75306   0.15058
C     1.38364   0.34078   0.01264
C     0.05217  -0.19693  -0.19726
O    -0.19683  -1.08862  -0.98311
O    -0.85048   0.40808   0.57496
C    -2.20939  -0.04684   0.44749
H     3.52087   1.12156   0.27492
H    -2.79343   0.55675   1.15108
H    -2.28079  -1.11296   0.70601
H    -2.56822   0.10761  -0.58009
