21
Generated by autodE on: 2022-05-28. E = -736.160674 Ha. Imaginary frequency = -305.6 cm-1
C     3.78722   0.06607  -1.87012
O     2.49008  -0.44199  -1.50760
C     2.18967  -0.42464  -0.21254
O     2.92186  -0.03026   0.67252
C     0.85400  -0.93854   0.03626
C    -0.19883  -1.51976   0.31819
N    -1.72044  -0.03516   0.47295
C    -2.92986  -0.55081  -0.11622
C    -3.54946   0.19241  -1.25474
O    -3.36361  -1.56063   0.39437
O    -1.19181   0.87704  -0.31561
N    -0.03322   1.36779   0.06463
C     0.17213   1.38993   1.39250
N     0.47229   1.56319   2.50816
H     3.84816  -0.02445  -2.96017
H     3.88022   1.11836  -1.56590
H     4.57705  -0.52896  -1.39033
H    -0.88686  -2.32047   0.55167
H    -4.49197  -0.29785  -1.52509
H    -2.86064   0.19042  -2.11459
H    -3.72640   1.24280  -0.97775
