32
Generated by autodE on: 2022-06-14. E = -1592.238457 Ha
C     4.48319   2.14168   1.20543
N     3.16645   2.05148   0.60577
C     2.46801   0.91087   0.51052
O     2.86056  -0.18606   0.90986
C     1.04825   1.05483  -0.10958
C     1.13866   1.84683  -1.44323
C     1.00091   1.09190  -2.72610
O     1.33947   3.04685  -1.39998
C     0.42223  -0.24819  -0.27661
C    -0.43583  -1.10290  -0.28536
C    -1.75337  -1.63631  -0.03704
Cl   -2.33116  -2.67754  -1.41727
Cl   -1.70723  -2.68155   1.46666
C    -2.72888  -0.46496   0.17011
C    -2.25091   0.62620   1.14893
C    -1.38840   1.79318   0.59087
C     0.12248   1.82075   0.90187
H     4.47985   2.85041   2.04787
H     5.22750   2.48102   0.46833
H     4.77560   1.15225   1.57523
H     2.75258   2.89233   0.20990
H     1.67317   0.21887  -2.72131
H     1.22169   1.74857  -3.57683
H    -0.02552   0.69943  -2.80918
H    -2.90226  -0.02287  -0.82352
H    -3.68297  -0.89560   0.50799
H    -1.74726   0.15617   2.00951
H    -3.17032   1.07207   1.55683
H    -1.55117   1.89533  -0.49563
H    -1.79000   2.71870   1.03082
H     0.47012   2.86292   0.91377
H     0.30554   1.40218   1.90338
