37
Generated by autodE on: 2022-06-14. E = -937.905813 Ha
C     4.98800  -0.78809  -0.87514
O     3.87904  -0.05778  -0.34814
C     2.64976  -0.45455  -0.74945
O     2.51397  -1.38219  -1.54843
C     1.56113   0.27093  -0.14191
C     1.60661   1.21249   0.93500
C     2.90579   1.84982   1.37244
O     0.56061   1.54372   1.54468
N     0.25640  -0.00809  -0.64921
C     0.06084   0.19633  -2.09829
C    -0.76051  -0.18862   0.15560
C    -0.52379  -0.64670   1.59072
C    -1.46891  -0.14627   2.64448
O     0.32411  -1.49233   1.81013
C    -2.16014  -0.07593  -0.28864
C    -2.63630   1.10848  -0.87876
C    -3.97862   1.21524  -1.24049
C    -4.85189   0.14293  -1.02867
C    -4.38326  -1.03605  -0.43983
C    -3.04636  -1.14347  -0.05682
H     5.03208  -0.70251  -1.97120
H     4.92654  -1.85192  -0.60118
H     5.88384  -0.33870  -0.42932
H     3.51753   1.11111   1.91320
H     2.66371   2.67660   2.05345
H     3.50380   2.21157   0.52708
H    -0.84144  -0.32563  -2.43224
H     0.93293  -0.21106  -2.61550
H    -0.02295   1.27100  -2.30653
H    -1.91439   0.82021   2.38160
H    -2.28001  -0.88356   2.76575
H    -0.92802  -0.07642   3.59802
H    -1.95786   1.94890  -1.03134
H    -4.34539   2.14138  -1.68816
H    -5.90169   0.22874  -1.31807
H    -5.06288  -1.87437  -0.27313
H    -2.68142  -2.06254   0.40691
