69
Generated by autodE on: 2022-06-14. E = -2530.102267 Ha. Imaginary frequency = -218.8 cm-1
C     5.84894 -14.21891  -9.29141
N     7.26476 -14.24070  -8.98973
C     8.16662 -14.98175  -9.65571
O     7.88415 -15.68351 -10.62736
C     9.63502 -14.77960  -9.17753
C    10.65250 -15.85520  -9.60225
C    10.56714 -16.50761 -10.94916
O    11.58981 -16.08227  -8.85692
C    10.08920 -13.44886  -9.91480
C    11.53365 -12.98331  -9.71706
C    12.11268 -12.87435  -8.30010
C    11.49701 -11.92179  -7.26986
C    10.11118 -12.26361  -6.66404
Cl    8.76649 -11.31859  -7.54961
Cl   10.08091 -11.53236  -4.98780
C     9.76408 -13.69353  -6.78492
C     9.70703 -14.50165  -7.73055
C     9.27115 -16.73842  -6.47695
C    10.59038 -17.32309  -6.27020
C    11.11284 -18.48986  -7.07354
O    11.27943 -16.93341  -5.31486
C     8.39430 -17.28272  -7.51540
O     8.78589 -17.99406  -8.43476
O     7.10735 -16.90253  -7.43779
C     6.19677 -17.51187  -8.36131
N     8.72455 -15.99344  -5.40823
C     7.39960 -16.42159  -4.86689
C     9.32135 -14.92436  -4.84426
C    10.82825 -14.86452  -4.46166
C    11.15051 -15.45269  -3.10066
O    11.65420 -14.20523  -5.05851
C     8.41975 -14.00682  -4.08967
C     8.58967 -13.63195  -2.74728
C     7.73757 -12.69263  -2.16242
C     6.70697 -12.11068  -2.90349
C     6.51902 -12.48673  -4.23797
C     7.36140 -13.42651  -4.82088
H     5.26358 -14.66022  -8.46988
H     5.50691 -13.18370  -9.44429
H     5.66679 -14.79210 -10.20763
H     7.58299 -13.70402  -8.18837
H    11.53930 -16.96484 -11.17673
H     9.79064 -17.28503 -10.91564
H    10.27523 -15.79787 -11.73369
H     9.90820 -13.60710 -10.98863
H     9.39479 -12.66693  -9.59069
H    12.20505 -13.64935 -10.28337
H    11.60291 -11.99894 -10.21102
H    13.15183 -12.52548  -8.41949
H    12.19036 -13.87350  -7.85237
H    11.43947 -10.89158  -7.65119
H    12.18679 -11.90425  -6.41667
H    12.05681 -18.80432  -6.60819
H    10.39387 -19.32151  -7.05735
H    11.28904 -18.23033  -8.12198
H     6.20288 -18.60478  -8.23795
H     5.20737 -17.11127  -8.11347
H     6.46057 -17.25844  -9.39569
H     6.55708 -15.90653  -5.33219
H     7.30383 -17.49790  -5.03555
H     7.40019 -16.23144  -3.78843
H    11.30648 -14.62561  -2.39158
H    12.09768 -15.99898  -3.19116
H    10.37081 -16.12434  -2.72112
H     9.37785 -14.06678  -2.13952
H     7.88573 -12.41469  -1.11663
H     6.05158 -11.36739  -2.44382
H     5.72137 -12.03548  -4.83199
H     7.22640 -13.69705  -5.86768
