16
Generated by autodE on: 2022-05-31. E = -743.987475 Ha
F    -0.57247   2.20607  -0.49016
C    -0.73376   1.00276   0.02189
C     0.14860   0.02059   0.22152
C     1.57715  -0.08386  -0.13040
F     1.78016  -1.02882  -1.07773
F     2.34083  -0.44238   0.92390
F     2.07340   1.07127  -0.60581
C    -0.74106  -1.15184   0.71229
C    -1.60921  -1.60652  -0.48420
C    -2.47106  -0.60622  -0.68637
C    -2.11830   0.44047   0.39727
O    -1.71821  -0.41802   1.47695
H    -0.23830  -1.92295   1.30491
H    -1.46864  -2.53225  -1.04055
H    -3.23198  -0.47634  -1.45449
H    -2.88058   1.17240   0.68347
