38
Generated by autodE on: 2022-05-31. E = -1410.159841 Ha. Imaginary frequency = -296.0 cm-1
C     4.73363   0.06668  -0.20398
O     3.39332  -0.35140   0.13210
C     2.56604  -0.55418  -0.87371
O     2.81329  -0.48772  -2.05648
C     1.19998  -0.81754  -0.39239
N     0.42173  -1.68827  -0.14469
C    -0.74892  -1.97841   0.42320
C    -1.79006  -2.61726  -0.40317
C    -1.38564  -3.06572  -1.78289
O    -2.93863  -2.75016   0.01035
C    -0.75327  -1.83092   1.90416
C    -2.01921  -2.12666   2.65682
O     0.26334  -1.45007   2.47461
C    -1.33970   0.62218   0.26216
F    -1.80519   0.76743   1.49971
C    -2.28341   0.57180  -0.94567
C    -2.55442   2.04504  -1.32285
C    -1.39115   2.49646  -1.80388
C    -0.42036   1.29942  -1.70941
O    -1.32316   0.20675  -1.94639
C    -0.12224   1.06536  -0.20037
C     0.78859   1.95434   0.57074
F     1.96641   2.14169  -0.06459
F     1.05793   1.47616   1.79546
F     0.25817   3.18823   0.73792
H     5.23841  -0.71760  -0.78412
H     4.69588   0.99960  -0.78338
H     5.24089   0.22581   0.75325
H    -2.24110  -3.54784  -2.27256
H    -1.06526  -2.19305  -2.37190
H    -0.53568  -3.76386  -1.73196
H    -2.32031  -3.17387   2.50338
H    -2.84427  -1.50167   2.28908
H    -1.84203  -1.93549   3.72318
H    -3.13101  -0.11797  -0.89126
H    -3.49581   2.56794  -1.16046
H    -1.12021   3.49320  -2.14897
H     0.44161   1.27636  -2.38329
