52
Generated by autodE on: 2022-06-22. E = -948.103192 Ha
C     4.79168   1.81835   0.72458
C     3.69762   1.49710   0.00432
C     3.48387   2.02725  -1.38957
C     2.66924   0.62490   0.58324
C     1.54658   0.22796  -0.04332
C     0.51096  -0.64921   0.58040
C     0.37351  -2.06231  -0.07079
C     0.53764  -2.01583  -1.59569
C     1.40219  -3.02395   0.52266
C    -1.06938  -2.42638   0.34469
C    -1.69447  -3.61084  -0.37951
N    -1.79031  -1.17328   0.12846
C    -3.20405  -1.16958   0.45218
C    -0.95150  -0.05600   0.60560
C    -1.36835   0.21551   2.08473
C    -2.42831   1.24454   2.38828
O    -0.90958  -0.46547   2.98924
C    -1.09719   1.18977  -0.25807
C    -1.72917   1.15349  -1.50568
C    -1.78408   2.29517  -2.31336
C    -1.20328   3.49090  -1.88369
C    -0.56906   3.53775  -0.63656
C    -0.51873   2.39739   0.16659
H     5.56985   2.47262   0.32139
H     4.93431   1.43265   1.73882
H     2.54717   2.60667  -1.45042
H     4.31494   2.67518  -1.70211
H     3.39189   1.20499  -2.11851
H     2.84177   0.29781   1.61555
H     1.36458   0.55230  -1.06945
H     0.78985  -0.81797   1.62700
H     0.36619  -3.00870  -2.03764
H    -0.15894  -1.30567  -2.06339
H     1.56068  -1.71264  -1.86439
H     2.42523  -2.66411   0.32756
H     1.27831  -3.11955   1.61310
H     1.31106  -4.02810   0.07829
H    -1.04612  -2.67549   1.42911
H    -1.88573  -3.38747  -1.43968
H    -1.01972  -4.47870  -0.32422
H    -2.64633  -3.90773   0.08534
H    -3.72939  -1.90775  -0.17049
H    -3.64270  -0.18794   0.22643
H    -3.42583  -1.41406   1.51300
H    -1.92297   2.15710   2.74591
H    -3.03453   1.52155   1.51880
H    -3.06316   0.87153   3.20467
H    -2.17383   0.21788  -1.84399
H    -2.28270   2.24649  -3.28464
H    -1.24324   4.38206  -2.51466
H    -0.10859   4.46592  -0.28948
H    -0.00779   2.44379   1.13056
