29
Generated by autodE on: 2022-07-27. E = -596.535383 Ha
C    -0.41139  -3.86257  -0.89017
C     0.12466  -2.65182  -0.22516
N    -0.39971  -1.46740  -0.34937
C    -1.55946  -1.28138  -1.24051
C    -0.00569  -0.38112   0.49573
C     0.16280  -0.68028   1.87133
C     0.55826   0.42840   2.83586
O     0.01148  -1.83471   2.36688
C     0.14655   0.91365  -0.17767
C     0.69329   0.96307  -1.48316
C     0.84350   2.16892  -2.16797
C     0.46294   3.37594  -1.57120
C    -0.09066   3.34954  -0.28649
C    -0.26040   2.14196   0.39287
H    -0.35489  -3.76341  -1.98864
H     0.16322  -4.74691  -0.58874
H    -1.47460  -4.02014  -0.64128
H     1.01142  -2.71965   0.40322
H    -1.31876  -1.61297  -2.25885
H    -1.83726  -0.22465  -1.25287
H    -2.40440  -1.87344  -0.85958
H     1.15944   1.22134   2.37218
H    -0.33576   0.89639   3.28044
H     1.13168  -0.03103   3.65426
H     1.01508   0.03546  -1.96236
H     1.27254   2.16637  -3.17352
H     0.58646   4.32202  -2.10330
H    -0.41575   4.27967   0.18723
H    -0.74320   2.15002   1.36965
