29
Generated by autodE on: 2022-06-22. E = -596.535409 Ha
C    -3.89139  -0.79233   0.31673
C    -2.54864  -0.30159   0.70588
N    -1.53656  -0.24259  -0.10973
C    -1.68996  -0.74398  -1.48773
C    -0.34152   0.46926   0.23041
C    -0.51557   1.73355   0.84905
C     0.70625   2.56185   1.21933
O    -1.64343   2.23374   1.12895
C     0.91162  -0.19879  -0.13746
C     2.04220   0.48495  -0.64214
C     3.21399  -0.19655  -0.97526
C     3.29419  -1.58744  -0.84658
C     2.17684  -2.28802  -0.37910
C     1.01142  -1.60734  -0.02702
H    -4.58882  -0.69699   1.15787
H    -4.28773  -0.23125  -0.54669
H    -3.84934  -1.85297   0.01245
H    -2.36220   0.03037   1.72628
H    -0.73254  -0.66338  -2.00827
H    -2.02070  -1.79057  -1.48101
H    -2.43938  -0.13281  -2.01164
H     1.59000   1.95760   1.46275
H     0.43784   3.18016   2.08834
H     0.97851   3.24538   0.39804
H     1.99475   1.56116  -0.80486
H     4.06823   0.36630  -1.36091
H     4.21015  -2.11833  -1.11611
H     2.21588  -3.37575  -0.27636
H     0.15826  -2.17449   0.35264
