52
Generated by autodE on: 2022-06-22. E = -948.045539 Ha. Imaginary frequency = -310.5 cm-1
C     3.53735   2.95373   0.02500
C     2.97760   1.84745  -0.52024
C     3.01334   1.61536  -2.01021
C     2.32670   0.86153   0.32971
C     1.66398  -0.24792  -0.11111
C     1.02942  -1.21246   0.73136
C     0.53088  -2.46478   0.29444
C     0.78214  -2.87487  -1.14603
C     0.66826  -3.59505   1.30268
C    -1.57219  -2.29590   0.34488
C    -2.16897  -3.43403  -0.42833
N    -1.86227  -1.00664  -0.02575
C    -2.44613  -0.78480  -1.35425
C    -1.38266   0.06353   0.70895
C    -1.11403  -0.05875   2.13028
C    -0.34581   1.05693   2.81989
O    -1.46861  -1.02625   2.84421
C    -1.32660   1.40406   0.07607
C    -0.64610   1.63639  -1.13604
C    -0.57705   2.91412  -1.69287
C    -1.18472   3.99785  -1.05174
C    -1.87869   3.78553   0.14402
C    -1.95280   2.50513   0.69432
H     4.02595   3.71101  -0.59417
H     3.51369   3.12520   1.10566
H     1.99759   1.52865  -2.42683
H     3.52773   2.43722  -2.52800
H     3.53422   0.67380  -2.25122
H     2.37176   1.04953   1.40793
H     1.62056  -0.42617  -1.18776
H     1.16030  -1.07702   1.80732
H     0.30511  -3.83749  -1.37533
H     0.40596  -2.13321  -1.86571
H     1.86421  -2.99786  -1.32989
H     1.70361  -3.98027   1.29854
H     0.44382  -3.24631   2.32162
H     0.00836  -4.44546   1.07391
H    -1.56582  -2.42375   1.42143
H    -1.96401  -3.39540  -1.50652
H    -1.77997  -4.38424  -0.03966
H    -3.26535  -3.45745  -0.29362
H    -1.70673  -0.93040  -2.15514
H    -2.84255   0.23168  -1.41755
H    -3.27555  -1.48468  -1.50787
H     0.24818   1.67779   2.13901
H    -1.03966   1.71356   3.36885
H     0.31607   0.58955   3.56432
H    -0.16202   0.80772  -1.64752
H    -0.03619   3.06385  -2.63032
H    -1.12423   4.99944  -1.48410
H    -2.37342   4.61973   0.64740
H    -2.51450   2.35069   1.61713
