28
Generated by autodE on: 2022-07-01. E = -819.944927 Ha
C     5.11968   0.37479   0.05509
O     3.80713  -0.15070  -0.16317
C     2.77975   0.58879   0.30794
O     2.95313   1.64506   0.90613
C     1.50850  -0.01850   0.00699
C     1.24939  -1.16346  -0.77980
O     1.89603  -2.00681  -1.37016
O    -0.18931  -1.22919  -0.82653
C    -0.70465  -0.22185  -0.12362
C    -2.15138  -0.08869  -0.02447
C    -2.93124  -1.26207  -0.05922
C    -4.31974  -1.17833   0.01095
C    -4.94494   0.07004   0.10513
C    -4.17624   1.23806   0.11925
C    -2.78527   1.16688   0.05175
N     0.26091   0.51254   0.40122
C     0.08646   1.61034   1.35312
H     5.23563   1.35596  -0.42901
H     5.81152  -0.34812  -0.39360
H     5.32783   0.47632   1.13063
H    -2.44011  -2.23345  -0.13044
H    -4.91785  -2.09173  -0.00632
H    -6.03403   0.13276   0.15942
H    -4.66247   2.21425   0.17230
H    -2.20065   2.08605   0.02471
H     0.20966   2.57708   0.84871
H     0.84590   1.51375   2.13401
H    -0.91034   1.54187   1.79840
