29
Generated by autodE on: 2022-10-07. E = -857.250266 Ha
C     3.46213  -2.42460  -0.06322
N     2.56201  -1.69389   0.81105
C     1.87392  -0.63884   0.36567
O     2.00384  -0.13736  -0.75298
C     0.96301   0.03364   1.36562
C     1.38100   0.27586   2.76200
O    -0.12791   0.57746   0.99949
C    -0.84746   0.51716  -0.17426
C    -1.73510   1.63664  -0.36601
O    -2.51810   1.77149  -1.30054
O    -1.61048   2.57439   0.60759
C    -2.47045   3.71019   0.49917
C    -0.88399  -0.67237  -0.98976
O    -1.38942  -0.75886  -2.10144
O    -0.34633  -1.74352  -0.36025
C    -0.20790  -2.94371  -1.12437
H     3.82097  -3.31516   0.46538
H     4.32569  -1.80471  -0.34986
H     2.94061  -2.73446  -0.98207
H     2.38950  -2.04391   1.74902
H     0.70332   0.99239   3.24315
H     1.35804  -0.67541   3.32583
H     2.42061   0.63990   2.79285
H    -2.28798   4.25467  -0.43960
H    -3.52890   3.41127   0.53943
H    -2.23219   4.35321   1.35535
H     0.30080  -3.66209  -0.47093
H    -1.19237  -3.33534  -1.41917
H     0.39535  -2.75949  -2.02535
