13
Generated by autodE on: 2022-10-07. E = -245.298495 Ha
C    -0.46422  -1.19223  -1.50663
N    -0.04889  -0.93858  -0.13780
C     0.11549   0.28372   0.37372
N    -0.06924   1.36302  -0.38916
N     0.46532   0.42753   1.65569
H     0.25575  -0.77518  -2.22870
H    -1.46025  -0.76788  -1.71206
H    -0.51230  -2.27658  -1.65616
H     0.09015  -1.72820   0.48482
H    -0.34322   1.28197  -1.36090
H     0.05060   2.29060   0.00297
H     0.61894   1.34938   2.04851
H     0.63124  -0.38742   2.23616
