42
Generated by autodE on: 2022-10-07. E = -1102.537788 Ha. Imaginary frequency = -272.8 cm-1
C     3.68514   2.35700  -1.12417
N     2.87521   1.15667  -1.23883
C     2.34258   0.52897  -0.19036
O     2.58556   0.78451   0.99356
C     1.50377  -0.71102  -0.61436
C     2.33061  -1.85939  -1.10266
N     1.03228  -1.29688   1.23565
C    -0.29545  -1.39340   1.65613
N    -0.94970  -2.51116   1.34977
N    -0.82839  -0.46448   2.42819
C    -0.16591   0.73570   2.92285
C    -0.85034  -0.04231  -0.83661
C    -0.95968   1.29273  -0.33770
O    -1.95167   1.80269   0.18162
O     0.20016   1.98850  -0.47288
C     0.24650   3.28743   0.11692
C    -1.90675  -0.98884  -1.04827
O    -1.74777  -2.11792  -1.51795
O    -3.12596  -0.56342  -0.63608
C    -4.19325  -1.50508  -0.75817
O     0.37212  -0.59148  -1.25128
H     3.95327   2.50892  -0.07282
H     4.60342   2.25169  -1.71977
H     3.12859   3.23544  -1.48519
H     2.54661   0.89650  -2.16576
H     3.17358  -2.04823  -0.42425
H     2.74241  -1.59388  -2.09022
H     1.69997  -2.75239  -1.21006
H     1.60863  -0.56251   1.68882
H     1.49941  -2.20719   1.26818
H    -1.94285  -2.57074   1.56561
H    -0.63244  -3.06062   0.55417
H    -1.82106  -0.56593   2.63066
H    -0.93869   1.48049   3.14037
H     0.51600   1.14900   2.17226
H     0.39912   0.52207   3.84344
H     1.25997   3.66584  -0.05905
H    -0.49001   3.95627  -0.35248
H     0.04964   3.23774   1.19796
H    -4.35676  -1.78857  -1.80881
H    -5.08550  -1.00170  -0.36556
H    -3.98852  -2.41320  -0.17073
