15
Generated by autodE on: 2022-05-28. E = -458.066955 Ha
C     3.67710   0.43399  -0.20909
O     2.25319   0.62879  -0.11533
C     1.50598  -0.46998  -0.08048
O     1.92691  -1.60724  -0.12410
C     0.09301  -0.15322   0.01887
C    -1.10273   0.04585   0.10459
C    -2.53755   0.29615   0.21567
C    -3.28725   0.40852  -1.07598
O    -3.04786   0.39960   1.31914
H     4.11354   1.43853  -0.22921
H     3.92586  -0.11189  -1.13012
H     4.04139  -0.12638   0.66352
H    -4.34976   0.59853  -0.87511
H    -2.85875   1.22343  -1.68238
H    -3.16618  -0.52244  -1.65418
