38
Generated by autodE on: 2022-05-29. E = -1047.161132 Ha
C     0.12243   3.43677   1.36151
O    -0.50266   2.15090   1.21626
C    -0.72408   1.72774  -0.02128
O    -0.53577   2.39621  -1.01529
C    -1.18627   0.27708  -0.05669
C    -2.04895  -0.16316   1.19941
C    -2.67654  -1.50078   0.84255
C    -1.67465  -2.38666   0.90803
C    -0.44855  -1.58566   1.30723
O    -1.01612  -0.54361   2.10844
C     0.03002  -0.75169   0.04502
C     1.39593  -0.10491   0.21445
C     1.94842   0.13308   1.48227
C     3.17159   0.79463   1.61153
C     3.86150   1.23309   0.47730
C     3.31603   1.00744  -0.78922
C     2.09181   0.34693  -0.91802
C    -0.15435  -1.47365  -1.27521
C     0.66472  -2.53050  -1.73020
N     1.36596  -3.40041  -2.06615
N    -1.17825  -1.05112  -1.96907
N    -1.76322  -0.04105  -1.35605
C    -2.99150   0.53748  -1.85390
H    -0.51575   4.22395   0.93660
H     1.09876   3.43532   0.85601
H     0.25089   3.58768   2.43896
H    -2.68734   0.62289   1.61291
H    -3.70596  -1.64923   0.51873
H    -1.67560  -3.44467   0.64879
H     0.35718  -2.10942   1.82932
H     1.41374  -0.17231   2.38087
H     3.58465   0.97187   2.60726
H     4.81760   1.75135   0.58092
H     3.84174   1.34980  -1.68357
H     1.66667   0.19547  -1.91207
H    -3.87013   0.16968  -1.29731
H    -3.09800   0.26582  -2.91122
H    -2.94852   1.63222  -1.76744
