9
Generated by autodE on: 2022-05-29. E = -280.381050 Ha
C    -2.65011   0.47328   0.12490
N    -1.66850  -0.58920  -0.12316
N    -0.50742  -0.27209  -0.24656
C     0.64592  -0.03996  -0.52541
C     1.85735   0.10208   0.11975
N     2.92871   0.24443   0.56828
H    -2.37974   1.39684  -0.40848
H    -3.62973   0.11544  -0.21059
H    -2.70174   0.67999   1.20523
