56
Generated by autodE on: 2022-10-22. E = -1378.327230 Ha
C    -1.03979   4.84845 -11.01562
O    -1.89880   4.04226 -10.19100
C    -2.62531   3.12155 -10.81328
O    -2.62580   2.94548 -12.01291
C    -3.50659   2.33541  -9.84296
N    -4.86681   2.83558  -9.93199
C    -5.58540   1.81025 -10.25243
C    -7.00453   2.00724 -10.41421
N    -8.13765   2.22757 -10.53330
C    -4.84122   0.53080 -10.41480
C    -3.54632   0.86531 -10.16376
C    -2.22764   0.10186 -10.21839
O    -2.21439  -1.03513  -9.37934
C    -2.39015  -0.77670  -7.99020
O    -1.27861   1.04635  -9.73435
C     0.08749   0.66026  -9.75616
C    -1.85440  -0.34818 -11.64973
C    -2.97196  -0.67733 -12.63743
C    -3.79907  -1.93054 -12.35188
C    -4.59417  -1.96816 -11.04236
C    -5.55444  -0.77389 -10.75533
C    -6.37684  -0.58298 -12.04895
C    -7.22714  -1.72750 -12.54032
O    -6.28703   0.44317 -12.70153
C    -6.45978  -1.12984  -9.55560
C    -7.84799  -0.92695  -9.56905
C    -8.62945  -1.22940  -8.44917
C    -8.03701  -1.73647  -7.29138
C    -6.65370  -1.93968  -7.26418
C    -5.87663  -1.64041  -8.38423
H    -1.63001   5.39587 -11.76400
H    -0.29865   4.21360 -11.52201
H    -0.54102   5.54814 -10.33571
H    -3.12641   2.51036  -8.82526
H    -3.29080  -0.17285  -7.79554
H    -1.51746  -0.25932  -7.56221
H    -2.50278  -1.75375  -7.50199
H     0.62446   1.38130  -9.12462
H     0.22824  -0.35162  -9.34483
H     0.50985   0.69779 -10.77339
H    -1.17107  -1.20547 -11.54655
H    -1.27765   0.48160 -12.08075
H    -3.62611   0.19907 -12.75657
H    -2.49003  -0.81704 -13.61886
H    -3.12595  -2.80489 -12.34049
H    -4.47634  -2.09076 -13.20602
H    -3.90143  -2.04271 -10.20042
H    -5.20300  -2.88315 -11.03062
H    -8.21586  -1.33507 -12.81964
H    -7.33889  -2.54233 -11.81699
H    -6.76316  -2.12205 -13.45849
H    -8.34465  -0.52230 -10.44983
H    -9.70833  -1.06210  -8.48803
H    -8.64712  -1.97091  -6.41601
H    -6.17306  -2.33432  -6.36587
H    -4.80210  -1.80447  -8.34017
