43
Generated by autodE on: 2022-10-22. E = -925.178890 Ha
C     2.74394  -2.46617  -2.51395
O     1.41312  -2.89478  -2.27161
C     0.87632  -2.52643  -1.02303
O     1.62157  -3.12630   0.02365
C     2.46954  -2.32523   0.83655
C     0.74970  -1.06356  -0.84834
C     0.18672  -0.05913  -0.46952
C    -0.82823   0.83468   0.07818
C    -1.54189   1.59318  -1.07760
C    -0.66718   2.16761  -2.15395
O    -2.75061   1.72131  -1.07787
C    -0.26635   1.90734   1.02016
C    -1.13064   2.86218   1.57773
C    -0.64196   3.83183   2.45643
C     0.71667   3.86198   2.78719
C     1.58278   2.91640   2.23121
C     1.09452   1.94650   1.35066
C    -1.82074  -0.10267   0.83450
C    -2.27206  -1.37155   0.08139
C    -1.41116  -2.65952   0.22181
C    -0.55171  -3.10191  -0.97620
H     2.97835  -2.71601  -3.55777
H     3.46400  -2.97780  -1.85420
H     2.84506  -1.37437  -2.37570
H     3.06816  -3.02421   1.43784
H     1.89056  -1.67828   1.51603
H     3.15280  -1.69660   0.24332
H    -1.21007   2.94538  -2.70666
H    -0.39897   1.35548  -2.85018
H     0.27129   2.56360  -1.73968
H    -2.19182   2.85224   1.32181
H    -1.32696   4.56859   2.88263
H     1.09869   4.62092   3.47392
H     2.64615   2.93149   2.48186
H     1.77560   1.20931   0.92044
H    -1.34415  -0.38641   1.78542
H    -2.70126   0.50553   1.08424
H    -3.27338  -1.60998   0.47232
H    -2.42601  -1.13771  -0.98526
H    -2.10452  -3.49053   0.42223
H    -0.77181  -2.59289   1.11825
H    -0.42257  -4.19592  -0.96305
H    -1.04733  -2.84225  -1.92409
