47
Generated by autodE on: 2022-06-18. E = -795.381892 Ha
C     6.05978   0.61739   0.39052
C     4.94642  -0.05064   0.75598
C     4.90514  -0.89044   2.00590
C     3.73669   0.03726  -0.07032
C     2.56321  -0.57105   0.18621
C     1.33977  -0.43133  -0.66226
C     0.62463  -1.76307  -0.96216
N    -0.80752  -1.50092  -0.83857
C    -1.63033  -2.33240  -1.68794
C    -1.04258  -0.04425  -0.86745
C    -1.06245   0.48844  -2.31698
C    -2.35058   0.32057  -0.16063
C    -2.98668  -0.57790   0.71129
C    -4.15163  -0.22266   1.39624
C    -4.70931   1.04845   1.22990
C    -4.08858   1.95495   0.36632
C    -2.92731   1.59208  -0.32315
C     0.21567   0.47596  -0.05947
C     0.05469   0.22679   1.44776
C     0.53603   1.95453  -0.26785
H     6.97468   0.57415   0.98822
H     6.08130   1.22659  -0.51847
H     5.86998  -0.87047   2.53211
H     4.65944  -1.93948   1.77099
H     4.12449  -0.53311   2.69799
H     3.81797   0.66077  -0.96905
H     2.46605  -1.20297   1.07471
H     1.63910   0.03268  -1.61298
H     0.93557  -2.56211  -0.26430
H     0.89380  -2.11528  -1.97797
H    -1.50286  -3.39187  -1.40900
H    -2.69488  -2.08499  -1.56349
H    -1.38446  -2.24958  -2.76828
H    -1.93972   0.09526  -2.85083
H    -1.11341   1.58267  -2.36578
H    -0.16396   0.17283  -2.86705
H    -2.55234  -1.56629   0.85503
H    -4.62516  -0.94507   2.06621
H    -5.61939   1.32875   1.76588
H    -4.51021   2.95314   0.22329
H    -2.46733   2.31980  -0.99180
H     0.97801   0.50856   1.97547
H    -0.75997   0.83752   1.86215
H    -0.15881  -0.82641   1.67628
H     0.72005   2.20046  -1.32304
H     1.44520   2.21783   0.29582
H    -0.27958   2.59572   0.10133
