23
Generated by autodE on: 2022-06-18. E = -351.519069 Ha
C     3.73836  -0.20535  -0.55341
C     2.56572   0.02725   0.11049
C     2.55387   0.51846   1.53646
C     1.28750  -0.20117  -0.56033
C     0.07478  -0.01041  -0.01677
C    -1.16835  -0.24964  -0.71987
C    -2.42225  -0.06406  -0.20460
C    -3.64880  -0.33259  -1.02804
C    -2.66256   0.43094   1.20293
H     4.70823  -0.04342  -0.07448
H     3.74261  -0.56206  -1.58824
H     2.02011  -0.18677   2.19511
H     2.02869   1.48453   1.61986
H     3.57512   0.64593   1.92226
H     1.34482  -0.55831  -1.59536
H     0.00836   0.34729   1.01440
H    -1.08025  -0.60522  -1.75347
H    -4.28531   0.56892  -1.08697
H    -4.27305  -1.11322  -0.55656
H    -3.40225  -0.65332  -2.05092
H    -3.72666   0.36021   1.47182
H    -2.36535   1.48825   1.31258
H    -2.08748  -0.14127   1.94797
