28
Generated by autodE on: 2022-12-30. E = -724.031286 Ha
C    -3.40442  -0.01698   1.68290
N    -2.10298   0.35867   1.16980
C    -1.26975  -0.55116   0.61023
O    -1.57669  -1.75273   0.57915
C     0.00765  -0.02016   0.04580
C     0.07873   1.32362  -0.58823
O     1.05485   2.07609  -0.43077
N    -0.98739   1.68061  -1.34680
C    -1.16757   3.00015  -1.91362
C     1.15615  -0.76068   0.22532
O     1.18786  -1.71341   1.15368
C     2.18177  -2.74636   1.07317
O     2.30878  -0.63033  -0.41694
C     2.38864  -0.15569  -1.76790
H    -3.94533   0.89064   1.97860
H    -3.99363  -0.54761   0.91841
H    -3.32185  -0.67922   2.56080
H    -1.81628   1.32850   1.23241
H    -1.74450   1.01431  -1.45049
H    -2.07966   3.47913  -1.52189
H    -0.30142   3.61915  -1.65269
H    -1.24722   2.95406  -3.01158
H     1.89137  -3.49042   1.82447
H     3.17925  -2.34931   1.30730
H     2.18867  -3.20458   0.07375
H     2.58039   0.92348  -1.77978
H     3.22338  -0.69846  -2.22961
H     1.45485  -0.37513  -2.30511
