53
Generated by autodE on: 2022-12-30. E = -1483.710963 Ha. Imaginary frequency = -384.8 cm-1
C    -3.30743  -1.13302  -3.45586
N    -2.29499  -1.25498  -2.42183
C    -2.14244  -0.31061  -1.48522
O    -2.85086   0.69776  -1.43688
C    -1.06557  -0.53346  -0.41723
C    -1.74685  -0.95568   0.88223
O    -2.95072  -1.24990   0.86680
N    -1.00276  -0.97068   1.98783
C    -1.56779  -1.39468   3.25056
C    -0.39421   1.35569  -0.13888
C    -0.08841   1.71457  -1.52081
N     0.10693   2.02445  -2.61957
C    -1.60832   2.18020   0.33501
O    -1.91590   3.22203  -0.19443
O    -2.14998   1.67484   1.42103
C    -3.31301   2.33735   1.94895
N     0.65555   1.42262   0.73689
C     1.96244   0.94327   0.42183
C     2.78615   1.68989  -0.50090
C     2.48476   3.15959  -0.74382
O     3.78744   1.20427  -1.06142
C     2.42247  -0.13896   1.22482
C     3.80973  -0.71124   1.06958
O     1.68594  -0.64610   2.11979
C     0.12306  -1.26234  -0.86230
O     0.72807  -2.25035  -0.29548
C     0.15919  -3.26152   0.57971
O     0.63696  -0.86069  -1.98035
C     1.86646  -1.42775  -2.48802
H    -3.18166  -1.95496  -4.17039
H    -4.32178  -1.18131  -3.02901
H    -3.20393  -0.17518  -3.98705
H    -1.71798  -2.08944  -2.40409
H     0.01381  -0.75717   1.96732
H    -2.39843  -0.73804   3.55708
H    -1.95415  -2.42597   3.19119
H    -0.78148  -1.35332   4.01532
H    -3.07531   3.37942   2.20200
H    -4.12044   2.30371   1.20417
H    -3.59318   1.77481   2.84581
H     0.38506   1.36880   1.71900
H     2.43905   3.35601  -1.82464
H     1.56763   3.52374  -0.26643
H     3.34026   3.72854  -0.34274
H     4.56266   0.03754   0.79780
H     4.07848  -1.21674   2.00815
H     3.79856  -1.46765   0.26692
H     0.61342  -4.19947   0.24020
H     0.45637  -3.03861   1.60812
H    -0.92950  -3.30237   0.46429
H     1.98002  -0.99905  -3.48853
H     1.78860  -2.52088  -2.52877
H     2.69121  -1.11184  -1.83609
