60
Generated by autodE on: 2022-06-11. E = -1919.988688 Ha
C    -3.56630  -1.03141   1.16304
C    -2.07648  -1.21887   1.27421
O    -1.60718  -2.30104   1.56276
C    -1.12738   0.01191   1.12570
C    -1.48245   0.87975   2.37973
C    -0.44776   0.98218   3.45762
O    -2.59491   1.35657   2.50469
O     0.20470  -0.42064   1.26575
C     1.11848  -0.03780   0.24204
C     1.62287  -1.32778  -0.45823
C     2.69224  -1.30958  -1.37067
C     3.16019  -2.48764  -1.95222
C     2.58189  -3.71887  -1.62418
C     1.53782  -3.75117  -0.70048
C     1.06722  -2.56730  -0.11933
C     2.35778   0.58845   0.89871
C     3.25383   1.38839   0.17189
C     4.42589   1.86607   0.76244
C     4.72959   1.54283   2.08800
C     3.85421   0.72918   2.81150
C     2.68185   0.25079   2.21939
C     0.28035   0.96077  -0.65846
Cl    0.64180   0.71700  -2.41396
C     0.42099   2.51099  -0.34032
C    -0.24762   3.26302  -1.48317
C    -1.55734   3.07651  -1.29781
C    -1.67650   2.24994  -0.03102
O    -0.52485   2.67880   0.71629
C    -1.25333   0.75447  -0.27534
C    -2.11836   0.00642  -1.27208
C    -3.34781   0.53373  -1.69422
C    -4.18102  -0.18495  -2.55591
C    -3.80215  -1.45021  -3.00965
C    -2.57970  -1.98742  -2.59558
C    -1.74779  -1.26489  -1.73975
H    -3.87014  -0.01571   0.90341
H    -3.94278  -1.73823   0.40883
H    -4.01027  -1.30966   2.13209
H    -0.15439  -0.02498   3.79013
H     0.45686   1.47181   3.07475
H    -0.86704   1.55201   4.29652
H     3.17617  -0.37372  -1.64077
H     3.98767  -2.44125  -2.66427
H     2.95119  -4.64145  -2.07834
H     1.07998  -4.70295  -0.41969
H     0.25871  -2.60764   0.60529
H     3.04472   1.65179  -0.86552
H     5.10302   2.49482   0.17974
H     5.64513   1.91822   2.55088
H     4.08417   0.45789   3.84462
H     2.01711  -0.39913   2.78521
H     1.41288   2.84108  -0.03501
H     0.27053   3.76417  -2.29858
H    -2.39014   3.39646  -1.92133
H    -2.59352   2.36590   0.54688
H    -3.69214   1.50178  -1.33227
H    -5.13598   0.24682  -2.86402
H    -4.45490  -2.01446  -3.67974
H    -2.26681  -2.97574  -2.94024
H    -0.80272  -1.70613  -1.42999
