37
Generated by autodE on: 2022-07-27. E = -921.621236 Ha
C    -2.42955  -2.28606   1.80844
C    -1.41210  -1.26858   1.34927
O    -0.19738  -1.43725   1.61172
C    -1.84976  -0.12412   0.62685
O    -0.81963   0.82776   0.41596
C     0.34616   0.43292  -0.00778
C     0.47524  -0.64229  -0.99322
C     1.54816  -1.55025  -0.93452
C     1.67122  -2.54611  -1.90163
C     0.73445  -2.63718  -2.93635
C    -0.33157  -1.73162  -3.00277
C    -0.47191  -0.74420  -2.03098
C     1.46186   1.25647   0.41896
C     2.65649   1.32499  -0.33133
C     3.69921   2.14184   0.09647
C     3.56716   2.89109   1.27107
C     2.38514   2.83013   2.02179
C     1.33605   2.02218   1.60066
C    -3.16100   0.29873   0.26306
C    -3.27828   1.64641  -0.42421
O    -4.18201  -0.38885   0.47041
H    -1.91484  -3.05151   2.40482
H    -2.91214  -2.75904   0.93910
H    -3.23097  -1.81929   2.39834
H     2.26281  -1.49083  -0.11319
H     2.49890  -3.25603  -1.84598
H     0.83497  -3.41622  -3.69550
H    -1.05580  -1.79561  -3.81739
H    -1.29481  -0.03123  -2.08918
H     2.75206   0.76470  -1.26092
H     4.61713   2.20120  -0.49132
H     4.39026   3.52687   1.60513
H     2.29048   3.41047   2.94163
H     0.42075   1.94923   2.18835
H    -2.75605   1.63587  -1.39512
H    -2.81703   2.44391   0.17953
H    -4.34021   1.87278  -0.58739
