37
Generated by autodE on: 2022-06-11. E = -921.614997 Ha
C    -2.64847  -1.70604   1.62615
C    -2.97127  -0.37498   0.96890
O    -4.03178   0.21302   1.25240
C    -1.99899   0.14003   0.05034
O    -0.90869  -0.73965  -0.14470
C     0.34571  -0.42036  -0.09949
C     1.23909  -1.43540  -0.62310
C     2.59520  -1.48897  -0.22740
C     3.42220  -2.49479  -0.71762
C     2.91535  -3.45006  -1.60628
C     1.57201  -3.40655  -2.00318
C     0.73487  -2.41087  -1.51491
C     0.82089   0.84206   0.46488
C     1.87531   1.53872  -0.15696
C     2.34742   2.72888   0.39523
C     1.79006   3.21846   1.57902
C     0.75186   2.52026   2.21183
C     0.25356   1.34875   1.65375
C    -2.09483   1.33276  -0.73520
C    -1.13912   1.55391  -1.89645
O    -2.98270   2.18612  -0.53758
H    -2.43464  -2.48542   0.87791
H    -1.75156  -1.61746   2.26156
H    -3.50248  -2.01139   2.24518
H     2.98585  -0.76581   0.48799
H     4.46563  -2.54044  -0.40037
H     3.57047  -4.23424  -1.99240
H     1.18321  -4.14972  -2.70196
H    -0.30632  -2.35806  -1.83342
H     2.29896   1.16365  -1.08900
H     3.15237   3.27398  -0.10138
H     2.16348   4.14827   2.01380
H     0.32754   2.89730   3.14433
H    -0.55501   0.81030   2.14716
H    -0.40425   2.32974  -1.62962
H    -1.73663   1.94260  -2.73457
H    -0.59618   0.66029  -2.23198
