60
Generated by autodE on: 2022-06-11. E = -1919.912547 Ha. Imaginary frequency = -299.3 cm-1
C    -2.56192  -2.39338   0.84448
C    -1.21778  -1.96831   1.35456
O    -0.35839  -2.80086   1.65049
C    -0.90884  -0.53117   1.51033
C    -1.81953   0.30304   2.30595
C    -1.21353   1.26184   3.30336
O    -3.04703   0.22192   2.18585
O     0.39797  -0.17774   1.67495
C     1.42735  -0.29000   0.83757
C     1.75755  -1.56569   0.14045
C     2.99999  -2.17560   0.40658
C     3.35100  -3.38241  -0.20094
C     2.47619  -3.99916  -1.09892
C     1.23720  -3.40921  -1.36659
C     0.88241  -2.21495  -0.74617
C     2.52912   0.62774   1.18801
C     3.61325   0.80277   0.30297
C     4.61294   1.73260   0.58259
C     4.55615   2.49940   1.75134
C     3.48707   2.33020   2.63740
C     2.48022   1.40684   2.35905
C     0.42071   0.97158  -0.89077
Cl    1.25892   0.44608  -2.34009
C     0.75958   2.42479  -0.48044
C     0.02687   3.34537  -1.47931
C    -1.26853   3.22353  -1.16921
C    -1.29825   2.22660   0.00444
O    -0.07177   2.54443   0.67042
C    -0.96638   0.85309  -0.65587
C    -2.02416   0.14574  -1.37913
C    -3.37210   0.41770  -1.04713
C    -4.42092  -0.22019  -1.70606
C    -4.15923  -1.14467  -2.72143
C    -2.83400  -1.41381  -3.07688
C    -1.78086  -0.77726  -2.42152
H    -2.70827  -3.46051   1.05920
H    -3.36933  -1.78282   1.26357
H    -2.57721  -2.24515  -0.24803
H    -0.60170   2.02013   2.79844
H    -0.55505   0.72078   4.00073
H    -2.02738   1.74582   3.85834
H     3.69160  -1.71690   1.11259
H     4.31445  -3.84107   0.03246
H     2.75527  -4.93811  -1.58264
H     0.53743  -3.88104  -2.05976
H    -0.08779  -1.78447  -0.96572
H     3.65387   0.23339  -0.62483
H     5.43910   1.86256  -0.11987
H     5.34217   3.22560   1.97046
H     3.43741   2.92111   3.55473
H     1.65125   1.28113   3.05294
H     1.80902   2.64182  -0.26648
H     0.50340   3.90880  -2.28037
H    -2.14837   3.64809  -1.65062
H    -2.15259   2.27698   0.68181
H    -3.60628   1.11804  -0.24794
H    -5.45097   0.00503  -1.42082
H    -4.98142  -1.64678  -3.23618
H    -2.61396  -2.12364  -3.87745
H    -0.76478  -0.99466  -2.73733
