53
Generated by autodE on: 2022-06-22. E = -1093.854891 Ha
C     0.83321  -2.47118  -1.06388
C     0.22849  -2.04013   0.05216
C    -0.23440  -2.99016   1.12272
C    -0.03543  -0.57310   0.32851
C     0.97330   0.42781  -0.27473
C     2.30275   0.36066   0.41163
C     3.49640   0.08977  -0.14731
C     4.74061   0.00971   0.69652
C     3.71589  -0.16632  -1.61368
C     0.20023   1.77977  -0.19205
C     0.54495   2.59260   1.06115
C     1.72869   3.50897   0.97240
O    -0.13881   2.51271   2.07197
N    -1.19224   1.40782  -0.20001
C    -2.13480   2.28087  -0.85655
C    -1.43023  -0.01654  -0.15725
C    -1.72158  -0.58220  -1.56884
O    -1.10967  -0.11450  -2.54028
N    -2.59277  -1.58890  -1.67822
C    -2.80565  -2.27536  -2.93480
C    -2.48988  -0.33749   0.92823
O    -3.19922  -1.36100   0.91906
N    -2.52813   0.54805   1.92692
C    -3.34163   0.33915   3.10621
H     1.00155  -3.53959  -1.22872
H     1.17284  -1.79283  -1.84793
H     0.25925  -2.75775   2.08233
H    -0.01890  -4.03636   0.86145
H    -1.31737  -2.88643   1.29415
H    -0.02357  -0.43134   1.42029
H     1.07700   0.21528  -1.34213
H     2.27356   0.51909   1.49712
H     5.48952   0.74872   0.36112
H     4.53050   0.18598   1.76183
H     5.21809  -0.98099   0.59452
H     4.05521  -1.20486  -1.77344
H     2.81971  -0.00303  -2.22549
H     4.51889   0.48518  -1.99898
H     0.47087   2.39546  -1.06856
H     2.06635   3.81102   1.97256
H     1.41126   4.40675   0.41260
H     2.54886   3.04859   0.40302
H    -1.97923   2.34728  -1.95121
H    -2.06394   3.29802  -0.43764
H    -3.16174   1.92471  -0.68241
H    -3.03483  -1.89720  -0.80794
H    -3.60310  -3.01791  -2.80708
H    -1.88942  -2.79326  -3.26574
H    -3.09960  -1.57184  -3.72905
H    -1.85709   1.32122   1.87505
H    -3.27669   1.22795   3.74601
H    -3.00324  -0.53822   3.68279
H    -4.39491   0.17544   2.83203
