23
Generated by autodE on: 2022-06-22. E = -351.521384 Ha
C     3.42902  -1.37914  -0.79849
C     2.49947  -0.44820  -0.49015
C     2.87090   1.00212  -0.31437
C     1.10175  -0.84059  -0.32133
C     0.07716  -0.00605  -0.01372
C    -1.29322  -0.44939   0.14252
C    -2.37052   0.31751   0.44753
C    -3.73756  -0.29269   0.57572
C    -2.31750   1.80072   0.68082
H     4.48157  -1.11356  -0.93065
H     3.15574  -2.43120  -0.92579
H     2.32366   1.64143  -1.02699
H     3.94807   1.15887  -0.46680
H     2.60788   1.36021   0.69485
H     0.88357  -1.90648  -0.45959
H     0.28655   1.05808   0.12546
H    -1.46269  -1.52294  -0.00488
H    -4.44258   0.17352  -0.13588
H    -3.72764  -1.37764   0.39543
H    -4.15516  -0.10944   1.58214
H    -2.98048   2.32315  -0.03138
H    -1.31059   2.22691   0.58597
H    -2.70009   2.04289   1.68806
