30
Generated by autodE on: 2022-06-22. E = -742.271501 Ha
C    -2.94798   1.51150   2.36348
N    -2.24940   0.51784   1.58007
C    -1.12708   0.83668   0.89304
O    -0.71931   2.01430   0.84484
C    -0.40453  -0.29415   0.26732
C    -0.93558  -1.66853   0.28874
O    -1.73442  -2.08000   1.15928
N    -0.57979  -2.48429  -0.73285
C    -1.00916  -3.86742  -0.77934
N     0.81495  -0.04197  -0.32703
C     1.92002  -1.00962  -0.11324
C     1.05333   1.10111  -0.96562
C     2.35580   1.62416  -1.37246
C     2.28058   2.96484  -2.06213
O     3.43483   1.05469  -1.19136
H    -2.36843   1.83768   3.24554
H    -3.16132   2.40577   1.75894
H    -3.89855   1.08714   2.71205
H    -2.41924  -0.47893   1.72633
H    -0.02195  -2.12816  -1.49957
H    -0.72865  -4.40094   0.14228
H    -2.10222  -3.95055  -0.89703
H    -0.52545  -4.35742  -1.63336
H     1.55113  -1.85073   0.47573
H     2.32251  -1.34883  -1.07463
H     2.71434  -0.49622   0.43876
H     0.18278   1.70747  -1.19157
H     3.28659   3.29072  -2.35577
H     1.63270   2.90172  -2.95175
H     1.82765   3.71038  -1.38761
