16
Generated by autodE on: 2022-06-04. E = -2920.439891 Ha
C    -2.40034  -0.08274   0.93552
C    -1.06284  -0.61887   0.58888
C    -0.05774  -0.14403  -0.15672
Br    0.06480   1.47687  -1.09950
C     1.13424  -1.10997   0.03757
C     1.61356  -0.94035   1.49985
C     0.61898  -1.43703   2.24137
C    -0.44477  -1.89912   1.21855
O     0.40812  -2.34573   0.14353
H    -2.45841   0.11862   2.02024
H    -2.61402   0.85215   0.39781
H    -3.19448  -0.81343   0.70720
H     1.89292  -1.13224  -0.75203
H     2.54187  -0.45849   1.80463
H     0.50692  -1.47533   3.32437
H    -1.15339  -2.67256   1.53560
