36
Generated by autodE on: 2022-07-27. E = -804.653210 Ha
C     5.06693   0.90866  -0.14906
N     3.62270   1.04051  -0.09476
C     2.83390   0.22643   0.61808
O     3.21997  -0.72611   1.30236
C     1.35532   0.55116   0.60024
C     0.91532   1.83176   1.20456
N     0.52407  -0.35458   0.15037
C     1.02195  -1.52855  -0.59217
C    -0.87287  -0.31344   0.43518
C    -1.29594  -0.38510   1.79161
C    -0.28717  -0.64652   2.90293
O    -2.50279  -0.29918   2.14015
C    -1.74711  -0.19284  -0.73045
C    -1.22741   0.28334  -1.96043
C    -2.03083   0.40462  -3.09462
C    -3.38758   0.06922  -3.04408
C    -3.92261  -0.39299  -1.83552
C    -3.12419  -0.52493  -0.69988
H     5.35790  -0.02226   0.35092
H     5.55827   1.75431   0.35724
H     5.40790   0.87877  -1.19401
H     3.18772   1.80590  -0.60435
H     1.57185   2.64636   0.86183
H     1.01244   1.79196   2.30285
H    -0.13340   2.04371   0.95669
H     0.20561  -1.91509  -1.20956
H     1.32673  -2.29979   0.12751
H     1.87005  -1.25453  -1.23199
H    -0.70981  -1.43213   3.54787
H    -0.18875   0.25777   3.52666
H     0.71473  -0.95403   2.57871
H    -0.17739   0.57651  -2.02616
H    -1.59194   0.77578  -4.02460
H    -4.01879   0.16887  -3.93017
H    -4.98097  -0.66156  -1.77614
H    -3.55625  -0.88338   0.23123
