35
Generated by autodE on: 2022-10-20. E = -902.905760 Ha
C     3.19144   0.35054   2.14457
O     2.21355   0.54033   1.10919
C     2.24715  -0.30307   0.08470
O     3.06794  -1.18266  -0.04951
C     1.09878  -0.04514  -0.90511
C     1.48456  -0.57388  -2.27809
N     0.88269   1.43582  -0.98019
N    -0.17556   1.81169  -0.46594
C    -0.97254   0.70317   0.13630
O    -0.97853   0.86166   1.52039
C    -1.75189   1.95081   2.01967
C    -2.33490   0.56445  -0.56791
C    -3.10245  -0.57715   0.13635
C    -2.35219  -1.85833  -0.33517
C    -1.20912  -1.30306  -1.21312
C    -1.91182  -0.10596  -1.88782
C    -0.21218  -0.59817  -0.28290
F     0.10453  -1.39428   0.81443
H     3.00280   1.13723   2.88351
H     3.06825  -0.64173   2.60162
H     4.20646   0.44491   1.73366
H     0.70156  -0.36874  -3.01813
H     2.41441  -0.09305  -2.61288
H     1.65149  -1.65759  -2.22530
H    -1.59011   1.97397   3.10572
H    -1.42682   2.90928   1.58703
H    -2.82709   1.81211   1.82240
H    -2.88213   1.51101  -0.65230
H    -4.15050  -0.57713  -0.19397
H    -3.09506  -0.46637   1.22839
H    -2.99917  -2.49842  -0.95118
H    -1.97555  -2.46409   0.49816
H    -0.74585  -2.04508  -1.87332
H    -2.77442  -0.42520  -2.48948
H    -1.26470   0.51785  -2.51850
