35
Generated by autodE on: 2022-10-20. E = -902.828822 Ha. Imaginary frequency = -430.8 cm-1
C     3.08566   0.29149   2.13431
O     2.33285   0.68718   0.98152
C     2.36910  -0.13730  -0.07256
O     3.05732  -1.14072  -0.12791
C     1.40732   0.23809  -1.12929
C     1.57180  -0.37619  -2.48783
N     0.92898   1.50133  -1.03915
N     0.02745   2.10716  -0.62912
C    -1.15050   0.41546   0.37663
O    -1.03856   0.80518   1.67574
C    -1.74640   1.98375   2.04743
C    -2.44855   0.41973  -0.41249
C    -3.27214  -0.77777   0.16161
C    -2.46757  -2.02296  -0.31860
C    -1.27691  -1.39329  -1.10969
C    -1.97192  -0.17476  -1.75046
C    -0.42646  -0.69251  -0.07710
F     0.25532  -1.46127   0.82709
H     2.94222   1.08608   2.87566
H     2.70582  -0.66388   2.52523
H     4.15251   0.18997   1.88835
H     0.72455  -0.12678  -3.13965
H     2.50596  -0.05390  -2.97694
H     1.61534  -1.46695  -2.36577
H    -1.46804   2.20421   3.08656
H    -1.46560   2.83311   1.40559
H    -2.83696   1.83344   1.99285
H    -2.98711   1.37423  -0.45482
H    -4.29051  -0.76935  -0.25455
H    -3.35468  -0.71903   1.25635
H    -3.06787  -2.66101  -0.98390
H    -2.10753  -2.64664   0.51196
H    -0.74725  -2.08321  -1.77842
H    -2.81146  -0.46999  -2.39625
H    -1.29956   0.48450  -2.31308
