44
Generated by autodE on: 2022-06-20. E = -1030.006204 Ha
C     2.06449   1.49346  -2.99611
O     1.69902   0.59521  -1.93518
C     1.70164   1.09156  -0.71139
O     2.07015   2.21192  -0.42624
C     1.15673   0.10792   0.35027
C     1.98398   0.30441   1.56488
N     2.62671   0.36555   2.52977
C    -0.36043   0.44204   0.73694
N    -0.83078   1.77174   0.50230
C    -0.45058   2.81656   1.43841
C    -1.30413   2.08779  -0.76535
C    -1.57500   1.16526  -1.70752
C    -1.33632  -0.30243  -1.49451
C    -1.15119  -0.66748   0.00393
C    -2.54727  -0.89704   0.60046
N    -3.05669   0.08949   1.35618
O    -3.17869  -1.93256   0.36175
C    -0.20072  -1.89938   0.19594
C    -0.45688  -3.03518  -0.79906
C    -0.27679  -2.47517   1.62374
N     1.10606  -1.26209  -0.08433
C     2.32817  -2.03247  -0.01473
H     3.08078   1.87979  -2.83732
H     1.34996   2.32817  -3.03751
H     2.01743   0.90319  -3.91772
H    -0.42487   0.26018   1.81615
H     0.59548   3.14192   1.31217
H    -1.10806   3.68672   1.30138
H    -0.57651   2.44954   2.46877
H    -1.48429   3.15215  -0.93255
H    -1.97003   1.49763  -2.66941
H    -2.16882  -0.89503  -1.90345
H    -0.43871  -0.61544  -2.04703
H    -4.01071  -0.00099   1.69267
H    -2.58725   0.98916   1.42577
H    -0.27002  -2.72465  -1.83520
H    -1.49750  -3.36974  -0.71135
H     0.19463  -3.89317  -0.57777
H     0.51364  -3.22805   1.75986
H    -1.24241  -2.97140   1.79212
H    -0.14307  -1.70817   2.40040
H     3.14667  -1.46363  -0.48363
H     2.64178  -2.28654   1.01728
H     2.21465  -2.96875  -0.57767
