20
Generated by autodE on: 2022-06-20. E = -457.715329 Ha
C    -3.08225  -0.74071  -0.23104
N    -1.82274  -0.01741  -0.16996
C    -1.79820   1.35096  -0.46736
C    -0.66289   2.06686  -0.49203
C     0.69336   1.47224  -0.20265
C     0.57173  -0.01736   0.07499
C     1.75748  -0.84060   0.36128
N     2.94855  -0.19061   0.35822
O     1.70530  -2.06534   0.59581
C    -0.63828  -0.64501   0.07313
H    -3.48270  -0.76451  -1.25849
H    -2.92471  -1.77268   0.10647
H    -3.83373  -0.26967   0.42184
H    -2.77402   1.79297  -0.67690
H    -0.72500   3.13135  -0.72948
H     1.38000   1.66165  -1.05285
H     1.16500   1.99738   0.65351
H     3.79178  -0.72129   0.54692
H     3.03144   0.79991   0.16808
H    -0.69810  -1.71514   0.27747
