24
Generated by autodE on: 2022-07-27. E = -572.270801 Ha
C     0.65160   2.27621  -2.52173
O     0.29145   1.20384  -1.65122
C     0.81460   1.24155  -0.39381
O     1.51389   2.18255  -0.01077
C     0.45201   0.10914   0.39671
C     0.83475   0.04886   1.74170
N     1.13931  -0.01827   2.87278
N    -0.30709  -0.97685  -0.14883
C     0.27838  -1.71365  -1.28576
C    -1.43019  -1.38224   0.39313
C    -2.07172  -2.64179  -0.07800
C    -2.07224  -0.60167   1.48037
H     1.74161   2.31988  -2.66851
H     0.30600   3.24220  -2.12366
H     0.15616   2.07068  -3.47886
H     1.13342  -1.14940  -1.66345
H    -0.46410  -1.83910  -2.08363
H     0.61903  -2.70182  -0.94476
H    -2.88244  -2.93516   0.59874
H    -2.49773  -2.48797  -1.08506
H    -1.34369  -3.46296  -0.15859
H    -1.67785  -0.92573   2.46058
H    -1.85723   0.47189   1.38146
H    -3.15445  -0.78763   1.48033
