44
Generated by autodE on: 2022-06-20. E = -1029.961175 Ha. Imaginary frequency = -273.9 cm-1
C     1.92043   2.06289  -2.34406
O     1.64754   0.94581  -1.50173
C     2.03116   1.04425  -0.20156
O     2.57401   2.06985   0.22904
C     1.73260  -0.11818   0.57638
C     2.20117  -0.11521   1.90431
N     2.58127  -0.11029   3.01461
C    -0.99626   0.76779   0.54425
N    -0.93625   1.93119  -0.09522
C    -0.49580   3.15010   0.58184
C    -1.37537   2.04470  -1.43184
C    -1.63985   0.95444  -2.16263
C    -1.35469  -0.41524  -1.62258
C    -1.41633  -0.45056  -0.09690
C    -2.67319  -1.07325   0.45192
N    -3.09698  -0.70629   1.68339
O    -3.31832  -1.89188  -0.21798
C     0.03826  -1.85948   0.44413
C    -0.38923  -3.12087  -0.26428
C    -0.15953  -1.94151   1.94390
N     1.21731  -1.30535  -0.01090
C     1.97221  -1.91961  -1.11242
H     1.39281   2.96388  -1.99852
H     3.00013   2.27243  -2.38587
H     1.55562   1.78665  -3.34104
H    -0.83718   0.82977   1.62173
H     0.31630   3.61798   0.01096
H    -1.33572   3.85701   0.65793
H    -0.13131   2.89897   1.58380
H    -1.49629   3.06891  -1.78417
H    -2.01686   1.07298  -3.18081
H    -2.05655  -1.15462  -2.02853
H    -0.34809  -0.71295  -1.96080
H    -3.86396  -1.22835   2.09526
H    -2.56210  -0.09301   2.28536
H    -1.38610  -3.42607   0.07112
H    -0.40119  -3.01278  -1.35538
H     0.31640  -3.93036  -0.01161
H     0.63264  -2.59123   2.35216
H    -1.12557  -2.40093   2.18080
H    -0.09143  -0.97959   2.46231
H     2.89390  -1.34794  -1.25835
H     2.24981  -2.95600  -0.86219
H     1.42073  -1.92847  -2.06226
