23
Generated by autodE on: 2022-06-17. E = -351.521385 Ha
C     3.13130   1.99269  -0.72236
C     2.08917   1.52377  -0.00136
C     1.87436   1.94437   1.43013
C     1.14305   0.58980  -0.60862
C     0.06222   0.04719   0.00636
C    -0.84622  -0.87549  -0.64336
C    -1.94429  -1.45909  -0.10001
C    -2.79339  -2.40072  -0.90631
C    -2.41315  -1.23644   1.30981
H     3.85399   2.69238  -0.29334
H     3.28427   1.68543  -1.76155
H     1.88319   1.07308   2.10596
H     2.65378   2.64541   1.76045
H     0.89335   2.43135   1.55838
H     1.34222   0.31718  -1.65206
H    -0.14262   0.31380   1.04678
H    -0.60829  -1.11860  -1.68601
H    -2.84719  -3.39209  -0.42144
H    -2.41115  -2.53369  -1.92905
H    -3.83415  -2.03467  -0.96704
H    -1.78122  -0.54424   1.88095
H    -3.44460  -0.84177   1.31140
H    -2.45270  -2.19588   1.85535
