24
Generated by autodE on: 2022-06-17. E = -443.816200 Ha
C     3.46382   0.62885   0.94624
C     2.87239  -0.15278  -0.17120
C     3.72056  -0.86181  -1.17154
N     1.55429  -0.21270  -0.27358
C     0.58461   0.34848   0.50808
C    -0.80790   0.18102   0.24774
C    -1.34574  -0.58100  -0.83190
C    -2.72085  -0.69824  -1.02422
C    -3.63310  -0.07221  -0.16358
C    -3.12663   0.68246   0.90657
C    -1.75678   0.80793   1.11002
H     4.56076   0.59270   0.91423
H     3.14677   1.68943   0.90866
H     3.12868   0.24451   1.92940
H     4.37574  -1.60779  -0.68521
H     4.39067  -0.15824  -1.69894
H     3.11011  -1.38245  -1.92528
H     1.21473  -0.76518  -1.06280
H     0.91891   0.94480   1.35396
H    -0.68111  -1.09227  -1.53427
H    -3.08795  -1.29290  -1.86592
H    -4.70935  -0.16924  -0.32169
H    -3.81549   1.18186   1.59428
H    -1.38660   1.40177   1.95077
