14
Generated by autodE on: 2022-06-16. E = -270.683224 Ha
C    -1.88625  -0.45314   1.32558
C    -0.77343  -0.17753   0.36450
C    -1.13574  -0.20280  -1.09278
C     0.48382   0.07615   0.82069
C     1.64945   0.35649  -0.00420
O     1.68810   0.40103  -1.23175
H    -2.33132  -1.44057   1.11016
H    -1.55873  -0.42629   2.37393
H    -2.69755   0.28196   1.18094
H    -2.20742  -0.40259  -1.23187
H    -0.88313   0.75202  -1.57989
H    -0.55884  -0.97511  -1.62646
H     0.66388   0.07669   1.89973
H     2.58371   0.54464   0.57873
