15
Generated by autodE on: 2022-07-27. E = -304.928806 Ha
C    -0.89146  -2.01537  -1.34076
C    -0.51544  -1.00452  -0.31697
N     0.16842   0.08527  -0.58692
C     0.58813   0.32180  -1.98166
C     0.54786   1.06264   0.32427
C     0.21370   0.95643   1.66577
N    -0.07550   0.85497   2.80415
H    -1.51558  -1.58686  -2.14571
H    -0.00930  -2.46559  -1.83114
H    -1.46191  -2.82343  -0.86405
H    -0.80598  -1.14188   0.72682
H     1.14873   1.25895  -2.03823
H     1.22202  -0.50760  -2.32075
H    -0.29731   0.38204  -2.62750
H     1.10985   1.90963  -0.05694
