38
Generated by autodE on: 2022-05-29. E = -1414.811204 Ha
C     2.27451   1.89920  -2.98137
O     2.02116   1.05994  -1.84170
C     0.91135   1.29985  -1.15994
O     0.13357   2.19289  -1.41149
C     0.69249   0.30335  -0.01313
C     1.97102  -0.43054   0.48576
C     1.68495  -1.08923   1.84859
C     0.72798  -2.26374   1.48626
C     0.58658  -2.14888  -0.04756
C     1.98910  -1.65931  -0.44906
C    -0.26314  -0.90272  -0.38644
Cl   -0.74137  -0.92576  -2.15008
C    -1.46839  -0.60960   0.46563
C    -2.67796  -1.46357   0.53246
C    -3.85844  -0.94726   1.30214
O    -2.66854  -2.55070  -0.02906
N    -1.32415   0.43255   1.21527
N    -0.11366   0.98575   1.00780
C     0.31498   2.12496   1.66436
C    -0.63313   2.73311   2.65323
O     1.42745   2.56416   1.40287
H     3.22085   1.54837  -3.40730
H     1.46088   1.79386  -3.71281
H     2.35870   2.94916  -2.66839
H     2.85191   0.21859   0.47050
H     1.25497  -0.39204   2.57941
H     2.62921  -1.46175   2.26905
H    -0.23519  -2.21730   2.01195
H     1.18155  -3.23592   1.72489
H     0.20173  -3.05023  -0.53615
H     2.77797  -2.37485  -0.17642
H     2.07827  -1.41046  -1.51327
H    -4.65049  -1.70646   1.31280
H    -3.56381  -0.69094   2.33096
H    -4.23112  -0.02212   0.83355
H    -0.89049   2.00734   3.43849
H    -1.56863   3.02439   2.15272
H    -0.15542   3.61428   3.09751
