15
Generated by autodE on: 2022-05-29. E = -454.229232 Ha
C    -3.05962  -0.55850  -0.55585
C    -2.36628   0.26373   0.48224
O    -2.90862   0.90429   1.36409
C    -0.90577   0.27731   0.39941
N     0.25980   0.33503   0.41218
N     1.51546   0.42142   0.45668
C     2.16979  -0.32071  -0.54273
C     3.66196  -0.19974  -0.46322
O     1.57559  -0.98786  -1.37803
H    -2.79762  -0.18271  -1.55873
H    -2.70899  -1.60194  -0.49644
H    -4.14516  -0.50911  -0.40017
H     4.13055  -0.78802  -1.26135
H     4.01229  -0.55183   0.51992
H     3.95608   0.85798  -0.55125
