38
Generated by autodE on: 2022-05-29. E = -1414.688061 Ha. Imaginary frequency = -375.8 cm-1
C     2.35531   2.90296  -1.93426
O     2.22696   1.60361  -1.34354
C     0.98646   1.09066  -1.28471
O     0.00833   1.67979  -1.71602
C     0.97249  -0.24263  -0.66847
C     2.20020  -1.04262  -0.23677
C     2.05130  -1.51331   1.23586
C     0.90505  -2.56056   1.15356
C     0.50168  -2.52428  -0.34410
C     1.90226  -2.36526  -0.99630
C    -0.08561  -1.14838  -0.69449
Cl   -1.43035  -1.06847  -1.83466
C    -1.31213  -0.50609   0.99338
C    -2.49598  -1.36276   1.24757
C    -3.70775  -0.61782   1.72487
O    -2.44963  -2.55873   1.04498
N    -0.80553   0.50364   1.42090
N     0.25701   1.18576   1.40392
C     0.15630   2.58206   1.29142
C    -1.21625   3.19161   1.26329
O     1.19024   3.22114   1.18133
H     3.41555   3.16851  -1.84937
H     2.05606   2.87647  -2.99245
H     1.73718   3.63477  -1.39707
H     3.14395  -0.53337  -0.45543
H     1.82492  -0.67520   1.90461
H     2.99222  -1.97587   1.56669
H     0.06704  -2.34949   1.82806
H     1.26718  -3.57074   1.39326
H    -0.12692  -3.35984  -0.66912
H     2.59477  -3.18451  -0.74780
H     1.85361  -2.23455  -2.08701
H    -4.51960  -1.33007   1.92010
H    -3.46490  -0.04392   2.63279
H    -4.01188   0.10442   0.94955
H    -1.81568   2.85846   2.12357
H    -1.72860   2.85382   0.34688
H    -1.13295   4.28488   1.25675
