26
Generated by autodE on: 2022-06-20. E = -669.350868 Ha
C    -2.47979   1.83575   0.04832
C    -2.91040   0.38515   0.06019
O    -4.11221   0.06752   0.06909
C    -1.88435  -0.61847   0.06575
C    -2.21777  -1.98142  -0.00635
N    -2.57280  -3.09371  -0.09299
O    -0.59515  -0.14681   0.01978
C     0.55356  -0.69629   0.21347
C     0.64597  -2.11555   0.61983
C     1.68576   0.19360   0.01629
C     3.01038  -0.26001   0.20178
C     4.08492   0.60436   0.00452
C     3.86115   1.93034  -0.37772
C     2.55138   2.39301  -0.56592
C     1.47337   1.53793  -0.37585
H    -1.90976   2.06409  -0.86635
H    -1.82754   2.06521   0.90463
H    -3.37549   2.46921   0.08632
H     1.65925  -2.39232   0.92232
H    -0.04437  -2.29787   1.45928
H     0.33528  -2.77364  -0.20812
H     3.20770  -1.28877   0.50015
H     5.10354   0.23956   0.15039
H     4.70613   2.60516  -0.53151
H     2.37458   3.42774  -0.86645
H     0.45726   1.89987  -0.52878
