49
Generated by autodE on: 2022-06-20. E = -1020.863064 Ha. Imaginary frequency = -270.5 cm-1
C    -0.73621  -2.76202  -2.24283
C     0.04729  -1.73191  -2.61269
C     0.96953  -1.83107  -3.80113
C     0.03917  -0.42042  -1.92650
C    -1.09529   0.07669  -1.28269
C    -1.26474   1.45546  -0.95682
C    -2.35825   2.00004  -0.34648
C    -3.57285   1.21948   0.05726
C    -2.41640   3.47057  -0.07118
C    -0.52309  -1.14799   1.14582
C    -0.80733   0.09540   1.73589
N    -1.13039   1.09828   2.24423
C    -1.44630  -2.23329   1.37798
C    -1.00427  -3.65114   1.10102
O    -2.57861  -2.00950   1.84022
O     0.67623  -1.47880   0.57641
C     1.46842  -0.73648  -0.19079
C     2.55044  -1.55904  -0.81990
C     1.85944   0.62867   0.25689
C     2.25221   1.62959  -0.64909
C     2.70624   2.86435  -0.18809
C     2.80038   3.11383   1.18573
C     2.45669   2.11019   2.09402
C     1.99529   0.87553   1.63504
H    -0.70898  -3.71061  -2.78590
H    -1.43629  -2.68963  -1.40986
H     0.64848  -1.12863  -4.59005
H     2.00143  -1.55155  -3.53907
H     0.97851  -2.84560  -4.22487
H     0.71959   0.32054  -2.34891
H    -1.93785  -0.59720  -1.12714
H    -0.43665   2.12489  -1.20600
H    -3.40833   0.13619   0.09941
H    -3.92262   1.55024   1.04751
H    -4.39707   1.42133  -0.65078
H    -2.49539   3.64709   1.01544
H    -1.53128   4.00124  -0.44972
H    -3.32085   3.91498  -0.52318
H    -0.14220  -3.72456   0.42980
H    -1.85330  -4.21774   0.69241
H    -0.73350  -4.11006   2.06768
H     3.04827  -0.99223  -1.61621
H     2.15600  -2.50552  -1.21178
H     3.30854  -1.78324  -0.04909
H     2.19706   1.44955  -1.72262
H     2.99034   3.63618  -0.90667
H     3.15377   4.08306   1.54478
H     2.55104   2.28361   3.16828
H     1.76148   0.09052   2.35467
