71
Generated by autodE on: 2022-06-13. E = -1873.642550 Ha
C    -2.05053   8.09305  10.10181
O    -1.91920   7.68366   8.73108
C    -1.51490   6.43468   8.51453
O    -1.26418   5.65154   9.40448
C    -1.31820   6.14661   7.01703
C     0.07931   6.77588   6.71000
O     0.42905   7.16905   5.62066
O     0.84236   6.83463   7.79416
C     2.17392   7.35675   7.64498
C    -2.35623   6.85173   6.06763
C    -3.51381   6.01217   5.52715
C    -4.60225   5.59765   6.52306
C    -4.16561   5.08102   7.89682
C    -3.37193   3.75228   7.97369
C    -2.87747   3.46804   9.44535
C    -3.74204   3.95330  10.57144
O    -1.87478   2.81494   9.63382
C    -4.31173   2.53871   7.76802
O    -3.91784   1.38932   7.82938
O    -5.57994   2.85801   7.58151
C    -6.50201   1.77143   7.38088
C    -2.16586   3.67942   7.03107
C    -1.28703   4.65111   6.70992
C    -0.22372   4.13626   5.76607
C     1.14785   4.01373   6.42775
C     1.29091   3.60975   7.76357
C     2.56145   3.47229   8.32708
C     3.70423   3.73098   7.56247
C     3.56974   4.13245   6.23028
C     2.29711   4.27640   5.67077
N    -0.79097   2.86901   5.29571
C     0.10846   1.90651   4.68802
C    -1.77407   2.39405   6.26726
C    -1.19837   1.34019   7.14487
N    -0.61726   0.51732   7.72034
C    -2.94829   1.83181   5.43093
O    -3.82709   2.53504   4.98048
O    -2.82948   0.53483   5.19987
C    -3.85512  -0.08431   4.40174
H    -2.34987   9.14659  10.07267
H    -1.09132   7.97939  10.62605
H    -2.82098   7.49110  10.60467
H     2.13192   8.41035   7.33526
H     2.72591   6.76822   6.90084
H     2.64127   7.26384   8.63115
H    -1.77893   7.20288   5.20411
H    -2.73103   7.74572   6.58357
H    -3.11822   5.13088   5.00612
H    -3.99845   6.62037   4.74563
H    -5.25715   4.85746   6.04014
H    -5.23364   6.47842   6.72907
H    -5.06927   4.95143   8.50250
H    -3.61157   5.86952   8.41298
H    -3.71462   5.05199  10.61817
H    -3.36901   3.53864  11.51633
H    -4.79122   3.65971  10.41388
H    -6.48069   1.08964   8.24179
H    -7.48928   2.23500   7.27987
H    -6.23848   1.22493   6.46421
H    -0.11178   4.80811   4.90111
H     0.40733   3.42122   8.37426
H     2.65957   3.16505   9.37100
H     4.69693   3.62479   8.00638
H     4.45647   4.34309   5.62778
H     2.18965   4.60596   4.63441
H     0.84359   1.47570   5.39279
H     0.66182   2.40225   3.87794
H    -0.47098   1.08320   4.24823
H    -3.55772  -1.13301   4.29429
H    -4.82156  -0.01050   4.92070
H    -3.91919   0.40209   3.41897
