42
Generated by autodE on: 2022-06-18. E = -866.283352 Ha
C     4.02300   1.44206   2.14482
C     3.36605   0.94672   1.07658
C     3.91527   1.07095  -0.32021
C     2.07163   0.28127   1.26050
C     1.33187  -0.26201   0.27892
C    -0.01908  -0.87532   0.49585
C    -0.18133  -2.28594  -0.15426
C    -1.32926  -3.05605   0.51424
C     1.09236  -3.12980  -0.10903
C    -0.56284  -1.89059  -1.58457
O    -1.38240  -0.71668  -1.46854
C    -1.15187  -0.07284  -0.22020
C    -2.45600  -0.02528   0.60495
C    -3.73390   0.01608  -0.17996
O    -2.41891   0.02048   1.81940
C    -0.74317   1.40143  -0.42740
O    -0.67552   2.17399   0.53288
N    -0.47499   1.73983  -1.69257
C     0.03315   3.04763  -2.05406
H     4.98554   1.95026   2.03837
H     3.61075   1.35108   3.15447
H     3.21789   1.62839  -0.96843
H     4.88356   1.59088  -0.32386
H     4.05113   0.08000  -0.78438
H     1.68942   0.24822   2.28757
H     1.69463  -0.22945  -0.75217
H    -0.23521  -0.90360   1.57106
H    -1.43541  -4.05012   0.05226
H    -1.13085  -3.19586   1.58786
H    -2.29905  -2.54728   0.41378
H     0.92457  -4.09690  -0.60921
H     1.93674  -2.63263  -0.60746
H     1.38480  -3.33436   0.93274
H    -1.14533  -2.66496  -2.10505
H     0.33118  -1.65553  -2.18769
H    -3.87228  -0.93826  -0.71079
H    -3.67761   0.80071  -0.95116
H    -4.58128   0.19762   0.49324
H    -0.55864   1.00369  -2.38771
H    -0.08199   3.19395  -3.13523
H     1.10023   3.15268  -1.79403
H    -0.52568   3.83235  -1.52469
