23
Generated by autodE on: 2022-06-18. E = -351.521385 Ha
C     3.70644  -0.74763   0.00253
C     2.58560   0.00711  -0.00090
C     2.65481   1.51279  -0.00903
C     1.27294  -0.63546   0.00323
C     0.07767   0.00649   0.00028
C    -1.19755  -0.68097   0.00458
C    -2.43018  -0.11338   0.00154
C    -3.66877  -0.96380   0.00672
C    -2.68115   1.36781  -0.00749
H     3.65263  -1.84073   0.00843
H     4.70111  -0.29321  -0.00041
H     3.69642   1.86359  -0.01133
H     2.14761   1.93866   0.87266
H     2.14697   1.92903  -0.89495
H     1.27677  -1.73214   0.00917
H     0.06493   1.09986  -0.00570
H    -1.14536  -1.77648   0.01099
H    -4.29545  -0.74775  -0.87731
H    -3.43544  -2.03866   0.01362
H    -4.29607  -0.73640   0.88740
H    -3.27990   1.64838  -0.89205
H    -1.76386   1.97055  -0.01049
H    -3.28137   1.65903   0.87258
