19
Generated by autodE on: 2022-06-18. E = -514.662750 Ha
C    -0.48025   2.58563   0.63327
O     0.11672   1.48110   0.44591
C    -0.28439   0.24797   0.01846
C    -1.65755   0.03336  -0.32482
C    -2.11406  -1.32633  -0.80091
O    -2.48846   0.96261  -0.23664
C     0.82293  -0.71827  -0.03139
O     0.63977  -1.89645  -0.38706
N     2.04764  -0.25402   0.32808
C     3.23661  -1.07708   0.33542
H    -1.54830   2.67553   0.43927
H     0.16743   3.39005   0.99271
H    -3.19041  -1.26558  -1.01251
H    -1.92421  -2.09792  -0.04098
H    -1.57008  -1.63350  -1.70576
H     2.13328   0.71486   0.61138
H     3.66472  -1.15600   1.34828
H     4.01095  -0.66589  -0.33246
H     2.97451  -2.08327  -0.01155
