42
Generated by autodE on: 2022-06-18. E = -866.206313 Ha. Imaginary frequency = -125.2 cm-1
C     3.07383   2.15908   1.95332
C     2.91179   1.09059   1.14208
C     3.87939   0.78857   0.02786
C     1.75314   0.22272   1.31214
C     1.49527  -0.89443   0.58279
C     0.30473  -1.68212   0.76156
C    -0.01914  -2.84553   0.10256
C    -1.23136  -3.62979   0.53467
C     0.93418  -3.57137  -0.81078
C    -1.05879  -1.59872  -1.71902
O    -1.86926  -0.78711  -1.14753
C    -1.56530   0.41109  -0.54101
C    -2.52503   0.79643   0.44117
C    -3.69108  -0.13533   0.70271
O    -2.41882   1.85102   1.11436
C    -0.41101   1.18466  -0.99427
O     0.32948   0.80805  -1.93170
N    -0.19901   2.34617  -0.33459
C     0.86401   3.26004  -0.67950
H     3.92159   2.83998   1.83877
H     2.35583   2.37755   2.74943
H     3.35451   0.76159  -0.94129
H     4.67576   1.54395  -0.02558
H     4.34796  -0.20057   0.16165
H     1.03189   0.52198   2.08049
H     2.20376  -1.20530  -0.18802
H    -0.40590  -1.31234   1.50771
H    -1.94325  -3.00681   1.09569
H    -0.92153  -4.46557   1.18823
H    -1.75384  -4.08029  -0.32382
H     0.39431  -4.06185  -1.63587
H     1.44546  -4.37278  -0.24787
H     1.70521  -2.91884  -1.24114
H    -1.53449  -2.50501  -2.09874
H    -0.07988  -1.25464  -2.04531
H    -3.33729  -1.08488   1.13602
H    -4.23017  -0.38286  -0.22407
H    -4.37565   0.34953   1.41080
H    -0.89499   2.57792   0.37945
H     1.14285   3.84691   0.20624
H     1.74898   2.70856  -1.02237
H     0.57082   3.96277  -1.48076
