36
Generated by autodE on: 2022-06-18. E = -950.050160 Ha. Imaginary frequency = -377.0 cm-1
C     4.37622   1.65369  -0.71427
O     3.44864   0.55174  -0.74813
C     2.39058   0.64143   0.04963
O     2.12540   1.57310   0.78336
C     1.47117  -0.48666  -0.14069
N     1.25557  -1.52683   0.44099
C     0.39035  -2.53748   0.57170
C     0.74653  -3.91911   0.10536
C    -0.66516  -2.30678   1.48028
N    -1.56261  -2.07545   2.19448
C    -1.00588  -1.17069  -1.48097
C    -0.04825  -0.20694  -1.72310
C    -0.39259   1.24721  -1.46934
C    -1.34041   1.33183  -0.28644
C    -1.46081   2.51496   0.57900
N    -0.60124   3.54118   0.34042
O    -2.32113   2.60945   1.47711
C    -2.21545   0.30463  -0.07254
N    -2.16065  -0.87023  -0.76428
C    -3.17410  -1.90213  -0.60990
H     3.86871   2.58280  -1.00995
H     5.16397   1.40170  -1.43249
H     4.79831   1.76562   0.29420
H    -0.16989  -4.51378  -0.01484
H     1.26619  -3.86819  -0.86287
H     1.40147  -4.44361   0.82345
H    -0.96309  -2.17028  -1.91057
H     0.71691  -0.43489  -2.46748
H    -0.85993   1.68680  -2.37499
H     0.52688   1.82976  -1.31487
H    -0.59222   4.30416   1.00944
H     0.22728   3.41044  -0.22687
H    -2.99901   0.38403   0.68162
H    -2.70985  -2.85783  -0.32476
H    -3.72260  -2.05150  -1.55445
H    -3.88493  -1.60553   0.17032
