64
Generated by autodE on: 2022-06-26. E = -1645.390146 Ha
C    -3.02347   1.14798   3.15167
O    -2.52400   1.24896   1.80558
C    -1.84095   0.21643   1.33778
O    -1.64921  -0.80778   1.96496
C    -1.22833   0.50749  -0.04745
C    -2.30612   0.88420  -1.05525
C    -1.98257   1.65405  -2.18157
C    -2.95857   1.97161  -3.12806
C    -4.27193   1.52042  -2.96415
C    -4.60124   0.75060  -1.84536
C    -3.62476   0.43687  -0.89710
N    -0.18990   1.52995   0.07409
C    -0.53338   2.90692   0.38803
C     0.99650   0.98055   0.73407
C     0.83774   1.18471   2.20301
N     0.57573   1.51422   3.28493
C     2.25592   1.70342   0.25309
C     2.41091   1.92015  -1.12328
C     3.55823   2.54608  -1.61056
C     4.56179   2.96367  -0.72857
C     4.40729   2.75408   0.64346
C     3.25700   2.12674   1.13273
C     0.97345  -0.57153   0.30765
O     2.02314  -0.90163  -0.56952
C     3.31942  -1.19268  -0.04558
C     1.08061  -1.55280   1.48633
O     1.70620  -1.25034   2.48848
C     0.58879  -2.93319   1.27674
C     1.17993  -4.00637   2.13610
C    -0.44006  -3.17475   0.42081
C    -1.04783  -4.53477   0.28089
C    -1.07289  -2.07154  -0.33911
O    -2.12394  -2.24095  -0.93769
C    -0.35485  -0.72043  -0.51099
O    -0.09509  -0.50216  -1.87517
C     0.23427  -1.60750  -2.71149
H    -3.55772   2.08501   3.34261
H    -3.70536   0.29093   3.23904
H    -2.18470   1.03350   3.85209
H    -0.96101   2.00808  -2.31385
H    -2.69007   2.57484  -3.99847
H    -5.03607   1.76979  -3.70414
H    -5.62340   0.39136  -1.70612
H    -3.90152  -0.17373  -0.03611
H     0.30612   3.55764   0.10316
H    -0.75655   3.07285   1.45633
H    -1.41143   3.20948  -0.19349
H     1.62950   1.58723  -1.80560
H     3.67045   2.70828  -2.68507
H     5.45990   3.45381  -1.11157
H     5.18218   3.08002   1.34086
H     3.14958   1.96385   2.20642
H     3.37761  -2.23273   0.31542
H     4.01715  -1.06414  -0.88354
H     3.60545  -0.51247   0.76670
H     0.43849  -4.36342   2.87143
H     2.05817  -3.64253   2.68223
H     1.46509  -4.87807   1.52708
H    -0.27013  -5.29679   0.12018
H    -1.76520  -4.56619  -0.54735
H    -1.57877  -4.81323   1.20770
H     0.86796  -2.34398  -2.19852
H     0.79263  -1.19581  -3.56340
H    -0.67593  -2.10435  -3.08353
