38
Generated by autodE on: 2022-07-27. E = -955.898349 Ha
C    -1.20317  -0.17372   3.42087
O    -0.79860   0.18796   2.09878
C    -1.63199  -0.15388   1.09254
O    -2.75408  -0.59478   1.30730
C    -1.10768   0.12906  -0.24588
C    -2.03771   0.19735  -1.37953
C    -3.30256   0.80963  -1.26048
C    -4.17842   0.85171  -2.34448
C    -3.81359   0.28886  -3.57290
C    -2.56368  -0.32541  -3.70496
C    -1.68813  -0.37686  -2.62052
N     0.23743   0.30438  -0.43735
C     0.71584   1.34905  -1.36767
C     1.13612  -0.45799   0.23506
C     0.71107  -1.74037   0.66818
N     0.43083  -2.81942   1.01808
C     2.47770  -0.00872   0.61423
C     3.53883  -0.93690   0.67156
C     4.81601  -0.52702   1.04723
C     5.05786   0.81103   1.38093
C     4.00753   1.73446   1.34887
C     2.72566   1.33121   0.97710
H    -0.38065   0.12683   4.08085
H    -2.12671   0.35046   3.70786
H    -1.36377  -1.25972   3.49156
H    -3.59353   1.26320  -0.31224
H    -5.15156   1.33571  -2.23220
H    -4.50122   0.32529  -4.42097
H    -2.27315  -0.77942  -4.65538
H    -0.72451  -0.87987  -2.72776
H     1.74044   1.12449  -1.67959
H     0.06505   1.36986  -2.24555
H     0.66997   2.32890  -0.87572
H     3.35705  -1.98110   0.40816
H     5.62975  -1.25505   1.07763
H     6.06009   1.13006   1.67562
H     4.18380   2.77514   1.63014
H     1.90638   2.05003   0.99669
