38
Generated by autodE on: 2022-06-26. E = -955.903235 Ha
C    -3.61550   3.00230  -0.75131
O    -2.84280   1.81127  -0.57428
C    -1.63913   1.78106  -1.17490
O    -1.24951   2.68607  -1.90231
C    -0.87955   0.56988  -0.84479
C    -1.13640  -0.16491   0.40145
C    -1.07921  -1.57323   0.43002
C    -1.32200  -2.27230   1.60963
C    -1.61255  -1.58281   2.79361
C    -1.66595  -0.18637   2.78134
C    -1.42728   0.51617   1.59991
N     0.12138   0.20016  -1.69195
C     0.00544   0.49925  -3.13748
C     1.23310  -0.49094  -1.30301
C     1.93100  -1.24413  -2.27616
N     2.55912  -1.87811  -3.03228
C     1.77025  -0.50609   0.06244
C     2.43247  -1.65463   0.54127
C     2.99073  -1.67500   1.81891
C     2.90264  -0.54925   2.64375
C     2.25702   0.60077   2.17436
C     1.68979   0.62433   0.90255
H    -3.06682   3.88052  -0.37980
H    -4.53273   2.85654  -0.16863
H    -3.86176   3.15231  -1.81280
H    -0.84304  -2.12484  -0.48191
H    -1.28214  -3.36402   1.60734
H    -1.79333  -2.13316   3.71975
H    -1.88363   0.36244   3.70052
H    -1.45147   1.60652   1.60772
H    -1.02358   0.76828  -3.38087
H     0.27069  -0.40664  -3.69568
H     0.69203   1.31005  -3.40913
H     2.49954  -2.54070  -0.09320
H     3.49116  -2.57861   2.17438
H     3.33408  -0.56619   3.64706
H     2.18958   1.48785   2.80820
H     1.19025   1.52876   0.55347
