64
Generated by autodE on: 2022-06-26. E = -1645.340283 Ha. Imaginary frequency = -197.4 cm-1
C    -2.82408   0.62768   3.48777
O    -2.23608   1.02450   2.23866
C    -2.13340   0.08038   1.29909
O    -2.58314  -1.03520   1.42624
C    -1.50628   0.69009   0.04744
C    -2.52289   1.07839  -0.95080
C    -2.16482   1.75995  -2.13643
C    -3.12016   2.08097  -3.09618
C    -4.45831   1.71564  -2.91398
C    -4.82739   1.01923  -1.76049
C    -3.87504   0.70158  -0.79275
N    -0.42223   1.52738   0.30631
C    -0.49033   2.96892  -0.01695
C     0.67318   1.05224   1.01649
C     0.44527   0.23806   2.16745
N     0.32094  -0.41514   3.12514
C     2.00003   1.65498   0.91835
C     2.42030   2.33874  -0.24672
C     3.72702   2.80570  -0.36390
C     4.65139   2.60041   0.66496
C     4.25317   1.92244   1.82242
C     2.94787   1.45679   1.95043
C     0.97645  -0.79789  -0.64112
O     1.72397  -0.06559  -1.48588
C     3.08326  -0.39809  -1.79259
C     1.56436  -1.64554   0.40139
O     2.74812  -1.53196   0.74099
C     0.68182  -2.65580   1.05575
C     1.26506  -3.41771   2.20668
C    -0.58054  -2.89309   0.61322
C    -1.46045  -3.92891   1.24071
C    -1.12696  -2.14425  -0.55089
O    -2.13274  -2.51802  -1.15055
C    -0.39079  -0.94552  -1.02677
O    -0.71501  -0.52849  -2.29365
C    -0.26938  -1.36302  -3.36333
H    -2.81361   1.52169   4.12106
H    -3.85437   0.27928   3.32992
H    -2.22558  -0.17307   3.94449
H    -1.12574   2.01455  -2.32330
H    -2.81356   2.60993  -4.00131
H    -5.20583   1.96541  -3.67030
H    -5.86644   0.71939  -1.60776
H    -4.19898   0.15129   0.08957
H     0.11109   3.51031   0.72146
H    -1.53479   3.28740   0.07764
H    -0.13058   3.21937  -1.01973
H     1.73818   2.47875  -1.07899
H     4.02851   3.32515  -1.27617
H     5.67595   2.96584   0.56600
H     4.96504   1.75579   2.63380
H     2.65708   0.93240   2.86090
H     3.17557  -1.47183  -2.01433
H     3.32585   0.18314  -2.69154
H     3.76441  -0.12698  -0.97885
H     2.21669  -2.97876   2.52767
H     0.57057  -3.43188   3.05950
H     1.44930  -4.46885   1.92470
H    -0.96760  -4.91437   1.25361
H    -1.67589  -3.66539   2.28914
H    -2.40966  -4.01638   0.69911
H    -0.55183  -0.85018  -4.29286
H     0.82302  -1.49988  -3.34369
H    -0.76248  -2.34702  -3.32916
