22
Generated by autodE on: 2022-06-16. E = -571.074445 Ha
C     3.65350   0.21306  -0.72707
O     2.43434  -0.54711  -0.71714
C     1.37944   0.01583  -0.13183
O     1.40692   1.10937   0.39450
C     0.11153  -0.83506  -0.27466
C     0.40607  -2.32907  -0.28583
C    -0.64523  -0.34151  -1.54534
C    -1.59280   0.73681  -1.00364
C    -1.64126   0.34535   0.45268
C    -2.61554   0.89705   1.36056
N    -3.41519   1.36126   2.06351
N    -0.76347  -0.48765   0.86703
H     3.98732   0.41315   0.30101
H     3.50538   1.16496  -1.25689
H     4.38981  -0.40542  -1.25275
H     0.99205  -2.59594  -1.17557
H     0.96762  -2.63069   0.61041
H    -0.54191  -2.88601  -0.31341
H     0.03310   0.02392  -2.32741
H    -1.21823  -1.18575  -1.95538
H    -1.17922   1.75588  -1.08400
H    -2.58938   0.74241  -1.46747
