22
Generated by autodE on: 2022-06-16. E = -570.962961 Ha. Imaginary frequency = -329.8 cm-1
C     3.60176   0.18065  -0.85431
O     2.44380  -0.63474  -0.62808
C     1.41277  -0.04810  -0.00928
O     1.42607   1.10038   0.39732
C     0.24959  -0.96435   0.09187
C     0.35743  -2.43336  -0.17614
C    -0.64177   0.05712  -2.05840
C    -1.71070   0.77191  -1.59872
C    -1.71868   0.29120   0.68148
C    -2.57120   0.87269   1.62410
N    -3.35975   1.42817   2.28329
N    -0.76549  -0.47249   0.76105
H     4.01330   0.53927   0.10016
H     3.34580   1.04193  -1.48864
H     4.32869  -0.46252  -1.36346
H     0.88484  -2.59648  -1.12513
H     0.93050  -2.94126   0.61842
H    -0.64190  -2.88543  -0.23500
H     0.32033   0.53827  -2.24731
H    -0.76532  -0.95941  -2.43987
H    -1.62992   1.84542  -1.40639
H    -2.72457   0.36854  -1.65533
