32
Generated by autodE on: 2022-06-05. E = -619.623020 Ha
C    -1.70277  -2.72685  -0.52958
C    -0.83173  -1.50574  -0.32993
C     0.50675  -1.58440  -0.54960
C     1.11421  -2.87217  -1.06154
C     1.44343  -0.46005  -0.27847
C     1.42862   0.22433   0.95128
C     2.31163   1.27681   1.19817
C     3.23182   1.67004   0.22019
C     3.26857   0.99005  -1.00137
C     2.39025  -0.06925  -1.24349
C    -1.51746  -0.24895   0.07667
C    -2.42761  -0.24573   1.15008
C    -3.07167   0.93010   1.54351
C    -2.83330   2.12629   0.85928
C    -1.94870   2.13322  -0.22480
C    -1.29920   0.95963  -0.61095
H    -2.75882  -2.51438  -0.31750
H    -1.63932  -3.09168  -1.56917
H    -1.38568  -3.56582   0.11279
H     2.19915  -2.78317  -1.20438
H     0.93921  -3.70028  -0.35321
H     0.66608  -3.18447  -2.01990
H     0.71652  -0.07771   1.72114
H     2.28374   1.79146   2.16193
H     3.92077   2.49611   0.41197
H     3.98493   1.28618  -1.77180
H     2.42584  -0.59058  -2.20313
H    -2.61918  -1.17335   1.69489
H    -3.76292   0.91155   2.38986
H    -3.33949   3.04553   1.16361
H    -1.76584   3.05901  -0.77615
H    -0.61396   0.97387  -1.46019
