23
Generated by autodE on: 2022-06-05. E = -646.320382 Ha
C    -3.56652  -1.99371  -0.29793
N    -2.69790  -0.84055  -0.21119
C    -1.35883  -0.92510  -0.11689
O    -0.71944  -1.98823  -0.10118
C    -0.64299   0.38279  -0.02888
N     0.66770   0.26953   0.05116
C     1.81638   0.04386   0.11669
C     3.22712  -0.23580   0.19478
C     3.56807  -1.69817   0.17428
O     4.03616   0.67883   0.27084
C    -1.23125   1.71900  -0.01937
C    -0.29096   2.89234   0.08958
O    -2.45493   1.88528  -0.09485
H    -4.24551  -2.04629   0.56865
H    -4.18058  -1.95604  -1.21172
H    -2.95679  -2.90448  -0.32107
H    -3.08645   0.10454  -0.20609
H     4.24231  -1.88762  -0.67620
H     4.11240  -1.94197   1.10081
H     2.67457  -2.33207   0.09041
H     0.29225   2.83474   1.02271
H    -0.87215   3.82277   0.07629
H     0.42827   2.89336  -0.74500
