55
Generated by autodE on: 2022-06-05. E = -1265.931608 Ha. Imaginary frequency = -344.6 cm-1
C     4.76495   1.32648   2.03891
N     3.96243   0.99734   0.88145
C     3.19116  -0.10446   0.85518
O     3.20619  -0.95866   1.75707
C     2.29392  -0.24810  -0.32671
C     2.36930   0.57571  -1.52615
C     1.81997   0.02961  -2.81570
O     2.88568   1.70455  -1.49808
N     1.56742  -1.37727  -0.35349
C     0.52852  -1.82269   0.09348
C     0.01867  -3.22576   0.03031
C    -0.70788  -3.58280  -1.22696
O     0.19697  -3.96605   0.97953
C    -0.50623  -0.32976   1.26204
C     0.01125  -0.75267   2.63085
C    -1.98449  -0.63415   1.11935
C    -2.50944  -1.92515   1.30363
C    -3.88593  -2.16394   1.26278
C    -4.78120  -1.11011   1.06675
C    -4.28095   0.18904   0.93664
C    -2.90570   0.42210   0.97057
C     0.01764   0.85573   0.66420
C     0.84215   1.81496   1.47847
C    -0.48210   1.33335  -0.63857
C    -1.13000   0.47283  -1.55747
C    -1.60331   0.93952  -2.77926
C    -1.43869   2.28287  -3.13864
C    -0.78499   3.14677  -2.25668
C    -0.31168   2.68078  -1.02852
H     4.13740   1.55629   2.91739
H     5.42832   0.49113   2.30981
H     5.37946   2.20571   1.80808
H     3.82169   1.66625   0.12211
H     1.03898  -0.72498  -2.67238
H     1.44222   0.85708  -3.43008
H     2.65658  -0.44794  -3.35559
H    -0.07832  -3.35478  -2.10181
H    -1.61180  -2.95593  -1.30420
H    -0.98514  -4.64488  -1.20957
H    -0.26492  -1.79563   2.83763
H    -0.44609  -0.12839   3.41792
H     1.10150  -0.67526   2.70335
H    -1.84921  -2.76624   1.50249
H    -4.25652  -3.18343   1.39395
H    -5.85737  -1.29557   1.03536
H    -4.96567   1.03212   0.81612
H    -2.54249   1.44605   0.88486
H     0.16789   2.57685   1.91456
H     1.58888   2.35140   0.87950
H     1.35542   1.32791   2.31297
H    -1.26023  -0.58108  -1.31907
H    -2.09577   0.24514  -3.46411
H    -1.80974   2.64818  -4.09893
H    -0.64262   4.19702  -2.52251
H     0.18359   3.38295  -0.35950
