46
Generated by autodE on: 2022-10-21. E = -1089.224035 Ha
C     4.63061   0.09332  -1.38061
N     3.26173   0.39906  -1.02248
C     2.74450   0.08673   0.17259
O     3.40589  -0.44745   1.07361
C     1.27259   0.45210   0.37914
N     0.74930   1.25864  -0.71517
C    -0.70095   1.14316  -0.80347
C    -1.18602   1.45826  -2.21853
C    -1.35972   2.11504   0.20287
O    -0.78690   2.57925   1.16744
O    -2.62483   2.39038  -0.10193
C    -3.36481   3.18497   0.83737
C    -0.98078  -0.34581  -0.33521
C    -2.20061  -0.41310   0.46490
N    -3.18551  -0.46922   1.07619
C    -1.01175  -1.41741  -1.47707
C    -1.44318  -2.77532  -0.88594
C    -0.22875  -3.18269  -0.00320
C     0.78297  -2.04370  -0.24876
C     0.48619  -1.66803  -1.71311
C     0.30725  -0.77430   0.50427
O    -0.09157  -0.98795   1.83884
C     0.88954  -1.47506   2.74032
H     5.32398   0.45838  -0.60812
H     4.78910  -0.99257  -1.49094
H     4.87052   0.58228  -2.33295
H     2.61595   0.79001  -1.70389
H     1.22541   0.97520   1.34804
H     1.02345   2.23535  -0.61556
H    -0.99862   2.51879  -2.44487
H    -0.63587   0.85090  -2.94737
H    -2.26144   1.26725  -2.32578
H    -4.36551   3.30605   0.40749
H    -2.88589   4.16445   0.97477
H    -3.42549   2.66339   1.80351
H    -1.61109  -1.10207  -2.33704
H    -1.59232  -3.48531  -1.71197
H    -2.38694  -2.72336  -0.32689
H     0.20223  -4.13975  -0.32920
H    -0.49331  -3.27851   1.05733
H     1.82061  -2.31071  -0.01823
H     1.03198  -0.79080  -2.07367
H     0.66024  -2.50762  -2.40169
H     0.38071  -1.61974   3.70355
H     1.71796  -0.76170   2.86769
H     1.30946  -2.44035   2.41163
