24
Generated by autodE on: 2022-10-26. E = -609.434743 Ha
C     4.12846  -1.97735  -0.27189
N     2.80077  -1.40317  -0.37543
C     2.18701  -0.88188   0.72602
O     2.75858  -0.85939   1.83240
C     0.84580  -0.32417   0.59839
N     0.29595  -0.00841  -0.57495
C    -0.90010   0.50200  -0.93393
C    -1.15181   0.78015  -2.38433
C    -1.89510   0.76541   0.07501
O    -1.77668   0.57937   1.28681
O    -3.03621   1.26074  -0.46569
C    -4.09741   1.55029   0.44550
H     4.82188  -1.26125   0.19176
H     4.14041  -2.89952   0.33528
H     4.49205  -2.21702  -1.27933
H     2.23942  -1.70062  -1.16692
H     0.29200  -0.10489   1.50451
H     0.90356  -0.15781  -1.38596
H    -1.33876   1.85166  -2.56688
H    -2.03499   0.23304  -2.75239
H    -0.28673   0.47994  -2.99483
H    -4.92472   1.93512  -0.16315
H    -4.41610   0.64243   0.97985
H    -3.78884   2.30872   1.18093
