24
Generated by autodE on: 2022-10-21. E = -609.449560 Ha
C    -4.90621   0.27667  -0.09135
N    -3.64632  -0.32667  -0.46562
C    -2.44715   0.11118  -0.01390
O    -2.32607   1.03496   0.81797
C    -1.27984  -0.57557  -0.55289
N    -0.10278  -0.14591  -0.11793
C     1.14279  -0.54220  -0.40208
C     1.36026  -1.65892  -1.35909
C     2.16799   0.20552   0.29288
O     1.94248   1.12469   1.08254
O     3.41930  -0.20011  -0.00652
C     4.48749   0.49234   0.64414
H    -5.27381   0.98247  -0.85693
H    -5.67127  -0.49958   0.05471
H    -4.77439   0.82759   0.84768
H    -3.64821  -1.04369  -1.18393
H    -1.33608  -1.39040  -1.27200
H    -0.16992   0.63114   0.55861
H     0.93281  -1.42190  -2.35099
H     2.42823  -1.86881  -1.48228
H     0.85933  -2.58170  -1.01239
H     4.41983   0.37905   1.73662
H     4.47142   1.56332   0.39231
H     5.41418   0.03512   0.27706
