22
Generated by autodE on: 2022-10-21. E = -479.731168 Ha
C     2.92891  -0.78096  -0.10714
O     1.92528   0.24055  -0.16253
C     0.67892  -0.06139   0.18990
C    -0.36473   0.82349   0.20331
C    -0.32028   2.17376  -0.18631
N    -0.30130   3.30139  -0.49556
C    -1.62724  -0.00431   0.46289
C    -1.88045  -0.84618  -0.82395
C    -0.66848  -1.82317  -0.83906
C     0.11605  -1.44070   0.46350
C    -1.04994  -1.07863   1.40617
H     3.86122  -0.30634  -0.43624
H     2.68070  -1.61175  -0.78410
H     3.04948  -1.15589   0.92018
H    -2.49090   0.56962   0.81935
H    -1.93024  -0.21052  -1.71905
H    -2.83164  -1.39334  -0.74248
H    -0.99237  -2.87162  -0.77015
H    -0.04001  -1.72202  -1.73499
H     0.83256  -2.19503   0.80420
H    -0.71436  -0.67267   2.37116
H    -1.73477  -1.92386   1.57135
