46
Generated by autodE on: 2022-10-21. E = -1089.161318 Ha. Imaginary frequency = -299.7 cm-1
C     4.88968   0.04236  -0.65887
N     3.47720   0.36869  -0.71600
C     2.75129   0.51867   0.41570
O     3.29446   0.40721   1.53005
C     1.29763   0.79348   0.33448
N     0.75449   1.34558  -0.79241
C    -0.55656   1.57297  -1.00791
C    -1.01365   1.74772  -2.42313
C    -1.38011   2.09748   0.09247
O    -1.04069   2.20731   1.26242
O    -2.59110   2.47663  -0.34623
C    -3.49864   2.98779   0.63749
C    -1.08456  -0.75211  -0.30491
C    -2.36707  -0.53873   0.24556
N    -3.44153  -0.37490   0.67525
C    -0.93673  -1.64336  -1.54418
C    -1.27418  -3.08676  -1.06587
C    -0.09098  -3.41939  -0.10761
C     0.81008  -2.14621  -0.19459
C     0.59341  -1.74559  -1.66368
C     0.03089  -1.04924   0.53087
O    -0.18395  -1.07193   1.87849
C     0.87988  -1.51233   2.72125
H     5.06008  -0.93853  -0.18533
H     5.28696   0.01548  -1.68083
H     5.44579   0.79656  -0.08153
H     3.03469   0.36263  -1.62761
H     0.86317   1.11778   1.27382
H     1.28583   1.24945  -1.65613
H    -1.11273   2.81206  -2.69519
H    -1.99955   1.28229  -2.55952
H    -0.30770   1.26977  -3.11668
H    -4.43380   3.19536   0.10423
H    -3.10364   3.91333   1.08145
H    -3.67065   2.24333   1.42616
H    -1.48856  -1.30824  -2.43125
H    -1.29803  -3.77264  -1.92632
H    -2.25458  -3.13500  -0.57033
H     0.47410  -4.29762  -0.45224
H    -0.41894  -3.61316   0.92308
H     1.84430  -2.29060   0.13886
H     0.90331  -2.54009  -2.35784
H     1.08015  -0.81536  -1.96535
H     0.51249  -1.41967   3.75187
H     1.77362  -0.88726   2.59023
H     1.13345  -2.56670   2.52660
