13
Generated by autodE on: 2022-06-16. E = -395.034495 Ha
C     2.32271  -0.50708  -0.07561
C     1.19034   0.45911  -0.26715
O     1.35509   1.61881  -0.65080
C    -0.16402  -0.01749   0.02255
C    -0.48825  -1.31742   0.46069
N    -0.76570  -2.39157   0.82299
N    -1.14828   0.90121  -0.16129
N    -2.40269   0.86678  -0.02034
H     2.34698  -0.86078   0.96785
H     3.27312  -0.01924  -0.32554
H     2.17762  -1.39323  -0.71461
H    -0.74404   1.80045  -0.48433
H    -2.66676  -0.07908   0.30033
