26
Generated by autodE on: 2022-06-17. E = -668.652321 Ha
C     1.00805   2.34327   2.33160
O     0.95438   1.58369   1.12440
C     0.00357   0.61719   1.06640
O    -0.80004   0.46710   1.99026
C     0.03239  -0.17814  -0.13229
N    -1.01332  -1.10992  -0.32361
C    -2.30295  -0.95059  -0.22246
C    -3.18333  -2.13865  -0.38471
C    -2.90536   0.37962   0.02606
C     1.12743  -0.42273  -1.03399
O     1.10016  -1.31490  -1.88996
O     2.20981   0.37236  -0.88563
C     3.31050   0.11250  -1.75801
H     0.06818   2.89111   2.49859
H     1.20303   1.69782   3.20172
H     1.83433   3.05408   2.20502
H    -0.69506  -2.02850  -0.64853
H    -3.76107  -2.29065   0.54293
H    -2.61528  -3.05292  -0.60474
H    -3.91576  -1.95066  -1.18608
H    -3.93055   0.40557  -0.36644
H    -2.93234   0.58691   1.10809
H    -2.29478   1.17240  -0.43467
H     4.08159   0.84830  -1.49781
H     3.70207  -0.90552  -1.61116
H     3.01933   0.23445  -2.81231
