26
Generated by autodE on: 2022-07-27. E = -668.652597 Ha
C     2.62205   2.91021  -0.18663
O     1.99101   1.65607   0.07470
C     0.70854   1.53333  -0.33935
O     0.12290   2.46477  -0.90360
C     0.09768   0.25729  -0.09318
N    -1.22130   0.19576  -0.60496
C    -2.28919  -0.36487  -0.11310
C    -3.54295  -0.33820  -0.91302
C    -2.29379  -1.01563   1.21879
C     0.78622  -0.92728   0.34123
O     1.88821  -0.98134   0.88472
O     0.09410  -2.06777   0.05645
C     0.64806  -3.28723   0.54497
H     2.66922   3.11487  -1.26706
H     3.63776   2.82749   0.22005
H     2.08820   3.73485   0.30969
H    -1.35686   0.74055  -1.46262
H    -4.34885   0.12450  -0.32122
H    -3.85901  -1.37391  -1.12403
H    -3.42150   0.19901  -1.86369
H    -3.27726  -0.87005   1.68830
H    -1.49664  -0.61743   1.86308
H    -2.12909  -2.09959   1.10990
H     0.76891  -3.25804   1.63866
H    -0.06322  -4.07666   0.27133
H     1.62613  -3.49306   0.08415
