72
Generated by autodE on: 2022-10-25. E = -1741.570226 Ha
C   -11.14602  21.12203  13.79082
N   -11.57800  20.08469  12.87928
C   -10.85085  18.97510  12.68229
O    -9.72193  18.82298  13.15118
C   -11.62411  17.87863  11.86974
C   -10.73275  16.96943  10.98185
O   -11.21737  16.08817  10.30065
O    -9.45637  17.31725  10.91680
C    -8.63095  16.58545   9.99455
C   -12.53585  17.06691  12.82080
C   -13.82443  17.22790  12.45864
C   -15.12284  16.82919  13.18200
O   -16.13810  17.15064  12.23827
C   -17.49478  16.96276  12.60123
O   -15.18596  15.46778  13.51108
C   -15.00291  14.54403  12.44815
C   -15.38572  17.61993  14.47696
C   -14.42018  17.53030  15.66140
C   -13.07482  18.25924  15.48954
C   -11.83533  17.39992  15.24207
C   -11.92453  16.38224  14.05737
C   -12.66286  15.20611  14.56943
N   -13.03627  14.23174  15.07760
C   -10.54921  15.72936  13.72977
C   -10.52551  14.65711  12.82412
C    -9.32969  14.01612  12.50387
C    -8.13388  14.43067  13.09890
C    -8.15380  15.47691  14.02270
C    -9.35447  16.11847  14.34398
C   -13.92519  17.98518  11.12792
C   -14.32498  17.07603   9.95428
C   -14.86061  19.20340  11.29383
O   -14.70002  20.03309  12.17231
O   -15.79986  19.30511  10.36279
C   -16.73295  20.38762  10.49813
N   -12.58141  18.53064  11.00132
C   -12.13831  19.10049   9.74936
H   -11.11090  20.75565  14.83123
H   -11.85147  21.96060  13.73661
H   -10.14122  21.48439  13.52608
H   -12.52578  20.09123  12.50087
H    -8.67445  15.51053  10.21185
H    -7.61313  16.96378  10.14103
H    -8.96391  16.76884   8.96284
H   -17.64277  16.01497  13.14253
H   -17.87978  17.79508  13.21272
H   -18.06485  16.92513  11.66200
H   -14.03586  14.69167  11.94039
H   -15.01720  13.54277  12.89772
H   -15.81195  14.61972  11.70396
H   -16.36992  17.27716  14.82740
H   -15.49883  18.67307  14.18113
H   -14.95379  17.99454  16.50524
H   -14.27360  16.48185  15.95864
H   -12.85834  18.83612  16.40223
H   -13.16932  19.00365  14.68597
H   -10.98999  18.06900  15.05208
H   -11.58229  16.82293  16.14447
H   -11.45428  14.32805  12.35498
H    -9.33302  13.19227  11.78688
H    -7.19346  13.93438  12.84858
H    -7.22852  15.80145  14.50426
H    -9.33671  16.93029  15.06687
H   -13.60777  16.24986   9.88619
H   -15.33343  16.67425  10.08724
H   -14.29884  17.64123   9.01224
H   -17.40006  20.32213   9.63119
H   -16.20730  21.35268  10.50534
H   -17.30639  20.27204  11.42957
H   -11.94524  18.35313   8.95662
H   -12.89390  19.80808   9.37479
H   -11.20899  19.66661   9.91383
