33
Generated by autodE on: 2022-10-26. E = -876.731837 Ha
C    -0.08884   3.14108  -0.79566
N     0.27994   1.74893  -0.94646
C     0.81001   1.02075   0.07696
O     1.22916   1.58563   1.09839
C     0.84646  -0.44287  -0.10513
C     1.83208  -1.28272   0.52004
O     1.75930  -2.50967   0.62845
O     2.91520  -0.60608   0.98190
C     3.89392  -1.37919   1.67428
N    -0.17166  -1.09456  -0.82272
C     0.20867  -2.19294  -1.74075
C    -1.43332  -0.71023  -0.83085
C    -2.41125  -1.24785  -1.82036
C    -1.92077   0.26307   0.20109
O    -1.61202   0.23881   1.37515
O    -2.79692   1.11694  -0.32270
C    -3.37225   2.08442   0.57210
H    -0.96746   3.35782  -1.41886
H     0.72394   3.82735  -1.09065
H    -0.33743   3.34678   0.25441
H     0.02367   1.28281  -1.80912
H     4.65752  -0.66814   2.01384
H     4.35193  -2.12828   1.01028
H     3.45385  -1.89481   2.54159
H    -0.06972  -1.90152  -2.76214
H     1.28626  -2.34717  -1.69058
H    -0.31923  -3.11489  -1.46789
H    -2.10919  -0.99183  -2.85089
H    -2.47110  -2.34623  -1.76289
H    -3.40703  -0.83256  -1.63669
H    -3.96600   1.57814   1.34624
H    -2.58070   2.68220   1.04427
H    -4.01421   2.71988  -0.04762
