39
Generated by autodE on: 2022-10-25. E = -864.737500 Ha
C    -4.35764  -0.25745   0.22888
O    -3.54839  -0.51140  -0.91307
C    -2.42102   0.30857  -1.05284
O    -2.89361   1.62167  -1.28265
C    -1.97329   2.68190  -1.08247
C    -1.51109   0.19441   0.11503
C    -0.53727  -0.19893   0.71771
C     0.74745  -0.85831   0.95979
C     0.76291  -1.48239   2.29570
N     0.77585  -1.99811   3.33473
C     1.94370   0.10382   0.82620
C     1.80907   1.35224   0.20855
C     2.92591   2.17785   0.04154
C     4.18201   1.76485   0.49124
C     4.31875   0.51769   1.11029
C     3.20615  -0.30886   1.27571
C     0.82803  -2.00674  -0.12372
C     0.55899  -1.55818  -1.57093
C    -0.90729  -1.56652  -2.08653
C    -1.62636  -0.21617  -2.26765
H    -3.78293  -0.39074   1.16228
H    -5.17729  -0.98790   0.20575
H    -4.77591   0.76092   0.20956
H    -1.66286   2.75661  -0.02593
H    -1.07135   2.57657  -1.70963
H    -2.49199   3.60774  -1.36667
H     0.83207   1.68450  -0.14339
H     2.80756   3.15029  -0.44192
H     5.05241   2.41233   0.36274
H     5.29608   0.18577   1.46800
H     3.32285  -1.28130   1.75981
H     1.83697  -2.43679  -0.04221
H     0.11255  -2.79146   0.16577
H     1.01705  -0.57086  -1.74783
H     1.12906  -2.25767  -2.20107
H    -1.52734  -2.22677  -1.45802
H    -0.89362  -2.03886  -3.08044
H    -2.36802  -0.28854  -3.07870
H    -0.90154   0.55980  -2.55634
