72
Generated by autodE on: 2022-10-25. E = -1741.449929 Ha. Imaginary frequency = -177.2 cm-1
C   -11.83814  21.83327  12.10474
N   -11.72625  20.52199  11.49589
C   -11.61065  19.40582  12.24657
O   -11.47588  19.46044  13.46960
C   -11.56943  18.12199  11.43643
C   -10.17769  17.76197  11.11715
O    -9.73059  17.18916  10.13128
O    -9.35153  18.21859  12.08263
C    -7.94606  18.09751  11.84559
C   -12.78632  16.51134  13.12466
C   -13.96354  16.76893  12.85044
C   -15.36613  16.61161  13.34801
O   -16.25473  17.22595  12.43985
C   -17.63525  17.20312  12.76644
O   -15.67124  15.23329  13.48202
C   -15.57781  14.45436  12.29916
C   -15.49318  17.20807  14.76531
C   -14.43124  16.78925  15.79499
C   -13.08774  17.55800  15.71969
C   -11.80518  16.78233  15.38674
C   -11.86016  15.88404  14.10809
C   -12.49052  14.58694  14.45993
N   -12.94576  13.54854  14.71246
C   -10.47752  15.47823  13.56226
C   -10.41573  14.83399  12.31912
C    -9.20085  14.36037  11.82365
C    -8.02942  14.52289  12.57044
C    -8.08528  15.16481  13.80963
C    -9.30405  15.63753  14.30763
C   -13.90442  18.15698  10.80399
C   -14.96379  17.65117   9.85747
C   -14.32291  19.42568  11.52039
O   -14.35607  19.64059  12.71173
O   -14.77985  20.29726  10.61294
C   -15.38764  21.50098  11.11007
N   -12.62437  17.79095  10.61069
C   -12.46954  16.60360   9.73682
H   -12.10247  22.56360  11.33075
H   -10.88891  22.13888  12.57371
H   -12.61674  21.83069  12.88214
H   -11.82162  20.43725  10.48914
H    -7.67210  17.06070  11.61719
H    -7.45741  18.41891  12.77278
H    -7.64205  18.75042  11.01316
H   -17.95966  16.20521  13.10174
H   -17.88983  17.94421  13.54240
H   -18.17860  17.46019  11.84595
H   -14.56118  14.48697  11.87306
H   -15.81040  13.41893  12.58297
H   -16.29671  14.78901  11.53349
H   -16.48377  16.90275  15.13440
H   -15.50601  18.30241  14.65903
H   -14.87344  16.96107  16.78830
H   -14.28141  15.70157  15.73647
H   -12.89840  18.04382  16.69036
H   -13.18416  18.37684  14.99480
H   -11.00666  17.51714  15.22064
H   -11.49540  16.14628  16.22978
H   -11.32959  14.70432  11.73600
H    -9.16811  13.86791  10.84931
H    -7.07589  14.15540  12.18445
H    -7.17491  15.30193  14.39765
H    -9.32514  16.12603  15.28123
H   -15.04759  16.55722   9.88457
H   -15.93627  18.06591  10.13387
H   -14.74263  17.95384   8.81962
H   -15.74585  22.04123  10.22639
H   -14.65310  22.10845  11.65471
H   -16.22826  21.25397  11.77401
H   -13.04579  15.77764  10.17286
H   -12.85279  16.83486   8.73726
H   -11.42077  16.33469   9.66186
