55
Generated by autodE on: 2022-06-13. E = -1158.343078 Ha
C     0.73177   1.22679  -4.62207
C    -0.39470   2.06260  -5.15925
O    -1.56168   1.73398  -5.05402
C    -0.00646   3.39242  -5.84838
C     0.28835   4.39156  -4.71455
C    -0.69942   4.63980  -3.74793
C    -0.47168   5.55378  -2.71732
C     0.74865   6.23299  -2.63600
C     1.73743   5.98776  -3.59200
C     1.50988   5.07029  -4.62304
C     1.13304   3.21324  -6.74865
C     1.79175   3.32984  -7.75872
C     2.20099   3.78132  -9.09173
C     1.93373   2.70783 -10.16584
C     1.28702   1.50120  -9.87314
C     1.03789   0.56056 -10.87977
C     1.43031   0.81590 -12.19497
C     2.07681   2.02032 -12.49681
C     2.32689   2.95492 -11.49109
C     3.69627   4.13810  -9.10719
C     4.18886   5.31049  -9.69387
C     5.56471   5.57010  -9.71715
C     6.46505   4.66377  -9.15379
C     5.98076   3.48988  -8.56480
C     4.60966   3.23251  -8.54390
C     1.27598   5.02106  -9.34561
C    -0.23127   4.80450  -9.09540
C    -0.80473   5.09522  -7.67826
C    -1.16037   3.90432  -6.76541
H     1.19432   0.68620  -5.46482
H     0.35026   0.49737  -3.89571
H     1.51466   1.85502  -4.17266
H    -1.65407   4.11240  -3.79862
H    -1.25140   5.73449  -1.97361
H     0.92706   6.94887  -1.83025
H     2.69439   6.51245  -3.53887
H     2.28663   4.88460  -5.36628
H     0.97357   1.29206  -8.84943
H     0.53290  -0.37561 -10.62920
H     1.23696   0.08241 -12.98128
H     2.39129   2.23199 -13.52170
H     2.84047   3.88566 -11.74014
H     3.50715   6.03227 -10.14330
H     5.93038   6.49030 -10.17931
H     7.53795   4.86934  -9.17122
H     6.67436   2.77266  -8.11914
H     4.23676   2.31345  -8.08480
H     1.63488   5.84777  -8.71280
H     1.42303   5.33261 -10.39010
H    -0.74920   5.48335  -9.79046
H    -0.52062   3.78880  -9.41390
H    -1.74387   5.65085  -7.82531
H    -0.13766   5.79025  -7.14020
H    -1.50354   3.05714  -7.37972
H    -2.00280   4.17889  -6.11485
