73
Generated by autodE on: 2022-06-13. E = -1577.645908 Ha. Imaginary frequency = -380.7 cm-1
C     9.91363  -1.31937  -1.80607
C     8.57457  -1.95925  -2.05669
O     7.88514  -1.62093  -3.00209
C     8.12513  -3.07875  -1.07850
C     6.93282  -3.84694  -1.65989
C     5.72928  -3.99897  -0.96295
C     4.67724  -4.75396  -1.49402
C     4.81420  -5.37338  -2.73740
C     6.01348  -5.22916  -3.44486
C     7.05912  -4.47478  -2.91105
C     9.33883  -4.05213  -0.90506
C     9.11302  -5.34675  -0.11539
C     9.30846  -5.30976   1.40970
C     8.10162  -4.92356   2.27595
C     7.97025  -3.42317   2.69927
C     9.25334  -2.97791   3.41955
C     9.76331  -3.74158   4.48401
C    10.93421  -3.36589   5.14434
C    11.62746  -2.21509   4.75247
C    11.13550  -1.45122   3.69280
C     9.96173  -1.83263   3.03273
C     6.72287  -3.31281   3.60900
C     6.76774  -2.83977   4.92634
C     5.60439  -2.75111   5.70026
C     4.37001  -3.12970   5.16952
C     4.30990  -3.59516   3.85147
C     5.47249  -3.68319   3.08439
C     7.75956  -2.60951   1.46969
C     7.79453  -2.44831   0.23273
C     6.72917  -0.28808  -0.03979
C     5.45561  -0.59276  -0.78691
C     7.69132   0.70464  -0.57676
C     7.53226   1.23236  -1.87024
C     8.46164   2.13871  -2.38702
C     9.55613   2.54581  -1.62034
C     9.71486   2.03844  -0.32429
C     8.79482   1.12978   0.19159
N     6.61215  -0.26223   1.30327
N     6.87296  -0.83098   2.27963
H    10.68686  -1.95965  -2.26258
H    10.14080  -1.23469  -0.73626
H     9.95033  -0.33525  -2.28791
H     5.61174  -3.52254   0.00867
H     3.74840  -4.85619  -0.92739
H     3.99564  -5.96496  -3.15433
H     6.13594  -5.70825  -4.41942
H     7.98633  -4.37570  -3.47803
H    10.16775  -3.49763  -0.44341
H     9.67212  -4.32170  -1.91980
H     8.12612  -5.77637  -0.35447
H     9.84872  -6.06643  -0.50952
H    10.17693  -4.67631   1.65603
H     9.59582  -6.32897   1.71408
H     7.17680  -5.21348   1.75672
H     8.12181  -5.51121   3.20549
H     9.23682  -4.64045   4.80879
H    11.30825  -3.97703   5.96945
H    12.54486  -1.92113   5.26798
H    11.66693  -0.55281   3.36915
H     9.60048  -1.23201   2.19812
H     7.71401  -2.52078   5.36163
H     5.66923  -2.37610   6.72479
H     3.46220  -3.05917   5.77342
H     3.35195  -3.88928   3.41537
H     5.40136  -4.03832   2.05533
H     4.87733   0.32267  -0.99777
H     4.82770  -1.28459  -0.21212
H     5.70483  -1.06624  -1.74480
H     6.68819   0.92544  -2.48673
H     8.32452   2.53016  -3.39778
H    10.28045   3.25550  -2.02649
H    10.56485   2.35099   0.28677
H     8.93692   0.73919   1.20086
