50
Generated by autodE on: 2022-06-28. E = -1489.951821 Ha
C     0.85446   4.97560   1.60250
O     0.25160   3.94242   0.79652
C     0.31083   2.71202   1.26712
O     0.79556   2.37062   2.31996
C    -0.28202   1.71558   0.28266
O    -1.53954   2.19673  -0.23680
C    -2.26454   1.07494  -0.51873
O    -3.38612   1.09261  -0.93520
C    -1.30040  -0.07899  -0.20343
C    -1.87716  -1.41804   0.12626
C    -2.81624  -2.01814  -0.72459
C    -3.30516  -3.29312  -0.43291
C    -2.86703  -3.97270   0.70813
C    -1.93586  -3.37184   1.55943
C    -1.43763  -2.09945   1.26964
O    -0.61108   0.51079   0.90501
C    -0.20914   0.00942  -1.39843
C    -0.85607   0.16762  -2.77460
C     0.56455  -1.30878  -1.38642
O     0.32957  -2.18000  -2.20873
C     1.54452  -1.52787  -0.30428
O     1.93342  -2.74467   0.08100
C     1.23648  -3.94694  -0.28039
C     2.21974  -0.45053   0.22062
O     3.23392  -0.70707   1.06602
C     3.55955   0.22125   2.11245
C     1.98028   0.90661  -0.28312
O     2.81458   1.78980  -0.12234
C     0.62523   1.25731  -0.92300
C     0.82538   2.34902  -1.96938
H     0.36041   5.02394   2.58238
H     0.70668   5.90874   1.04896
H     1.92527   4.76584   1.73145
H    -3.16955  -1.48957  -1.61016
H    -4.03517  -3.75580  -1.10065
H    -3.25228  -4.96978   0.93319
H    -1.58734  -3.89709   2.45126
H    -0.70107  -1.63689   1.92649
H    -1.52173  -0.67892  -2.98047
H    -0.07926   0.17871  -3.55008
H    -1.43294   1.09462  -2.86141
H     1.57784  -4.70081   0.44057
H     1.50223  -4.25701  -1.29920
H     0.14989  -3.82487  -0.19656
H     4.04222  -0.37520   2.89816
H     2.65230   0.69363   2.51399
H     4.25232   0.99402   1.75499
H     1.36770   1.94596  -2.83526
H    -0.13392   2.75371  -2.30920
H     1.41707   3.16601  -1.54084
