24
Generated by autodE on: 2022-06-28. E = -800.441245 Ha
C     4.62962  -1.06002  -0.54433
O     3.23773  -0.73531  -0.37251
C     2.92928  -0.00505   0.69066
O     3.69675   0.41685   1.52976
C     1.48150   0.25496   0.75379
O     0.91124   0.93378   1.70364
C    -0.52933   0.97445   1.43578
O    -1.27315   1.55792   2.19448
C    -0.63586   0.23842   0.23547
C    -1.77028  -0.10187  -0.58687
C    -1.61423  -0.86673  -1.76243
C    -2.72356  -1.18362  -2.54372
C    -4.00148  -0.74818  -2.17316
C    -4.16195   0.01080  -1.00847
C    -3.06116   0.33509  -0.21737
O     0.62327  -0.17108  -0.12384
H     4.68351  -1.66512  -1.45563
H     5.22097  -0.14028  -0.65639
H     4.99331  -1.63239   0.32074
H    -0.62094  -1.20928  -2.05733
H    -2.58948  -1.77648  -3.45151
H    -4.86762  -0.99939  -2.78933
H    -5.15546   0.35509  -0.71198
H    -3.19043   0.92710   0.68919
