26
Generated by autodE on: 2022-06-28. E = -689.460853 Ha
C     2.92638  -1.29247  -0.58533
O     2.19152  -0.73805   0.51102
C     0.91130  -0.34988   0.23660
C     0.52601   0.95616   0.17544
O     1.26092   2.05989   0.30866
C     2.68271   2.02804   0.47161
C    -0.92253   1.29899  -0.05411
O    -1.24842   2.47727  -0.10035
C    -1.91416   0.20799  -0.23269
C    -3.33936   0.59704  -0.47786
C    -1.51865  -1.08791  -0.17500
C    -2.48162  -2.21909  -0.35080
C    -0.08825  -1.42966   0.09052
O     0.26664  -2.60198   0.20093
H     3.92253  -1.54524  -0.19861
H     3.02642  -0.55398  -1.39815
H     2.44344  -2.20161  -0.97276
H     2.99104   3.08009   0.51947
H     2.96326   1.51485   1.40030
H     3.16630   1.54285  -0.38831
H    -3.68971   0.20239  -1.44594
H    -3.45917   1.68675  -0.47842
H    -3.99908   0.16818   0.29421
H    -1.97625  -3.18788  -0.26408
H    -2.97457  -2.16023  -1.33535
H    -3.28389  -2.16786   0.40401
