50
Generated by autodE on: 2022-06-28. E = -1489.913932 Ha. Imaginary frequency = -258.7 cm-1
C     0.80541   5.15112   1.26980
O     0.08461   4.06835   0.64931
C     0.27203   2.86560   1.16282
O     0.94758   2.59349   2.13078
C    -0.41280   1.82160   0.35237
O    -1.51998   2.11226  -0.36042
C    -2.20689   0.90165  -0.58631
O    -3.17781   0.83921  -1.29946
C    -1.48620  -0.05956   0.22285
C    -1.80020  -1.42363   0.55146
C    -2.72908  -2.14060  -0.23234
C    -3.01335  -3.46946   0.07721
C    -2.38235  -4.09299   1.15849
C    -1.45625  -3.38435   1.93579
C    -1.15937  -2.05934   1.63714
O    -0.56146   0.61675   0.93129
C     0.16085   0.25665  -1.85404
C    -0.67151   0.52032  -3.07001
C     0.40861  -1.16294  -1.55254
O    -0.15514  -2.05869  -2.18224
C     1.38749  -1.49248  -0.47080
O     1.55849  -2.72537   0.00663
C     0.98434  -3.91658  -0.55022
C     2.16646  -0.50337   0.06534
O     3.10920  -0.79293   1.00907
C     2.61874  -0.74419   2.35611
C     2.06644   0.89444  -0.35921
O     2.88028   1.72790   0.03706
C     0.92399   1.28527  -1.25117
C     1.07116   2.60868  -1.96263
H     0.48669   5.26653   2.31482
H     0.55529   6.04545   0.68954
H     1.88474   4.94941   1.22724
H    -3.21933  -1.65089  -1.07313
H    -3.73139  -4.02268  -0.53152
H    -2.60863  -5.13479   1.39560
H    -0.96047  -3.87257   2.77716
H    -0.43492  -1.50717   2.23645
H    -1.43841  -0.25203  -3.20052
H    -0.02210   0.50186  -3.96424
H    -1.14978   1.50659  -3.04014
H     1.34633  -4.72550   0.09707
H     1.33615  -4.07501  -1.57828
H    -0.11016  -3.88717  -0.53087
H     3.48581  -0.88060   3.01603
H     1.89245  -1.55290   2.53648
H     2.14497   0.22715   2.56645
H     1.56195   2.44792  -2.93636
H     0.09730   3.07651  -2.15449
H     1.68818   3.29903  -1.37656
