25
Generated by autodE on: 2022-06-18. E = -631.230918 Ha
C     4.86211  -0.08765   0.37729
O     3.69538   0.26342  -0.38683
C     2.59656   0.56863   0.30818
O     2.52202   0.58056   1.52546
C     1.50043   1.02391  -0.54965
N     0.54768   0.34649  -0.92145
C    -0.54045  -0.23228  -1.26793
C    -0.64265  -0.86502  -2.62704
C    -1.66549  -0.24668  -0.31394
C    -2.93095  -0.71467  -0.71710
C    -4.00313  -0.71561   0.17743
C    -3.83280  -0.25528   1.48619
C    -2.57581   0.20393   1.89868
C    -1.50088   0.20546   1.01219
H     5.15288   0.74232   1.03717
H     4.67247  -0.98767   0.97967
H     5.65252  -0.28344  -0.35619
H    -1.42261  -0.36754  -3.22625
H    -0.91934  -1.92765  -2.54202
H     0.31257  -0.78764  -3.16172
H    -3.08420  -1.07188  -1.73600
H    -4.97912  -1.07843  -0.15329
H    -4.67287  -0.25920   2.18443
H    -2.43048   0.55607   2.92262
H    -0.51988   0.54279   1.35288
