39
Generated by autodE on: 2022-06-18. E = -901.922853 Ha. Imaginary frequency = -223.2 cm-1
C    -3.56690   3.11720   0.50885
O    -2.46815   2.20519   0.32132
C    -2.38636   1.18376   1.17572
O    -3.16045   0.96203   2.08608
C    -1.30623   0.26522   0.79763
N    -0.13255   0.23789   1.13766
C     1.07840  -0.22182   1.09614
C     1.53386  -1.19911   2.13433
C     1.99947   0.33148   0.09406
C     3.29955  -0.19334  -0.03235
C     4.15425   0.27788  -1.03066
C     3.73105   1.27905  -1.90891
C     2.44221   1.81453  -1.78238
C     1.58364   1.34887  -0.79082
C    -0.61183  -2.25895  -0.25653
C     0.63217  -2.27125  -0.94456
O     1.59138  -3.02630  -0.67984
C    -1.70345  -1.42919  -0.53601
C    -3.04422  -1.81367   0.04665
C    -1.78039  -0.61568  -1.80977
H    -4.52298   2.58122   0.42702
H    -3.49609   3.60242   1.49238
H    -3.47596   3.86095  -0.29043
H     1.89023  -2.11115   1.62702
H     0.70954  -1.46465   2.80721
H     2.37135  -0.79212   2.72281
H     3.64184  -0.98141   0.63784
H     5.15824  -0.14254  -1.12229
H     4.40323   1.64636  -2.68766
H     2.10743   2.60266  -2.46055
H     0.58337   1.77514  -0.69601
H    -0.69477  -2.94948   0.59021
H     0.73625  -1.55540  -1.79037
H    -3.74421  -0.96614   0.07141
H    -2.94601  -2.22500   1.06184
H    -3.49915  -2.59176  -0.59219
H    -2.14013  -1.26036  -2.63124
H    -0.81209  -0.19345  -2.10667
H    -2.49837   0.20980  -1.70045
