50
Generated by autodE on: 2022-10-22. E = -1208.368998 Ha
C    -1.36574  -1.37271  -2.39939
O    -1.78200  -0.39304  -1.45397
C    -1.30603  -0.46500  -0.15001
O    -1.60799  -1.69557   0.45713
C    -2.97801  -2.07411   0.54723
C    -1.88857   0.71488   0.64951
C    -3.23595   1.34374   0.40804
C    -3.41707   2.74868   0.90058
O    -4.11245   0.72719  -0.17350
N    -1.12300   1.13912   1.57809
C     0.10784   0.35914   1.57845
C     1.32947   1.13396   2.06114
C     1.26817   2.63100   2.06988
O     2.31492   0.51266   2.42433
C     0.24695  -0.24404   0.12239
C     0.86947   0.84933  -0.76359
C     0.11916   1.80885  -1.46381
C     0.74585   2.86059  -2.14122
C     2.13589   2.98250  -2.13496
C     2.89711   2.03340  -1.44689
C     2.27105   0.98381  -0.77452
C     1.04668  -1.54777   0.06009
C     1.57086  -1.98475  -1.16851
C     2.26454  -3.19078  -1.27817
C     2.46152  -3.99378  -0.15145
C     1.95829  -3.56932   1.07984
C     1.26122  -2.36211   1.18282
H    -1.18101  -2.34533  -1.92248
H    -0.45971  -1.04278  -2.92946
H    -2.18328  -1.47905  -3.12636
H    -3.48540  -1.99889  -0.42541
H    -3.51946  -1.46199   1.28617
H    -2.98262  -3.12125   0.87857
H    -3.19512   2.80863   1.97626
H    -4.44326   3.08178   0.70081
H    -2.69814   3.40961   0.38905
H    -0.03588  -0.45716   2.29912
H     0.88582   3.00763   1.10868
H     2.26224   3.04558   2.28055
H     0.55683   2.95836   2.84546
H    -0.96468   1.74748  -1.50632
H     0.13269   3.58792  -2.67855
H     2.62234   3.80586  -2.66298
H     3.98691   2.10844  -1.42996
H     2.88522   0.26238  -0.23713
H     1.44497  -1.36909  -2.05776
H     2.65578  -3.50000  -2.25033
H     3.00797  -4.93643  -0.23130
H     2.10964  -4.17777   1.97463
H     0.89633  -2.06648   2.16499
