34
Generated by autodE on: 2022-10-22. E = -770.110065 Ha
C    -0.66500  -3.78330  -0.20564
O     0.03695  -2.59137  -0.57543
C    -0.65578  -1.43277  -0.56930
O    -1.89509  -1.57656  -1.08679
C    -3.01037  -0.91770  -0.48046
C    -0.08103  -0.27475  -0.13801
C    -0.66275   1.05036  -0.47039
C    -1.13102   1.34197  -1.76534
C    -1.66417   2.59611  -2.07235
C    -1.73278   3.59214  -1.09329
C    -1.26048   3.32088   0.19598
C    -0.73011   2.06682   0.50205
C     1.19641  -0.30525   0.62136
C     1.43058  -1.24394   1.64631
C     2.63068  -1.24757   2.35845
C     3.62688  -0.30675   2.07300
C     3.40558   0.63880   1.06703
C     2.20535   0.63995   0.35235
H     0.09836  -4.56512  -0.10291
H    -1.18457  -3.64902   0.75669
H    -1.39113  -4.07817  -0.97680
H    -3.23646   0.02816  -0.99270
H    -3.86762  -1.59882  -0.57544
H    -2.81147  -0.71759   0.58240
H    -1.07517   0.57332  -2.53917
H    -2.02080   2.79803  -3.08549
H    -2.14713   4.57413  -1.33351
H    -1.30885   4.09127   0.96971
H    -0.36535   1.86478   1.51155
H     0.65515  -1.97162   1.89290
H     2.78493  -1.98419   3.15111
H     4.56424  -0.30759   2.63434
H     4.17384   1.38034   0.83350
H     2.04664   1.38243  -0.43256
