50
Generated by autodE on: 2022-10-22. E = -1208.278917 Ha. Imaginary frequency = -518.5 cm-1
C    -1.89503  -0.54237  -2.62949
O    -2.13487  -0.13024  -1.27672
C    -1.25686  -0.60133  -0.32261
O    -1.75535  -1.65252   0.41498
C    -2.68713  -2.54996  -0.18918
C    -1.70916   0.80061   1.07972
C    -3.15515   1.11818   1.13179
C    -3.49269   2.55215   0.85044
O    -3.97158   0.23319   1.32045
N    -0.76460   1.04776   1.81132
C     0.47188   0.72148   2.09920
C     1.56839   1.67558   2.00346
C     1.23614   3.09860   1.65060
O     2.72671   1.27908   2.15603
C     0.15169  -0.53117  -0.48168
C     0.79018   0.66566  -1.05502
C     0.05269   1.78639  -1.51542
C     0.69077   2.92420  -2.01366
C     2.08433   3.00135  -2.06175
C     2.83342   1.92054  -1.58123
C     2.20303   0.78122  -1.08850
C     0.95217  -1.76619  -0.24130
C     1.73839  -2.26678  -1.30188
C     2.45678  -3.45673  -1.17582
C     2.40668  -4.18863   0.01479
C     1.62499  -3.71418   1.07187
C     0.90924  -2.52123   0.94562
H    -1.57994  -1.59433  -2.67909
H    -1.12834   0.08873  -3.10356
H    -2.84727  -0.41938  -3.16273
H    -2.20584  -3.13778  -0.98782
H    -3.55837  -2.01849  -0.59579
H    -3.01558  -3.22651   0.61006
H    -2.90249   3.22142   1.49535
H    -4.56867   2.71337   0.99935
H    -3.22139   2.77928  -0.19422
H     0.66721  -0.27408   2.50237
H     2.15985   3.68034   1.54096
H     0.60022   3.54630   2.43136
H     0.66432   3.12767   0.70970
H    -1.03415   1.77231  -1.48101
H     0.08270   3.76256  -2.36286
H     2.58037   3.89184  -2.45423
H     3.92537   1.96766  -1.58157
H     2.81653  -0.02529  -0.68944
H     1.77234  -1.71973  -2.24578
H     3.05266  -3.81726  -2.01808
H     2.96920  -5.11970   0.11645
H     1.57342  -4.27336   2.00944
H     0.30664  -2.17251   1.78273
