23
Generated by autodE on: 2022-06-17. E = -351.521383 Ha
C     3.59861   0.77251   0.86778
C     2.54972   0.42387   0.09055
C     2.72875   0.11334  -1.37359
C     1.20913   0.34297   0.66710
C     0.07823   0.00895  -0.00401
C    -1.22915  -0.05369   0.61697
C    -2.40394  -0.37503   0.01842
C    -3.68550  -0.39587   0.80275
C    -2.54798  -0.73232  -1.43377
H     3.46527   0.99732   1.93052
H     4.61191   0.84164   0.46241
H     2.12130   0.78741  -2.00016
H     3.78043   0.21461  -1.67646
H     2.39892  -0.91310  -1.60528
H     1.13263   0.57780   1.73563
H     0.14644  -0.22682  -1.06945
H    -1.25715   0.18784   1.68643
H    -3.53109  -0.13229   1.85939
H    -4.42024   0.30734   0.37089
H    -4.15634  -1.39438   0.75674
H    -3.26256  -0.04908  -1.92581
H    -2.97456  -1.74584  -1.53688
H    -1.60427  -0.70050  -1.99323
