18
Generated by autodE on: 2022-06-17. E = -419.279584 Ha
C    -4.19050  -0.16519   0.10538
C    -2.79346  -0.34520   0.45197
N    -1.67333  -0.49353   0.73679
N    -0.48460  -0.71787   1.14099
C     0.53432  -0.19920   0.34115
C     1.86263  -0.43318   0.75968
C     2.93830   0.04971   0.01794
C     2.72597   0.78091  -1.15895
C     1.41286   1.01836  -1.57908
C     0.32578   0.53891  -0.84502
H    -4.72383   0.38100   0.89948
H    -4.68112  -1.13759  -0.06087
H    -4.25394   0.41956  -0.82584
H     2.02691  -1.00288   1.67719
H     3.95705  -0.14620   0.36311
H     3.57115   1.15924  -1.73800
H     1.22738   1.58738  -2.49426
H    -0.69076   0.73652  -1.19202
