35
Generated by autodE on: 2022-06-15. E = -1564.930537 Ha
C    -0.93784  -1.58437   3.66410
O    -0.86546  -0.99223   2.35346
C    -1.93853  -0.34443   1.92968
O    -2.96818  -0.22408   2.55764
C    -1.74974   0.31177   0.55000
C    -3.05683   0.05820  -0.22358
O    -3.84001   0.91710  -0.55284
O    -3.20632  -1.23927  -0.47126
C    -4.40015  -1.63695  -1.16859
C    -0.58119  -0.18016  -0.16611
C     0.54552  -0.21151  -0.60654
C     1.87689   0.30329  -0.86470
Cl    1.94774   0.95687  -2.58405
C     2.95793  -0.78913  -0.77777
F     4.18151  -0.29339  -0.99226
F     2.74732  -1.76909  -1.66407
F     2.95036  -1.34362   0.44527
C     2.14260   1.45002   0.13620
C     1.01875   2.49543   0.26682
C    -0.12218   2.23980   1.29225
C    -1.51136   1.84369   0.75475
H    -1.10588  -0.80536   4.42069
H     0.02986  -2.07231   3.82397
H    -1.75206  -2.32135   3.70081
H    -5.28891  -1.36431  -0.58210
H    -4.33412  -2.72489  -1.27981
H    -4.44294  -1.15261  -2.15418
H     2.32727   0.97963   1.11526
H     3.07846   1.93740  -0.17285
H     0.59526   2.70488  -0.72903
H     1.52235   3.42483   0.57091
H     0.21115   1.51634   2.05444
H    -0.27753   3.18358   1.83592
H    -2.29648   2.19346   1.44079
H    -1.69371   2.32970  -0.21464
