63
Generated by autodE on: 2022-06-15. E = -2289.694057 Ha. Imaginary frequency = -304.6 cm-1
C   -11.65329  -3.17772  -9.15711
O   -12.21205  -3.46779  -7.86836
C   -13.23621  -2.72254  -7.47127
O   -13.77382  -1.86649  -8.15582
C   -13.69092  -3.03755  -6.09536
C   -13.31072  -4.30044  -5.55278
N   -12.99613  -5.34400  -5.14197
N   -14.93091  -2.49628  -5.84940
C   -15.55570  -2.36911  -4.67258
C   -15.55944  -3.50982  -3.69458
C   -16.68397  -1.40587  -4.68929
C   -16.52558  -0.14873  -5.30424
C   -17.58213   0.75816  -5.34427
C   -18.81630   0.42326  -4.77659
C   -18.98437  -0.82341  -4.16752
C   -17.92465  -1.73102  -4.11683
C   -13.68499  -1.25282  -3.76581
C   -12.72663  -1.61083  -4.49435
C   -11.27209  -1.43082  -4.69665
Cl  -10.44112  -2.99320  -5.20381
C   -10.96064  -0.41673  -5.82269
F   -11.49870   0.77938  -5.53592
F   -11.44287  -0.78809  -7.01573
F    -9.64134  -0.23484  -5.96968
C   -10.58021  -0.94636  -3.40977
C   -10.88287  -1.78326  -2.15721
C   -11.76014  -1.07746  -1.11786
C   -13.28205  -1.09283  -1.28566
C   -13.96207  -0.43985  -2.53385
C   -15.44868  -0.23058  -2.13327
O   -16.02146   0.83365  -2.24337
O   -15.97949  -1.29021  -1.54302
C   -17.27127  -1.13122  -0.93151
C   -13.48282   1.01089  -2.76518
O   -12.94304   1.68764  -1.91748
O   -13.77119   1.44176  -3.98506
C   -13.43267   2.80062  -4.29718
H   -11.28126  -2.14423  -9.18781
H   -12.40613  -3.32319  -9.94489
H   -10.82440  -3.88234  -9.28858
H   -15.14781  -1.78778  -6.55727
H   -16.19525  -4.31924  -4.09369
H   -14.56034  -3.91735  -3.52125
H   -15.96860  -3.18618  -2.73491
H   -15.55490   0.13870  -5.71307
H   -17.43742   1.73662  -5.80738
H   -19.64371   1.13596  -4.80350
H   -19.94512  -1.09128  -3.72247
H   -18.06717  -2.69733  -3.63233
H    -9.50155  -0.92143  -3.61352
H   -10.88762   0.09805  -3.24937
H    -9.92296  -2.01564  -1.67276
H   -11.31886  -2.75558  -2.43732
H   -11.58589  -1.56644  -0.14529
H   -11.40893  -0.04160  -0.99832
H   -13.64111  -2.13112  -1.26038
H   -13.70500  -0.59679  -0.39847
H   -17.59828  -2.13947  -0.65467
H   -17.98038  -0.67558  -1.63161
H   -17.17345  -0.50030  -0.03622
H   -13.68510   2.93742  -5.35448
H   -14.02108   3.48741  -3.67173
H   -12.36106   2.97736  -4.13323
