50
Generated by autodE on: 2022-06-07. E = -3719.350182 Ha
C    -2.65087   0.34118   4.17465
N    -1.32349   0.16384   3.62092
C    -0.86140   0.98274   2.65787
O    -1.45136   1.98970   2.26624
N     0.42313   0.62935   2.14191
N     0.64986  -0.75947   2.15675
N     0.26945  -1.14432   0.84634
C    -0.49746  -2.26416   0.64885
O    -0.90631  -2.62928  -0.43892
O    -0.69346  -2.93974   1.78893
C    -1.43494  -4.16128   1.66987
C     0.52234  -0.01941  -0.02443
C     0.71109   1.07187   0.77312
C     1.26543   2.48849   0.58479
C     0.33731   3.37072  -0.27027
C     1.39510   3.18067   1.96346
C     2.73568   2.44229   0.05132
C     3.05495   2.27828  -1.43248
C     2.72889   0.93300  -2.07684
C     1.23772   0.76194  -2.40404
C     0.45639  -0.21940  -1.50790
Br   -1.49662   0.06441  -2.02728
C     0.94508  -1.62432  -1.93615
C     0.36621  -2.28800  -3.15127
O     1.91006  -2.07461  -1.34486
H    -2.75704  -0.30390   5.05586
H    -3.44245   0.08169   3.45087
H    -2.80007   1.38531   4.48312
H    -0.85096  -0.73068   3.71823
H     1.66347  -0.89994   2.22346
H    -2.44872  -3.96452   1.29227
H    -0.92177  -4.86240   0.99605
H    -1.48461  -4.57805   2.68249
H     0.80650   4.35260  -0.43854
H     0.10027   2.93932  -1.24867
H    -0.61462   3.52660   0.25611
H     2.11452   2.65897   2.61033
H     1.76477   4.20400   1.80211
H     0.43482   3.24560   2.48511
H     3.18609   3.40002   0.35724
H     3.26754   1.66289   0.62297
H     4.14039   2.44847  -1.53024
H     2.57460   3.08420  -2.01387
H     3.29099   0.85404  -3.01988
H     3.08922   0.10979  -1.44066
H     1.11382   0.40023  -3.43359
H     0.73888   1.73531  -2.38536
H     0.31799  -1.58961  -3.99981
H    -0.65751  -2.62181  -2.93998
H     0.99419  -3.14922  -3.41337
