31
Generated by autodE on: 2022-06-07. E = -3117.123836 Ha
C     2.53599   1.43735   1.34130
C     2.12739   1.16100  -0.07601
O     2.73582   1.58591  -1.03843
C     0.84772   0.33046  -0.28843
Br    1.59515  -1.58219  -0.12027
C    -0.18851   0.49326   0.70110
C    -1.33453   0.57635   1.09579
C    -2.79839   0.63377   1.10134
C    -3.40753  -0.21644   2.22735
C    -3.26725   2.09501   1.23664
C    -3.20285   0.04549  -0.29050
C    -2.42318   0.54434  -1.52591
C    -1.11800  -0.20351  -1.92631
C     0.23180   0.49791  -1.68482
H     3.58195   1.76849   1.37312
H     1.89205   2.24622   1.72703
H     2.38290   0.56346   1.98955
H    -3.14778   0.19447   3.21501
H    -3.04891  -1.25572   2.17746
H    -4.50483  -0.22414   2.13497
H    -2.93116   2.52645   2.19171
H    -4.36740   2.13241   1.20714
H    -2.87585   2.72085   0.42119
H    -3.11690  -1.05243  -0.23548
H    -4.27466   0.26913  -0.42265
H    -2.21906   1.62429  -1.43234
H    -3.11481   0.45624  -2.37816
H    -1.16664  -0.38493  -3.01084
H    -1.09793  -1.20434  -1.46346
H     0.11365   1.58565  -1.83115
H     0.97542   0.16785  -2.42342
