19
Generated by autodE on: 2022-06-07. E = -602.175630 Ha
C     4.61861   0.19976   0.03552
N     3.34294   0.36335   0.70360
C     2.18665   0.11463   0.08286
O     2.07304  -0.26159  -1.08696
N     1.06543   0.33927   0.94146
N    -0.00821   0.09884   0.31373
N    -1.18389   0.20740   0.81738
C    -2.14854  -0.13092  -0.14046
O    -1.92514  -0.47689  -1.28968
O    -3.35788  -0.01676   0.39580
C    -4.46785  -0.32982  -0.45872
H     5.41682   0.52351   0.71330
H     4.79105  -0.85245  -0.24191
H     4.66064   0.80637  -0.88214
H     3.30920   0.65955   1.67440
H     0.08549  -0.21117  -0.69139
H    -4.47930   0.33843  -1.33190
H    -5.36695  -0.17670   0.14879
H    -4.40871  -1.37477  -0.79587
