16
Generated by autodE on: 2022-10-06. E = -472.220790 Ha
N     4.68100  -0.23559   0.91018
C     3.77193  -0.29855   0.17120
N     2.85553  -0.40174  -0.77748
N     1.62722  -0.22619  -0.43191
C     0.47867  -0.09884  -0.30009
C    -0.92183   0.05959  -0.11430
C    -1.71612  -1.06273   0.20120
C    -3.08661  -0.89782   0.38357
C    -3.66491   0.37044   0.25455
C    -2.87630   1.48367  -0.05893
C    -1.50425   1.33781  -0.24529
H    -1.25002  -2.04423   0.29928
H    -3.70776  -1.76162   0.62818
H    -4.74060   0.49249   0.39987
H    -3.33415   2.46972  -0.15834
H    -0.87593   2.19556  -0.48967
