10
Generated by autodE on: 2022-10-06. E = -455.046589 Ha
O    -2.81613   0.16321  -0.20310
C    -1.57434  -0.05228  -0.10174
O    -1.03712  -1.18611   0.04579
C    -0.68232   1.16487  -0.16994
C     0.65811   1.15861  -0.07998
C     1.56629  -0.04148   0.11173
O     2.02353  -0.57385  -0.93254
O     1.85503  -0.34385   1.29845
H    -1.20828   2.11705  -0.30520
H     1.19080   2.11747  -0.14685
