54
Generated by autodE on: 2022-06-08. E = -1728.436678 Ha
C   -15.01350  21.34977  18.21730
N   -15.15599  20.61632  19.45890
C   -14.34691  20.80901  20.49945
O   -13.44440  21.65095  20.54505
C   -14.55437  19.83390  21.68028
C   -14.64055  20.62502  23.00809
O   -14.90105  21.80343  23.08629
O   -14.55399  19.79659  24.03949
C   -14.74841  20.34771  25.34880
N   -15.77871  19.04716  21.54124
C   -15.53661  17.65201  21.87588
C   -16.00338  17.30675  23.23986
N   -16.36746  17.09644  24.32024
C   -16.22568  16.77110  20.79876
O   -15.89619  16.82460  19.63609
O   -17.19508  16.02519  21.28948
C   -17.90065  15.17403  20.36459
C   -14.01144  17.54334  21.78497
C   -13.46307  18.76358  21.67759
C   -12.00242  19.09311  21.43655
F   -11.21818  18.17813  22.16227
C   -11.58908  20.43658  22.07890
O   -11.97986  20.78142  23.17387
O   -10.67907  21.08343  21.37285
C   -10.22173  22.33665  21.90844
C   -11.61730  18.97881  19.95802
C   -12.09127  17.72498  19.22211
C   -11.68568  16.37045  19.84100
C   -12.81696  15.60381  20.52862
C   -13.38741  16.15729  21.82194
F   -12.47554  16.06968  22.83249
F   -14.40967  15.29101  22.19765
H   -15.94492  21.27217  17.64302
H   -14.80684  22.40819  18.42652
H   -14.18610  20.95084  17.60710
H   -15.80126  19.83208  19.53178
H   -13.94225  21.05953  25.57742
H   -15.72151  20.85487  25.41100
H   -14.71610  19.49766  26.03938
H   -16.59436  19.44815  22.00087
H   -17.20374  14.44892  19.92186
H   -18.36358  15.78027  19.57395
H   -18.66611  14.66103  20.95648
H   -11.06973  23.03005  22.00086
H    -9.75563  22.18522  22.89194
H    -9.48850  22.72023  21.19057
H   -11.99324  19.87119  19.43939
H   -10.51925  19.04261  19.93395
H   -11.66930  17.79543  18.20815
H   -13.18402  17.75979  19.08966
H   -10.83797  16.49296  20.53036
H   -11.32907  15.70866  19.03780
H   -12.48061  14.58689  20.78626
H   -13.66531  15.50202  19.83624
