28
Generated by autodE on: 2022-07-27. E = -890.362896 Ha
C    -0.24558   3.02120  -2.49830
N    -0.22400   2.46074  -1.16220
C     0.22546   1.21527  -0.94120
O     0.57242   0.44805  -1.84826
C     0.35169   0.79652   0.48658
N     0.44020  -0.49312   0.81190
C     0.05387  -1.60560   0.15603
C     0.54831  -2.84476   0.62451
N     0.95875  -3.86852   1.00519
C    -1.00726  -1.58402  -0.86424
O    -1.81351  -0.68312  -0.99982
O    -1.02503  -2.71960  -1.56720
C    -2.09265  -2.87170  -2.51542
C     0.65006   1.75617   1.56679
O     0.56872   2.96922   1.45465
O     1.00474   1.14459   2.70112
C     1.32427   1.97738   3.82720
H    -0.72300   2.31862  -3.19578
H     0.77070   3.23345  -2.87155
H    -0.81870   3.95626  -2.48309
H    -0.30518   3.07568  -0.35426
H     0.86830  -0.65177   1.73353
H    -1.93607  -3.84723  -2.98926
H    -3.06585  -2.84691  -2.00438
H    -2.05079  -2.07037  -3.26684
H     0.45901   2.60036   4.09400
H     2.18558   2.61904   3.59357
H     1.56913   1.29193   4.64591
