26
Generated by autodE on: 2022-06-08. E = -837.978559 Ha
C     0.93409  -2.52474  -2.55904
O     0.77006  -1.53703  -1.52386
C     1.84678  -0.84607  -1.18006
O     2.95110  -0.99539  -1.64638
C     1.52780   0.24863  -0.14494
F     2.73673   0.58287   0.44819
C     0.53710  -0.16231   0.84063
C    -0.54532  -0.27581   1.37140
C    -1.95304   0.08879   1.55126
F    -2.72806  -0.97990   1.91029
F    -2.06444   0.98965   2.58286
C    -2.47545   0.70258   0.25709
C    -1.62000   1.84198  -0.33100
C    -0.48977   1.47809  -1.33364
C     0.97046   1.51813  -0.84462
H     1.28001  -2.04595  -3.48575
H     1.65794  -3.28771  -2.24109
H    -0.05528  -2.97188  -2.70436
H    -3.48712   1.06804   0.49569
H    -2.58204  -0.11869  -0.46819
H    -2.32370   2.49505  -0.86749
H    -1.21747   2.45874   0.48982
H    -0.53922   2.21369  -2.15009
H    -0.70086   0.50497  -1.80433
H     1.64601   1.72281  -1.68976
H     1.10495   2.33136  -0.11402
