48
Generated by autodE on: 2022-06-03. E = -1261.391507 Ha
C     3.81812  -3.97149   0.34364
N     2.72396  -3.02545   0.28312
C     2.88595  -1.70180   0.16795
O     3.97150  -1.11155   0.10793
C     1.61178  -0.90943   0.10395
N     0.43868  -1.43465   0.06623
C    -0.55310  -0.33955   0.01551
C    -1.34432  -0.41231  -1.30423
C    -0.68178  -0.76944  -2.48710
C    -1.36294  -0.77974  -3.70633
C    -2.71514  -0.42742  -3.75927
C    -3.37721  -0.06176  -2.58440
C    -2.69595  -0.05178  -1.36379
C    -1.42032  -0.51008   1.26797
C    -1.32387   0.35650   2.36324
C    -2.09284   0.13474   3.51085
C    -2.96014  -0.95723   3.57786
C    -3.04986  -1.83510   2.49147
C    -2.28294  -1.61471   1.34736
C     0.30009   0.92593   0.01107
C    -0.16387   2.32351  -0.09364
O     0.58809   3.27496  -0.21750
O    -1.48854   2.43048  -0.03636
C    -2.04495   3.74906  -0.14011
C     1.60276   0.56459   0.05862
C     2.81432   1.45553   0.07793
C     3.41170   1.79005  -1.25424
O     3.23482   1.87003   1.14304
H     3.74903  -4.58706   1.25330
H     4.76535  -3.41984   0.35756
H     3.80926  -4.64122  -0.53073
H     1.76711  -3.36812   0.30881
H     0.37498  -1.04077  -2.46020
H    -0.83296  -1.06498  -4.61812
H    -3.24976  -0.43716  -4.71196
H    -4.43251   0.21961  -2.61330
H    -3.22308   0.24245  -0.45691
H    -0.64551   1.20942   2.33844
H    -2.00998   0.82383   4.35450
H    -3.56256  -1.12733   4.47323
H    -3.71973  -2.69701   2.53583
H    -2.35446  -2.30540   0.50556
H    -1.76049   4.20833  -1.09742
H    -3.13158   3.62010  -0.08579
H    -1.69110   4.37769   0.68939
H     2.67586   2.37463  -1.83002
H     3.61165   0.86500  -1.81576
H     4.33504   2.37041  -1.12381
