33
Generated by autodE on: 2022-06-03. E = -803.194794 Ha
C     4.14695   0.84303  -0.12971
N     4.07201  -0.58398  -0.38045
C     3.03856  -1.37929  -0.04977
O     2.96441  -2.58368  -0.32402
C     1.98040  -0.78223   0.79722
N     0.87448  -0.40483   0.44983
C    -0.32419   0.00491   0.21067
C    -0.51632   1.45813  -0.00849
C     0.50254   2.21544  -0.61756
C     0.35999   3.59245  -0.78842
C    -0.80224   4.23937  -0.35508
C    -1.81743   3.49705   0.25689
C    -1.67873   2.11893   0.43152
C    -1.41215  -0.99708   0.17450
C    -2.61697  -0.74689  -0.51040
C    -3.62317  -1.71400  -0.55202
C    -3.44880  -2.94647   0.08426
C    -2.24989  -3.20958   0.75721
C    -1.24092  -2.24902   0.79929
H     3.77075   1.43803  -0.97772
H     5.19031   1.12911   0.06092
H     3.55477   1.09952   0.76054
H     4.80131  -1.02416  -0.93699
H     1.40824   1.71616  -0.96670
H     1.15900   4.16228  -1.26858
H    -0.91559   5.31723  -0.49196
H    -2.72344   3.99519   0.60998
H    -2.46862   1.55754   0.93183
H    -2.76468   0.20091  -1.02821
H    -4.54873  -1.50223  -1.09261
H    -4.23848  -3.70051   0.05065
H    -2.09920  -4.17151   1.25290
H    -0.30487  -2.47075   1.31593
