48
Generated by autodE on: 2022-06-03. E = -1261.275123 Ha. Imaginary frequency = -211.6 cm-1
C     4.85618  -2.73911   0.48076
N     3.62449  -1.98956   0.65351
C     2.82775  -1.69424  -0.38099
O     3.02880  -2.02019  -1.55558
C     1.65942  -0.83100  -0.06360
N     0.46901  -1.06438  -0.14713
C    -0.79789  -0.76479  -0.23324
C    -1.30268  -0.43253  -1.57826
C    -0.54484  -0.77883  -2.71813
C    -0.97510  -0.41662  -3.99198
C    -2.16923   0.29529  -4.15801
C    -2.92349   0.64870  -3.03626
C    -2.49778   0.29293  -1.75591
C    -1.63926  -0.93439   0.96987
C    -1.07519  -0.73630   2.24530
C    -1.85563  -0.86127   3.39154
C    -3.21114  -1.19554   3.28743
C    -3.77349  -1.42273   2.02823
C    -2.99497  -1.29885   0.87634
C     0.60408   1.81244   0.38427
C    -0.72350   2.31710   0.40069
O    -1.30984   2.79173  -0.56529
O    -1.27804   2.22130   1.62856
C    -2.66670   2.55064   1.73849
C     1.74108   1.31851   0.35451
C     3.20558   1.39026   0.47442
C     3.95711   1.64865  -0.79865
O     3.74876   1.21967   1.55551
H     5.63297  -2.12890  -0.00879
H     5.22011  -3.05520   1.46561
H     4.67623  -3.62984  -0.13713
H     3.43644  -1.53925   1.54554
H     0.38356  -1.34075  -2.60118
H    -0.37868  -0.69842  -4.86263
H    -2.50797   0.57393  -5.15843
H    -3.84883   1.21698  -3.15392
H    -3.08125   0.60872  -0.89371
H    -0.02449  -0.45588   2.33310
H    -1.40681  -0.68892   4.37225
H    -3.82414  -1.28690   4.18694
H    -4.82480  -1.70525   1.93929
H    -3.44169  -1.50251  -0.09640
H    -3.27378   1.88591   1.10672
H    -2.84747   3.59629   1.44950
H    -2.92763   2.40038   2.79270
H     3.65465   2.62661  -1.20783
H     3.68771   0.88984  -1.55086
H     5.03869   1.63152  -0.61045
