63
Generated by autodE on: 2022-06-11. E = -1627.822770 Ha
C    15.11882  -3.02947  19.72144
N    15.75900  -4.28340  20.07293
C    16.92783  -4.32833  20.71578
O    17.59778  -3.32297  20.98740
C    17.41329  -5.74220  21.10300
F    16.25031  -6.49114  21.41322
C    18.01735  -6.53961  19.92602
C    18.88998  -5.85588  18.87769
C    20.35068  -5.62812  19.24596
C    20.56767  -4.56750  20.32679
C    20.73664  -5.00345  21.81909
C    21.05256  -3.64794  22.54089
O    22.17080  -3.34840  22.98283
N    20.01148  -2.81074  22.61658
C    20.14322  -1.48914  23.19958
C    21.87245  -6.05439  21.84221
O    21.57111  -7.24688  21.68268
N    23.13037  -5.61538  21.93428
C    24.26766  -6.51314  21.93674
C    19.55815  -5.56744  22.59626
C    18.22607  -5.70301  22.37578
C    17.59027  -5.86927  23.72164
C    16.13544  -5.85868  24.01311
C    15.54371  -6.92675  24.70122
C    14.18021  -6.89659  25.00616
C    13.40228  -5.79430  24.63900
C    13.99312  -4.71839  23.96685
C    15.35209  -4.75098  23.65112
N    18.44712  -5.93984  24.68444
C    19.76175  -5.84133  24.08419
C    20.49170  -7.17067  24.30726
O    19.97782  -8.25733  24.16807
O    21.75149  -6.97802  24.69342
C    22.56102  -8.15594  24.84602
H    14.33230  -3.22392  18.98210
H    15.85511  -2.33739  19.29122
H    14.66563  -2.54946  20.60495
H    15.23193  -5.14768  19.99103
H    18.54448  -7.40372  20.35952
H    17.12834  -6.92996  19.40971
H    18.86160  -6.50518  17.98802
H    18.43074  -4.90230  18.56535
H    20.87233  -5.28277  18.33945
H    20.81921  -6.58369  19.52303
H    19.75471  -3.83411  20.27132
H    21.49402  -4.01861  20.10225
H    19.12906  -3.06308  22.15984
H    20.87090  -0.87414  22.64562
H    20.47880  -1.55107  24.24635
H    19.16485  -0.99407  23.16974
H    23.22975  -4.65058  22.26153
H    24.46511  -6.92439  22.94053
H    24.08477  -7.35128  21.25183
H    25.16092  -5.96818  21.60303
H    16.15479  -7.78593  24.98470
H    13.72398  -7.73759  25.53365
H    12.33679  -5.77107  24.87953
H    13.39325  -3.84876  23.68839
H    15.81474  -3.90405  23.14003
H    20.34701  -5.05514  24.58044
H    23.54677  -7.80461  25.17007
H    22.63687  -8.68235  23.88467
H    22.12504  -8.82330  25.60265
