41
Generated by autodE on: 2022-06-11. E = -1035.793244 Ha
C     3.98688   3.86341  -1.02552
N     3.43258   2.83968  -0.16136
C     2.50328   1.96264  -0.55080
O     2.01182   1.89017  -1.68138
C     2.06347   0.94788   0.52134
F     2.56065   1.34030   1.77502
C     0.61097   0.83286   0.57628
C    -0.45656   0.26640   0.51692
C    -1.39185  -0.83284   0.31793
C    -1.70279  -1.06320  -1.18247
O    -2.48266  -1.96546  -1.51897
N    -1.07915  -0.28376  -2.07112
C    -1.25428  -0.47071  -3.49968
C    -2.66906  -0.62421   1.16709
O    -2.66122   0.18399   2.10097
N    -3.71479  -1.40284   0.87139
C    -4.95379  -1.33245   1.62028
C    -0.64532  -2.11091   0.85499
C     0.77219  -2.35688   0.30296
C     1.98447  -1.63152   0.95178
C     2.61904  -0.45349   0.18559
H     5.08599   3.82473  -1.00855
H     3.63841   3.69211  -2.05067
H     3.66757   4.86749  -0.70475
H     3.72595   2.80404   0.81027
H    -0.39254   0.38941  -1.74136
H    -2.31562  -0.38659  -3.77769
H    -0.68419   0.30281  -4.02783
H    -0.89444  -1.46148  -3.82006
H    -3.63748  -1.97563   0.02989
H    -5.43169  -0.34412   1.52073
H    -5.64232  -2.09683   1.23989
H    -4.77671  -1.51525   2.69133
H    -0.61317  -2.03185   1.95266
H    -1.28383  -2.97053   0.60582
H     0.78229  -2.19129  -0.78752
H     0.94212  -3.43712   0.43064
H     1.73982  -1.31764   1.98011
H     2.78297  -2.38126   1.05810
H     3.70071  -0.39969   0.38812
H     2.49860  -0.59915  -0.89845
