63
Generated by autodE on: 2022-06-11. E = -1627.702470 Ha. Imaginary frequency = -287.8 cm-1
C    14.61852  -3.45106  20.85833
N    15.40387  -4.67052  20.82620
C    16.73799  -4.64760  20.84944
O    17.40644  -3.60540  20.82695
C    17.43134  -6.02928  20.86543
F    16.47504  -6.98576  21.27375
C    17.86773  -6.47376  19.45749
C    18.93601  -5.65158  18.72661
C    20.41908  -5.83343  19.13015
C    21.02112  -4.74833  20.03744
C    21.01125  -5.03291  21.59171
C    21.10018  -3.64091  22.28286
O    22.15087  -3.17620  22.75181
N    19.95855  -2.94221  22.28463
C    19.89149  -1.59796  22.82356
C    22.15642  -6.03066  21.88755
O    21.95419  -7.23829  21.70060
N    23.33344  -5.51160  22.24811
C    24.49330  -6.31599  22.56947
C    19.73272  -5.65013  21.96045
C    18.55260  -5.96741  21.80170
C    17.57484  -5.70526  23.98414
C    16.14878  -5.60942  24.07549
C    15.33754  -6.75335  23.96375
C    13.95198  -6.61150  23.97978
C    13.36984  -5.34311  24.09522
C    14.17982  -4.20800  24.20480
C    15.56773  -4.33083  24.19021
N    18.63298  -5.65162  24.53628
C    19.95334  -5.75935  24.48364
C    20.50704  -7.09909  24.61236
O    19.86510  -8.13752  24.52734
O    21.84089  -7.06995  24.80883
C    22.50668  -8.33674  24.82041
H    14.71278  -2.89483  19.91235
H    14.94970  -2.79544  21.67719
H    13.56577  -3.71259  21.01486
H    14.94527  -5.56531  20.96804
H    18.20613  -7.51678  19.56428
H    16.95103  -6.49226  18.84698
H    18.84761  -5.94689  17.66945
H    18.67050  -4.58266  18.75587
H    21.00843  -5.81621  18.20055
H    20.58220  -6.83051  19.56689
H    20.47919  -3.80741  19.86846
H    22.06968  -4.55686  19.76553
H    19.12289  -3.33077  21.83759
H    18.86495  -1.22863  22.70792
H    20.57761  -0.91614  22.29562
H    20.15566  -1.58411  23.89272
H    23.31217  -4.51421  22.48467
H    24.61404  -6.42919  23.65922
H    24.38594  -7.31238  22.12464
H    25.40193  -5.84283  22.16937
H    15.80009  -7.73385  23.84901
H    13.31953  -7.49789  23.89582
H    12.28259  -5.24014  24.09767
H    13.72866  -3.21748  24.29152
H    16.20832  -3.44965  24.25104
H    20.56244  -4.87995  24.69204
H    23.56433  -8.12411  25.01329
H    22.39619  -8.83709  23.84796
H    22.10070  -8.98207  25.61317
