23
Generated by autodE on: 2022-06-17. E = -351.521381 Ha
C    -3.14822   1.01664  -1.83154
C    -2.39265   0.39296  -0.90099
C    -3.01479  -0.49377   0.14727
C    -0.94219   0.57250  -0.89897
C    -0.07590   0.00599  -0.02175
C     1.35650   0.21870  -0.06545
C     2.28772  -0.30547   0.77112
C     1.97863  -1.22366   1.91948
C     3.74574   0.01163   0.59319
H    -4.23526   0.90004  -1.85634
H    -2.69357   1.65974  -2.59142
H    -4.10687  -0.54032   0.03221
H    -2.78852  -0.12800   1.16264
H    -2.61609  -1.52014   0.08701
H    -0.53975   1.22597  -1.68241
H    -0.47009  -0.64659   0.76197
H     1.71210   0.87741  -0.86708
H     0.90933  -1.44094   2.03763
H     2.34755  -0.78917   2.86538
H     2.51247  -2.18254   1.79562
H     3.92415   0.68617  -0.25705
H     4.15850   0.48087   1.50439
H     4.33058  -0.91238   0.43495
