17
Generated by autodE on: 2022-07-27. E = -418.321604 Ha
C     0.55474   1.12790   2.66706
C     0.84049   1.08234   1.17948
O     1.70769   1.81774   0.68288
C     0.03235   0.13435   0.45435
N     0.08774  -0.11347  -0.86783
C     1.04593   0.61819  -1.72630
C    -0.68970  -1.01011  -1.50282
C    -1.64514  -1.77471  -0.81786
N    -2.44575  -2.41778  -0.25720
H     0.75459   0.14649   3.12758
H    -0.50562   1.36309   2.85328
H     1.18940   1.88926   3.13917
H    -0.70003  -0.45083   1.01012
H     0.84127   1.69176  -1.66068
H     0.92857   0.26738  -2.75536
H     2.06430   0.43214  -1.36977
H    -0.56383  -1.13835  -2.57570
