40
Generated by autodE on: 2022-06-17. E = -769.833986 Ha. Imaginary frequency = -334.9 cm-1
C    -1.28731   1.29134   2.81652
C    -1.05577   1.34279   1.32032
O    -0.22878   2.16265   0.86680
C    -1.74738   0.34934   0.55990
N    -1.69264   0.14398  -0.78609
C    -1.04090   1.06140  -1.73382
C    -2.00951  -1.09598  -1.26464
C    -3.09220  -1.81327  -0.66264
N    -3.96040  -2.42021  -0.17970
C    -0.42665  -2.31197  -0.55165
C    -0.02071  -1.80773   0.69363
C    -0.59930  -2.39914   1.95578
C     1.05931  -0.85831   0.82604
C     1.75049  -0.25190  -0.18196
C     2.77623   0.73727   0.04160
C     3.47093   1.42484  -0.90319
C     3.27192   1.26415  -2.38385
C     4.51130   2.43525  -0.51111
H    -0.37048   0.91480   3.30200
H    -2.12935   0.64940   3.10754
H    -1.45618   2.31228   3.19323
H    -2.41153  -0.32343   1.09784
H    -1.80902   1.51535  -2.37824
H    -0.33421   0.50324  -2.36095
H    -0.51318   1.83585  -1.17564
H    -1.94170  -1.21564  -2.34846
H     0.20287  -2.13848  -1.42663
H    -0.98142  -3.25325  -0.56739
H     0.00883  -3.25788   2.29564
H    -1.62261  -2.76864   1.79505
H    -0.61558  -1.66908   2.77846
H     1.31017  -0.56983   1.85343
H     1.51112  -0.51087  -1.21600
H     2.99754   0.96076   1.09244
H     4.21760   0.96597  -2.87094
H     2.98665   2.22977  -2.83831
H     2.50331   0.52632  -2.64831
H     4.61996   2.51792   0.58048
H     4.26084   3.43426  -0.91240
H     5.49598   2.17422  -0.94014
