23
Generated by autodE on: 2022-10-06. E = -625.456291 Ha
C     4.24490   1.43780   0.21163
N     2.81441   1.22076   0.22227
C     2.23901   0.03241  -0.07784
O     2.88546  -0.97647  -0.39745
C     0.76242   0.10256   0.00954
N    -0.04253  -0.92908  -0.10787
C     0.50498  -2.29095  -0.31796
N    -1.39180  -0.96957  -0.06615
C    -2.14314   0.16389   0.06377
O    -1.81967   1.35077   0.15825
O    -3.45196  -0.20142   0.07427
C    -4.39906   0.85793   0.20129
H     4.50170   2.30070  -0.42185
H     4.62721   1.62904   1.22757
H     4.73712   0.54328  -0.18698
H     2.21435   1.99533   0.48860
H     0.28684   1.06353   0.17590
H     0.96077  -2.34713  -1.31301
H     1.26664  -2.50444   0.43754
H    -0.33978  -2.97822  -0.23770
H    -4.32031   1.56442  -0.63937
H    -5.38836   0.38350   0.19527
H    -4.25558   1.40787   1.14419
