23
Generated by autodE on: 2022-10-13. E = -625.462467 Ha
C     3.11221   0.95047   1.44384
N     2.04855   0.42761   0.61455
C     2.28402  -0.51986  -0.30496
O     3.40511  -1.00967  -0.52238
C     1.14511  -1.01679  -1.11677
N    -0.12624  -0.71085  -1.00819
C    -1.06479  -1.38251  -1.94534
N    -0.52472   0.23077  -0.14765
C    -1.83209   0.29015   0.22836
O    -2.75347  -0.49295   0.02332
O    -2.00011   1.41727   0.96663
C    -3.30297   1.62321   1.51223
H     3.90620   1.41008   0.83309
H     2.69824   1.71087   2.11699
H     3.57612   0.15451   2.04894
H     1.07438   0.73997   0.69216
H     1.41134  -1.73308  -1.89102
H    -1.71545  -0.62275  -2.39171
H    -1.67244  -2.10462  -1.39274
H    -0.47145  -1.88208  -2.71647
H    -3.58599   0.79751   2.18296
H    -3.24992   2.56095   2.07918
H    -4.05679   1.71172   0.71510
