10
Generated by autodE on: 2022-10-06. E = -455.046573 Ha
O     2.15860  -0.54367  -0.54814
C     1.52333  -0.02014   0.40303
O     1.61357  -0.31938   1.62208
C     0.63951   1.16623   0.06498
C    -0.65920   1.15375  -0.27931
C    -1.53086  -0.07433  -0.39929
O    -1.00966  -1.20616  -0.19120
O    -2.74111   0.13154  -0.70164
H     1.15250   2.13632   0.12473
H    -1.16784   2.10165  -0.49007
