37
Generated by autodE on: 2022-05-26. E = -938.218574 Ha
C     3.49175   2.27175   0.56214
N     2.55856   1.16271   0.61849
C     2.03828   0.61559  -0.48114
O     2.33606   0.92198  -1.63572
C     0.93798  -0.44641  -0.23813
C     1.11120  -1.50011  -1.27310
N     1.25889  -2.40996  -1.97712
N     0.90701  -0.99749   1.10079
C     1.97280  -1.92459   1.45764
C    -0.43343  -1.52748   1.35662
C    -1.41071  -0.61766   0.57318
C    -2.38997  -1.42773  -0.13999
N    -3.17727  -2.07855  -0.69088
C    -2.06156   0.51393   1.42970
C    -3.02952   1.32723   0.54913
C    -2.07225   2.11137  -0.39661
C    -0.66562   1.65345   0.05569
C    -0.88015   1.49000   1.57300
C    -0.48283   0.20064  -0.41686
F    -0.85368   0.05824  -1.74140
H     3.99214   2.36911   1.53338
H     2.97627   3.21862   0.33026
H     4.24678   2.09102  -0.21559
H     2.18875   0.85036   1.51264
H     1.90190  -2.87990   0.90189
H     1.90600  -2.14690   2.53221
H     2.95504  -1.47618   1.25872
H    -0.51882  -2.57150   1.00317
H    -0.64708  -1.51818   2.43488
H    -2.49769   0.12182   2.35652
H    -3.61467   2.00876   1.18230
H    -3.74241   0.69115   0.00571
H    -2.15645   3.19582  -0.24277
H    -2.25406   1.90869  -1.45879
H     0.14101   2.31977  -0.27086
H    -0.02330   1.07684   2.11508
H    -1.18084   2.43613   2.04456
