19
Generated by autodE on: 2022-05-26. E = -473.720572 Ha
C    -1.83785  -1.57768  -0.76158
N    -1.63013  -0.36847  -0.32089
C    -2.80431   0.51964  -0.17204
C    -0.39667   0.19583   0.03425
C    -0.39681   1.51470   0.51615
N    -0.32839   2.61077   0.92771
C     0.86591  -0.53313  -0.09206
O     0.93285  -1.69874  -0.53213
N     1.98381   0.13631   0.30836
C     3.31592  -0.41838   0.20964
H    -0.99160  -2.24831  -0.87738
H    -2.86099  -1.86494  -0.99832
H    -2.89287   0.83043   0.87637
H    -3.70332  -0.02419  -0.47629
H    -2.67004   1.40575  -0.80484
H     1.89383   1.09525   0.62505
H     3.24181  -1.47169  -0.08466
H     3.92460   0.11174  -0.54246
H     3.84010  -0.36039   1.17688
