37
Generated by autodE on: 2022-05-26. E = -938.139098 Ha. Imaginary frequency = -308.0 cm-1
C     3.52508   1.90389  -1.41156
N     2.71090   0.70848  -1.31457
C     2.24135   0.28192  -0.11790
O     2.58767   0.82119   0.94177
C     1.23951  -0.81272  -0.17335
C     1.07878  -1.51189  -1.40146
N     0.94643  -2.08066  -2.41147
N     0.87104  -1.53483   0.97116
C     1.61288  -1.44379   2.24112
C    -0.28951  -2.17822   0.94132
C    -1.66582  -0.35730   0.37143
C    -2.64852  -1.17048  -0.24379
N    -3.44939  -1.86308  -0.73495
C    -2.00350   0.53544   1.57844
C    -2.90769   1.67233   1.01826
C    -1.93133   2.47946   0.11132
C    -0.56834   1.73286   0.29607
C    -0.67809   1.29649   1.76708
C    -0.76325   0.40808  -0.39657
F    -0.80266   0.38729  -1.74309
H     4.39400   1.83811  -0.74089
H     2.95801   2.81222  -1.14486
H     3.88342   2.00404  -2.44352
H     2.32356   0.32346  -2.16982
H     2.66906  -1.66980   2.05195
H     1.19583  -2.19340   2.92182
H     1.54614  -0.44872   2.68804
H    -0.61721  -2.68321   1.85055
H    -0.66003  -2.54675  -0.01189
H    -2.40564   0.00467   2.44941
H    -3.77302   1.27368   0.46947
H    -3.28864   2.29026   1.84492
H    -1.82303   3.51819   0.45490
H    -2.23978   2.50275  -0.94310
H     0.31683   2.30260  -0.00858
H    -0.78465   2.15444   2.44575
H     0.15136   0.67455   2.10717
