69
Generated by autodE on: 2022-06-15. E = -2530.201541 Ha
C     7.78707  -3.37340  -5.65532
N     7.40119  -4.17273  -4.51061
C     8.10656  -4.22079  -3.36942
O     9.08832  -3.51142  -3.14214
C     7.54271  -5.19493  -2.27464
C     8.57686  -5.16524  -1.10783
C     8.65818  -3.92560  -0.25190
O     9.28042  -6.11617  -0.83404
C     6.25574  -4.54701  -1.72195
C     5.58916  -5.33582  -0.58299
C     4.17392  -5.75483  -0.95471
C     4.05267  -6.91962  -1.93383
C     4.71552  -6.87024  -3.32564
Cl    3.79766  -8.17569  -4.27402
Cl    4.20815  -5.33661  -4.21096
C     6.22478  -7.17341  -3.42872
C     7.33608  -6.57062  -2.91910
C     8.58944  -7.42332  -3.24107
C     8.94936  -8.30820  -1.99918
C    10.29150  -8.99331  -1.94394
O     8.09213  -8.58795  -1.17978
C     9.74290  -6.62852  -3.88059
C    10.90330  -6.22702  -3.20413
C    11.88541  -5.47241  -3.85220
C    11.72928  -5.10520  -5.18973
C    10.58537  -5.51530  -5.88079
C     9.61058  -6.27333  -5.23305
N     8.07070  -8.38417  -4.20836
C     8.87140  -9.43395  -4.79715
C     6.62772  -8.36402  -4.31512
C     6.11902  -9.78060  -3.88605
C     5.87117 -10.07656  -2.42995
O     6.08039 -10.68569  -4.69726
C     6.31828  -8.04004  -5.80675
O     6.23434  -8.83375  -6.71672
O     6.28618  -6.71908  -5.99479
C     6.07712  -6.24396  -7.33092
H     6.92481  -2.80025  -6.02786
H     8.57779  -2.67551  -5.35703
H     8.16518  -4.00911  -6.47060
H     6.68088  -4.87203  -4.66563
H     8.46669  -3.00071  -0.80455
H     7.91101  -4.01145   0.55465
H     9.65393  -3.89659   0.20972
H     5.55731  -4.40787  -2.54723
H     6.49991  -3.52855  -1.39927
H     5.55386  -4.71434   0.32404
H     6.18271  -6.22841  -0.32188
H     3.63104  -6.07850  -0.05239
H     3.62472  -4.88377  -1.34838
H     2.98233  -7.07882  -2.11845
H     4.43189  -7.83588  -1.45969
H    10.12404 -10.05325  -1.70204
H    10.88351  -8.90263  -2.86005
H    10.86379  -8.55084  -1.11307
H    11.04966  -6.47736  -2.15808
H    12.77762  -5.16851  -3.29969
H    12.49560  -4.51075  -5.69284
H    10.44925  -5.24447  -6.93021
H     8.72161  -6.58279  -5.77953
H     8.92459 -10.35470  -4.18630
H     9.89401  -9.06484  -4.95574
H     8.46300  -9.70451  -5.78091
H     6.69084 -10.72395  -2.07980
H     5.83951  -9.19863  -1.78347
H     4.93703 -10.65158  -2.35332
H     5.14921  -6.66582  -7.74179
H     6.92652  -6.52125  -7.97106
H     5.99719  -5.15440  -7.25304
