32
Generated by autodE on: 2022-06-15. E = -1592.240770 Ha
C     4.04330  -1.83917   0.29521
N     2.79736  -1.11954   0.10565
C     2.73060   0.21258   0.21653
O     3.70403   0.93028   0.45944
C     1.33804   0.86000   0.05587
C     1.54533   2.06701  -0.90774
C     1.75222   1.73523  -2.35548
O     1.53640   3.20084  -0.47985
C     0.29451  -0.02008  -0.44534
C    -0.78157  -0.56742  -0.55689
C    -2.13519  -0.87131  -0.15551
Cl   -2.13393  -2.44970   0.77533
Cl   -3.24182  -1.07373  -1.58675
C    -2.65051   0.26671   0.74342
C    -1.69859   0.69868   1.87702
C    -0.61931   1.77420   1.56437
C     0.85366   1.32707   1.46463
H     4.82936  -1.43224  -0.35829
H     4.39421  -1.76814   1.33727
H     3.88424  -2.89506   0.04593
H     1.94340  -1.64122  -0.06779
H     0.78435   1.42733  -2.78546
H     2.12400   2.61489  -2.89622
H     2.44118   0.88510  -2.47393
H    -2.85170   1.12186   0.07935
H    -3.61608  -0.06239   1.15502
H    -2.35145   1.11022   2.66119
H    -1.23122  -0.19354   2.32501
H    -0.90065   2.34091   0.66201
H    -0.65016   2.50447   2.38723
H     1.51584   2.15401   1.75413
H     1.03533   0.50047   2.16889
