37
Generated by autodE on: 2022-06-15. E = -937.905812 Ha
C     5.05435   0.83576   0.20052
O     3.77541   0.55760   0.77280
C     2.78015   0.25116  -0.09052
O     2.98928   0.19364  -1.30314
C     1.49592   0.04299   0.53197
C     1.11212   0.28225   1.89008
C     2.14152   0.47026   2.98118
O    -0.09863   0.33218   2.21693
N     0.45100  -0.43196  -0.31625
C     0.71211  -1.69985  -1.02614
C    -0.75095   0.08570  -0.26476
C    -0.94363   1.51114   0.24229
C    -2.21395   1.82099   0.98024
O    -0.13805   2.36678  -0.07535
C    -1.94158  -0.60981  -0.78136
C    -2.77237   0.03902  -1.71249
C    -3.92147  -0.59573  -2.18375
C    -4.26535  -1.86605  -1.71020
C    -3.45431  -2.50494  -0.76597
C    -2.29339  -1.88552  -0.30489
H     5.00190   1.69396  -0.48604
H     5.71623   1.07171   1.04280
H     5.44086  -0.03739  -0.34608
H     2.61088   1.46128   2.88211
H     2.94379  -0.27648   2.93735
H     1.62182   0.41920   3.94722
H     1.73237  -1.66111  -1.41587
H     0.00677  -1.81877  -1.85454
H     0.61763  -2.53805  -0.32357
H    -2.01034   2.61240   1.71440
H    -2.63812   0.93827   1.47260
H    -2.95283   2.20796   0.25893
H    -2.50639   1.03312  -2.07811
H    -4.55332  -0.09428  -2.91981
H    -5.17103  -2.35713  -2.07313
H    -3.72848  -3.49088  -0.38467
H    -1.66800  -2.37672   0.44202
