69
Generated by autodE on: 2022-06-15. E = -2530.107294 Ha. Imaginary frequency = -187.3 cm-1
C     6.91898  -3.54337  -6.14367
N     7.14779  -4.30096  -4.92973
C     7.06634  -3.73148  -3.71517
O     6.94020  -2.51470  -3.55617
C     7.14747  -4.67124  -2.48178
C     8.47420  -4.50043  -1.70379
C     9.30617  -3.26860  -1.91178
O     8.75778  -5.32876  -0.86084
C     6.05840  -4.17965  -1.44389
C     5.53069  -5.25072  -0.47300
C     4.13822  -5.81530  -0.80636
C     3.96722  -6.97330  -1.79861
C     4.46518  -6.79974  -3.24071
Cl    3.59312  -8.03476  -4.26133
Cl    3.88493  -5.17757  -3.94020
C     5.94049  -6.81736  -3.29501
C     6.84534  -6.06436  -2.87785
C     8.83463  -7.84440  -3.26088
C     8.40554  -8.35652  -1.93829
C     9.30373  -8.14146  -0.74546
O     7.37799  -9.02032  -1.77337
C    10.21403  -7.29012  -3.37383
C    11.31949  -8.11242  -3.09790
C    12.61756  -7.60645  -3.18847
C    12.82733  -6.27164  -3.54972
C    11.73292  -5.45015  -3.83689
C    10.43677  -5.96020  -3.75780
N     8.15722  -8.10864  -4.41354
C     8.77396  -7.66219  -5.68452
C     6.88000  -8.60454  -4.43722
C     6.59486  -9.94390  -3.76039
C     7.72636 -10.94532  -3.80398
O     5.47248 -10.28879  -3.44557
C     6.13965  -8.44958  -5.73293
O     5.67780  -9.37379  -6.37371
O     6.03317  -7.16914  -6.09886
C     5.29349  -6.88093  -7.29007
H     5.84875  -3.30867  -6.27575
H     7.47797  -2.59803  -6.11399
H     7.26173  -4.13363  -7.00303
H     7.06057  -5.31216  -4.98651
H     9.61520  -3.17592  -2.96318
H     8.70794  -2.37486  -1.68094
H    10.18790  -3.31477  -1.26063
H     5.22632  -3.75633  -2.01858
H     6.49477  -3.34145  -0.88200
H     5.44168  -4.77329   0.51486
H     6.26283  -6.06278  -0.34495
H     3.70026  -6.19421   0.13135
H     3.48757  -4.98398  -1.12307
H     2.89365  -7.20490  -1.85043
H     4.47654  -7.87880  -1.42937
H     8.67234  -8.06546   0.15002
H     9.91991  -9.05132  -0.64309
H     9.96670  -7.27830  -0.81579
H    11.15822  -9.15412  -2.81321
H    13.46821  -8.25704  -2.97332
H    13.84293  -5.87399  -3.61170
H    11.88638  -4.40794  -4.12541
H     9.58744  -5.32857  -4.00938
H     8.33209  -8.21951  -6.51507
H     9.84208  -7.89683  -5.65071
H     8.64458  -6.58579  -5.84149
H     8.72419 -10.50754  -3.68566
H     7.55574 -11.71814  -3.04246
H     7.68407 -11.41585  -4.80201
H     4.25941  -7.23796  -7.18438
H     5.76376  -7.35709  -8.16255
H     5.30839  -5.79058  -7.39511
