30
Generated by autodE on: 2022-10-06. E = -1007.928320 Ha
C     3.44391   0.22329  -0.83679
C     2.56361   0.12890   0.37230
O     2.96156   0.32034   1.50457
C     1.10008  -0.21219   0.11995
O     0.37640  -0.14195   1.41104
C    -0.74023  -0.88377   1.22650
O    -1.56221  -1.05359   2.09411
C    -0.66228  -1.42102  -0.21104
C    -1.48371  -2.65642  -0.47506
C    -0.90901  -0.20370  -1.15050
C    -2.29551   0.46708  -1.14976
O    -3.15726   0.07875  -0.31841
O    -2.46872   1.32965  -2.04947
C     0.31924   0.70574  -0.84937
C     0.14466   2.08438  -0.17053
O     1.17391   2.81352  -0.20804
O    -0.93287   2.35232   0.40931
N     0.81912  -1.54512  -0.36784
C     1.45604  -2.62985   0.37820
H     4.49638   0.13046  -0.53920
H     3.18053  -0.52684  -1.59501
H     3.28241   1.21935  -1.28149
H    -1.24899  -3.46333   0.23408
H    -2.54569  -2.39990  -0.36930
H    -1.30965  -3.01853  -1.49916
H    -0.77744  -0.59709  -2.16885
H     0.92271   0.85157  -1.75221
H     1.12170  -3.59308  -0.02867
H     1.24458  -2.61821   1.46371
H     2.54554  -2.57409   0.24048
