20
Generated by autodE on: 2022-10-06. E = -552.846214 Ha
C     3.07437   0.36023   0.15978
C     1.76652   1.09925   0.03600
O     1.71287   2.33065  -0.04206
C     0.57934   0.26798   0.01688
O     0.67186  -1.07624   0.10225
C    -0.61840  -1.64103   0.06191
O    -0.78109  -2.85226   0.12667
C    -1.49553  -0.52731  -0.05505
C    -2.97430  -0.53759  -0.14026
N    -0.72237   0.59241  -0.07757
C    -1.27704   1.94144  -0.19036
H     3.19738  -0.35315  -0.67048
H     3.10137  -0.22182   1.09483
H     3.89604   1.08739   0.15114
H    -3.32404  -1.57750  -0.08928
H    -3.43696   0.02615   0.68712
H    -3.33409  -0.09542  -1.08454
H    -1.85601   2.00832  -1.12083
H    -0.45584   2.66024  -0.19574
H    -1.94377   2.12184   0.66318
