30
Generated by autodE on: 2022-10-06. E = -1007.877939 Ha. Imaginary frequency = -416.3 cm-1
C     2.69460   0.80131   2.07551
C     2.40123   0.09645   0.78240
O     3.27153  -0.18056  -0.03411
C     1.00457  -0.36860   0.54598
O     0.04574   0.07525   1.42706
C    -1.05772  -0.75604   1.31755
O    -2.10320  -0.52718   1.90701
C    -0.64041  -1.83211   0.46321
C    -1.47112  -3.00648   0.11032
C    -0.92509  -0.09214  -1.35140
C    -2.22429   0.54849  -0.97081
O    -3.27893  -0.08276  -1.28704
O    -2.19761   1.64857  -0.34820
C     0.34286   0.48036  -1.21190
C     0.60169   1.98580  -1.04064
O     0.25304   2.69958  -2.01555
O     1.22456   2.38929  -0.02285
N     0.70038  -1.69321   0.27463
C     1.46943  -2.53731  -0.62265
H     2.78019   0.03256   2.86425
H     3.65171   1.33324   1.99363
H     1.89112   1.48909   2.35995
H    -1.47194  -3.76617   0.91106
H    -1.13238  -3.48280  -0.81975
H    -2.50478  -2.65914  -0.03321
H    -1.02424  -1.00626  -1.94261
H     1.13161   0.02535  -1.82663
H     1.21880  -3.58682  -0.42877
H     1.22974  -2.29446  -1.67097
H     2.53805  -2.37722  -0.45443
