21
Generated by autodE on: 2022-05-29. E = -549.929878 Ha
C    -3.25879  -0.28162  -0.42513
C    -1.75241  -0.33629  -0.42519
O    -1.15826  -1.17366  -1.09986
C    -1.04014   0.72918   0.32914
C    -1.82778   1.81162   0.99816
N     0.28915   0.84490   0.24801
C     0.90640   2.16696   0.48368
C     1.16031  -0.21089   0.02972
C     2.45257   0.00943  -0.49171
N     3.53078   0.13710  -0.92522
C     0.85225  -1.51931   0.45231
N     0.65039  -2.60296   0.83815
H    -3.63025   0.70120  -0.75360
H    -3.63561  -1.06227  -1.09753
H    -3.64749  -0.45529   0.59141
H    -1.25514   2.29893   1.79680
H    -2.73565   1.38990   1.44693
H    -2.14840   2.58874   0.28195
H     1.02574   2.32558   1.56439
H     0.27941   2.95187   0.05017
H     1.89246   2.18649   0.00938
