21
Generated by autodE on: 2022-07-26. E = -549.929927 Ha
C    -0.90394  -3.16677   0.21672
C    -0.56209  -1.70789   0.37738
O    -0.56628  -1.18434   1.48878
C    -0.33533  -0.92772  -0.86808
C    -0.51847  -1.59362  -2.19573
N    -0.16671   0.39722  -0.82006
C    -0.50700   1.20322  -2.01144
C     0.38437   1.08659   0.24903
C     1.33039   0.48980   1.10548
N     2.15776   0.04579   1.79997
C     0.13377   2.46265   0.43344
N    -0.04388   3.60026   0.63628
H    -1.13699  -3.58083   1.20556
H    -0.05147  -3.71366  -0.21769
H    -1.76249  -3.31128  -0.45681
H    -1.58502  -1.66860  -2.47246
H    -0.12068  -2.61535  -2.15868
H     0.00554  -1.05946  -2.99752
H    -1.40158   0.79733  -2.49249
H     0.34094   1.19496  -2.71019
H    -0.70073   2.23373  -1.69821
