18
Generated by autodE on: 2022-05-29. E = -464.427417 Ha
N     2.80055  -0.64754   1.53943
C     1.86916  -0.40170   0.88155
C     0.75196  -0.12368   0.06686
C    -0.05476   0.96011   0.12023
F     0.06870   1.99738   0.93320
C    -1.24656   0.75160  -0.76733
C    -2.10271  -0.35168  -0.05164
C    -1.20694  -1.61991  -0.15631
C     0.05701  -1.09209  -0.90101
C    -0.58033  -0.08457  -1.88258
H    -1.79012   1.66270  -1.04241
H    -3.04982  -0.47818  -0.59506
H    -2.33971  -0.07138   0.98403
H    -1.69364  -2.40502  -0.75308
H    -0.95071  -2.04698   0.82310
H     0.71008  -1.86542  -1.32109
H     0.16156   0.48258  -2.46237
H    -1.31300  -0.54948  -2.55817
