42
Generated by autodE on: 2022-06-18. E = -862.498778 Ha
C     4.00990  -0.60840   1.17711
C     2.61891  -0.18103   1.55980
O     2.18913  -0.36477   2.68800
C     1.76771   0.55132   0.49899
C     2.20891   2.01750   0.58467
N     2.01323  -0.00022  -0.84291
C     1.03601  -1.09653  -1.10680
C     0.28961  -0.82389  -2.41381
C     1.76222  -2.44202  -1.20171
C     0.08607  -1.07717   0.15148
C     0.26183   0.32209   0.75909
C    -0.63761   1.38182   0.10599
C    -2.03156   0.85726  -0.12680
C    -3.18300   1.74038  -0.32516
N    -2.93507   3.07799  -0.31269
O    -4.35003   1.32602  -0.50101
C    -2.24602  -0.49099  -0.21950
N    -1.30045  -1.44436  -0.07397
C    -1.61700  -2.84802  -0.26294
H     4.60375  -0.78282   2.08446
H     3.94691  -1.54776   0.60626
H     4.50061   0.12589   0.52434
H     1.70961   2.61237  -0.19356
H     3.29441   2.11416   0.43676
H     1.95246   2.43828   1.56745
H     1.85053   0.74667  -1.51598
H    -0.39750  -1.64596  -2.65914
H    -0.29324   0.10671  -2.37005
H     1.01309  -0.73608  -3.24027
H     2.48384  -2.43338  -2.03353
H     2.31008  -2.65962  -0.27282
H     1.04990  -3.26368  -1.37217
H     0.48670  -1.80743   0.87158
H     0.05248   0.29056   1.83589
H    -0.19433   1.72608  -0.84609
H    -0.65836   2.26514   0.76312
H    -3.70661   3.71265  -0.48403
H    -2.00077   3.45876  -0.23818
H    -3.25714  -0.85805  -0.40823
H    -1.10267  -3.45594   0.49789
H    -2.69979  -3.00064  -0.15891
H    -1.31019  -3.21679  -1.25681
