20
Generated by autodE on: 2022-06-18. E = -457.715311 Ha
C    -3.06000  -0.69849   0.50767
N    -1.82622  -0.03994   0.11121
C    -1.88448   1.18725  -0.56121
C    -0.78613   1.84516  -0.96475
C     0.61388   1.33169  -0.73457
C     0.57676  -0.00790  -0.01705
C     1.81396  -0.73280   0.31248
N     2.97313  -0.12890  -0.05222
O     1.83134  -1.83942   0.88952
C    -0.60183  -0.58768   0.34769
H    -2.82015  -1.62580   1.04263
H    -3.65395  -0.05279   1.17442
H    -3.67742  -0.94896  -0.37064
H    -2.89240   1.56952  -0.73268
H    -0.91270   2.79799  -1.48385
H     1.15161   1.24785  -1.70120
H     1.20148   2.07484  -0.15684
H     3.84957  -0.59270   0.15978
H     3.00051   0.77331  -0.50975
H    -0.59907  -1.54977   0.86244
