19
Generated by autodE on: 2022-07-27. E = -419.542921 Ha
C    -1.82094   2.77621   0.95075
C    -1.84437   1.38957   0.42153
N    -1.07542   0.46716   0.59280
C    -0.30907  -0.57233   0.67235
C    -0.51168  -1.61387   1.73543
C     0.77369  -0.76797  -0.31591
O     1.53122  -1.75114  -0.23049
N     0.90414   0.15055  -1.30130
C     1.90885   0.01311  -2.33450
H    -1.82935   3.48090   0.10414
H    -0.95078   2.98252   1.59741
H    -2.75142   2.96003   1.51113
H     0.38861  -1.71858   2.36291
H    -0.70890  -2.60140   1.28575
H    -1.35839  -1.34635   2.38190
H     0.24086   0.91418  -1.36315
H     1.73250  -0.87508  -2.96478
H     1.88644   0.90448  -2.97364
H     2.91576  -0.08201  -1.89859
