18
Generated by autodE on: 2022-06-17. E = -235.968070 Ha
C     1.69572   0.99032   0.17152
C     0.66088  -0.06646  -0.13167
C     1.27995  -1.28940  -0.76488
C    -0.66085   0.06638   0.13184
C    -1.27997   1.28949   0.76466
C    -1.69572  -0.99038  -0.17140
H     2.22178   1.28888  -0.75310
H     2.47287   0.58429   0.84377
H     1.29279   1.89831   0.63572
H     0.56588  -2.08704  -1.00201
H     1.80196  -1.01508  -1.69926
H     2.05320  -1.71550  -0.10060
H    -2.05162   1.71665   0.09918
H    -1.80394   1.01517   1.69792
H    -0.56562   2.08640   1.00345
H    -1.29275  -1.89846  -0.63539
H    -2.47275  -0.58441  -0.84382
H    -2.22192  -1.28874   0.75321
