77
Generated by autodE on: 2022-10-25. E = -4340.170966 Ha
C   -16.38505  -6.25085  20.18103
O   -15.55367  -5.21843  19.62825
C   -15.18843  -5.35790  18.35660
O   -15.56494  -6.27892  17.66251
C   -14.09504  -4.33289  17.95499
C   -14.35539  -2.88363  18.38481
C   -13.28785  -1.98434  18.23943
C   -13.43283  -0.64148  18.58764
C   -14.64665  -0.18138  19.11066
C   -15.70454  -1.07661  19.28132
C   -15.56171  -2.41854  18.91822
C   -13.75791  -4.50540  16.45321
C   -12.62336  -5.24332  16.32735
C   -11.84191  -5.75994  15.14341
Br  -12.46194  -7.86645  15.00063
O   -10.53682  -5.78902  15.51092
C    -9.52669  -6.26993  14.62923
C   -12.09057  -5.26731  13.73221
C   -11.71298  -3.79532  13.50871
C   -12.09035  -2.82030  14.62055
C   -13.57101  -2.57438  14.90814
C   -14.52761  -3.73401  15.35714
C   -15.86821  -3.09502  15.84811
C   -16.93695  -3.91938  16.24191
C   -18.16172  -3.38786  16.64583
C   -18.36924  -2.00563  16.63395
C   -17.33483  -1.17505  16.20292
C   -16.10351  -1.71173  15.81498
C   -15.01234  -4.62578  14.19356
C   -15.31096  -5.97975  14.40033
C   -15.81919  -6.76910  13.36602
C   -16.05067  -6.21748  12.10418
C   -15.78079  -4.86107  11.89404
C   -15.27552  -4.07298  12.93015
C   -12.00747  -5.52188  17.72097
C   -10.66271  -4.89683  17.86257
N    -9.67506  -4.34148  18.11619
C   -11.94871  -7.05724  18.10045
C   -10.63751  -7.77664  18.03506
O   -12.96037  -7.55597  18.54264
N   -12.87758  -4.80350  18.60350
C   -12.71496  -4.87442  20.03541
H   -15.87706  -7.22274  20.10768
H   -17.34485  -6.29420  19.64732
H   -16.54381  -5.97894  21.23055
H   -12.33501  -2.34568  17.84825
H   -12.59498   0.04700  18.45495
H   -14.76332   0.86899  19.38788
H   -16.65741  -0.73000  19.68745
H   -16.40917  -3.08992  19.03344
H    -9.37927  -5.59713  13.77305
H    -8.60735  -6.30540  15.22664
H    -9.78169  -7.28156  14.27836
H   -11.50479  -5.89838  13.05183
H   -13.13195  -5.44916  13.47819
H   -12.17958  -3.48133  12.56037
H   -10.62401  -3.72411  13.35819
H   -11.56632  -3.09843  15.54811
H   -11.67722  -1.83488  14.34923
H   -13.58897  -1.83418  15.71514
H   -14.02487  -2.07997  14.03955
H   -16.81835  -4.99860  16.23156
H   -18.96092  -4.06280  16.96187
H   -19.32795  -1.58427  16.94516
H   -17.47550  -0.09186  16.17535
H   -15.32717  -1.01661  15.50703
H   -15.12676  -6.42613  15.37500
H   -16.02280  -7.82657  13.55015
H   -16.44187  -6.83516  11.29228
H   -15.96552  -4.40963  10.91615
H   -15.08613  -3.01680  12.74020
H   -10.08270  -7.53877  17.12042
H   -10.80250  -8.85736  18.12543
H   -10.02772  -7.43250  18.88905
H   -11.64257  -4.81411  20.28101
H   -13.20957  -4.01321  20.50475
H   -13.12092  -5.79715  20.48641
