33
Generated by autodE on: 2022-10-25. E = -877.471452 Ha
C     0.02310   3.19717   1.76907
O    -0.40626   1.93410   1.23871
C     0.32844   1.42495   0.25705
O     1.27413   1.98729  -0.25443
C    -0.24431   0.12674  -0.24565
C    -1.70598  -0.02503  -0.26186
C    -2.30989  -1.21818   0.17947
C    -3.69856  -1.34050   0.18731
C    -4.50063  -0.28166  -0.25051
C    -3.90840   0.90918  -0.68577
C    -2.52149   1.04398  -0.68247
N     0.56830  -0.78696  -0.74866
C     0.06585  -1.83303  -1.66278
C     1.92028  -0.88467  -0.38203
C     2.81678  -1.48752  -1.28582
N     3.59593  -1.97245  -2.01144
C     2.33637  -0.59155   0.96534
C     3.75136  -0.96007   1.34787
O     1.57171  -0.07389   1.79766
H     0.00623   3.96808   0.98560
H     1.03981   3.10639   2.17725
H    -0.68765   3.44597   2.56486
H    -1.69038  -2.04123   0.53862
H    -4.15671  -2.26607   0.54242
H    -5.58833  -0.38178  -0.24654
H    -4.53114   1.73857  -1.02772
H    -2.06544   1.97535  -1.02357
H    -0.90672  -1.54214  -2.06603
H    -0.00320  -2.79201  -1.13398
H     0.78279  -1.92844  -2.48751
H     3.96874  -2.01890   1.14223
H     3.89851  -0.75220   2.41531
H     4.46475  -0.35782   0.76180
