24
Generated by autodE on: 2022-06-03. E = -3054.571134 Ha
C     3.79838   0.50388   1.73743
N     2.39648   0.79619   1.52490
C     1.74922   0.37664   0.41068
O     2.33484  -0.25084  -0.48116
C     0.31252   0.72817   0.34504
C    -0.66350   0.13588  -0.37919
Br   -0.55842  -1.34402  -1.53906
C    -2.00537   0.70208   0.03808
C    -2.26331   0.14870   1.47824
C    -1.16936   0.85900   2.32513
C    -0.41492   1.71830   1.26138
C    -1.58351   2.15094   0.35411
H     4.41227   0.88493   0.90617
H     4.12619   0.98492   2.66718
H     3.98146  -0.58074   1.81719
H     1.87793   1.26684   2.25733
H    -2.82536   0.54335  -0.67166
H    -3.27484   0.43063   1.80521
H    -2.19208  -0.94775   1.50847
H    -1.61491   1.51198   3.09006
H    -0.49177   0.15752   2.83170
H     0.21199   2.51810   1.67535
H    -1.25589   2.70724  -0.53592
H    -2.36017   2.71849   0.88866
