21
Generated by autodE on: 2022-06-03. E = -628.104516 Ha
C     3.83915   0.15161  -0.54200
O     2.48044   0.45223  -0.19482
C     1.57540  -0.49801  -0.46498
O     1.84735  -1.57401  -0.97711
C     0.24425  -0.07164  -0.06847
O     0.02253   1.12778   0.49574
C    -1.35783   1.26455   0.77159
O    -1.79516   2.28438   1.28984
C    -1.93506   0.04811   0.32520
C    -3.36037  -0.35567   0.36634
N    -0.92294  -0.72135  -0.17285
C    -1.14121  -2.05779  -0.72654
H     4.42354   1.03361  -0.25611
H     3.93018  -0.03101  -1.62262
H     4.19144  -0.73292   0.00844
H    -3.76511  -0.54426  -0.64225
H    -3.94198   0.45558   0.82488
H    -3.51338  -1.27098   0.96226
H    -1.85380  -1.98260  -1.55816
H    -0.18877  -2.46210  -1.07409
H    -1.56674  -2.69858   0.05686
