45
Generated by autodE on: 2022-06-03. E = -3682.653485 Ha. Imaginary frequency = -370.8 cm-1
C    -4.30216  -1.37361   1.44724
N    -3.44649  -0.50596   0.66664
C    -2.10989  -0.43008   0.92057
O    -1.62228  -1.03702   1.88373
C    -1.32908   0.38961  -0.02817
C    -1.99926   1.47344  -0.87839
C    -2.14545   2.70522   0.06991
C    -0.67224   3.18509   0.22928
C     0.13388   2.15095  -0.61312
C    -0.85743   1.95766  -1.77790
C     0.02809   0.80356   0.11863
Br    0.92119   0.81682   1.86391
C     1.10845  -0.66253  -0.77717
C     2.55511  -0.34537  -0.62201
O     3.09678   0.55875  -1.22832
O     3.14819  -1.12049   0.27415
C     4.50197  -0.78345   0.61852
O     0.61975  -1.73578  -0.05838
C    -0.54913  -2.15383  -0.67309
O    -1.24764  -3.03891  -0.21636
C    -0.62967  -1.40058  -1.90644
C    -1.66609  -1.56821  -2.94639
N     0.54849  -0.75423  -2.04277
C     1.09677  -0.18317  -3.26905
H    -3.99435  -2.42959   1.36276
H    -5.33379  -1.27690   1.08590
H    -4.27785  -1.10427   2.51497
H    -3.82062  -0.08482  -0.17416
H    -2.92110   1.17870  -1.39585
H    -2.77148   3.47491  -0.40677
H    -2.61439   2.43391   1.02600
H    -0.33978   3.21666   1.27436
H    -0.52863   4.18687  -0.20084
H     1.15897   2.45373  -0.85546
H    -1.09196   2.91202  -2.27196
H    -0.56764   1.24497  -2.54613
H     5.15054  -0.84523  -0.26642
H     4.54161   0.23308   1.03596
H     4.81100  -1.51685   1.37131
H    -1.33321  -2.26299  -3.73621
H    -1.91618  -0.60728  -3.41966
H    -2.56771  -1.98617  -2.47904
H     1.96745  -0.77796  -3.58006
H     0.33226  -0.22870  -4.05132
H     1.41118   0.85236  -3.11414
