45
Generated by autodE on: 2022-06-24. E = -1255.305836 Ha
C    -2.49906   3.49312  -0.28184
O    -2.20236   2.09017  -0.20190
C    -0.96211   1.76518   0.12014
O    -0.11974   2.56872   0.46751
C    -0.69659   0.23537   0.17164
C    -1.96012  -0.59480   0.01905
C    -2.44615  -1.36287   1.08282
C    -3.59576  -2.14422   0.92310
C    -4.26651  -2.16848  -0.30088
C    -3.78280  -1.40188  -1.36698
C    -2.63946  -0.61822  -1.20937
O    -0.15506   0.01262   1.49215
C     1.25296   0.08206   1.50629
C     1.79269  -1.17757   2.06261
N     2.20594  -2.16637   2.50166
C     1.69901   1.19333   2.37204
N     2.06495   2.05521   3.05442
C     1.71881   0.31066  -0.00421
N     2.96031  -0.27749  -0.37942
C     4.17573   0.35242   0.11165
C     2.98319  -1.57666  -0.85542
C     1.87759  -2.28763  -1.15179
C     0.49902  -1.75343  -0.89068
C     0.46925  -0.20658  -0.77494
C     0.40136   0.48411  -2.14428
N     1.18945  -0.02407  -3.09795
O    -0.32640   1.46555  -2.33024
H    -1.87755   3.96163  -1.05853
H    -2.31299   3.98069   0.68528
H    -3.55969   3.56106  -0.54815
H    -1.92335  -1.35557   2.03818
H    -3.96298  -2.73857   1.76303
H    -5.16247  -2.78090  -0.42626
H    -4.29968  -1.41213  -2.32935
H    -2.27890  -0.01634  -2.04318
H     1.79163   1.39690  -0.12398
H     5.03502   0.00493  -0.47813
H     4.09601   1.44440   0.00299
H     4.36962   0.12414   1.17606
H     3.98453  -1.97841  -1.02458
H     1.98399  -3.29323  -1.56036
H     0.09073  -2.18936   0.03654
H    -0.19938  -2.06078  -1.68223
H     1.77254  -0.84095  -2.92691
H     1.18438   0.40596  -4.01852
