20
Generated by autodE on: 2022-06-24. E = -457.715315 Ha
C    -3.10562  -0.26276   0.63325
N    -1.82040   0.16064   0.10235
C    -1.76884   1.21660  -0.81611
C    -0.61875   1.65685  -1.35034
C     0.72624   1.05905  -1.01884
C     0.57206  -0.07199  -0.01490
C     1.73997  -0.81771   0.47986
N     2.94244  -0.44502  -0.02696
O     1.66524  -1.74088   1.31663
C    -0.65094  -0.43663   0.46440
H    -3.77260  -0.60911  -0.17306
H    -3.60571   0.56382   1.16367
H    -2.95282  -1.08858   1.33895
H    -2.73633   1.65709  -1.06386
H    -0.65928   2.48725  -2.05899
H     1.22276   0.70274  -1.94490
H     1.40493   1.84474  -0.62807
H     3.77327  -0.93648   0.28363
H     3.04304   0.29246  -0.71242
H    -0.73272  -1.25264   1.18420
