25
Generated by autodE on: 2022-07-27. E = -797.524760 Ha
C    -0.81501   2.94727  -2.02559
O    -0.47562   1.60648  -1.60819
C    -0.47765   1.37105  -0.31276
O    -0.74953   2.15975   0.56410
C    -0.12077  -0.05785   0.02568
O     0.89482  -0.28791   0.78165
C     1.90924   0.53127   1.20331
C     2.76035  -0.04575   2.15608
N     3.47540  -0.50800   2.95868
C     2.15484   1.77907   0.62016
N     2.36450   2.81324   0.11246
C    -0.95773  -1.17127  -0.33253
C    -0.60764  -2.48398   0.06848
C    -1.42614  -3.55321  -0.26818
C    -2.59939  -3.33884  -1.00650
C    -2.95270  -2.04600  -1.40886
C    -2.14230  -0.96448  -1.07943
H    -0.09222   3.65736  -1.60102
H    -0.75644   2.94029  -3.11883
H    -1.83129   3.19661  -1.69143
H     0.30802  -2.64723   0.63759
H    -1.15194  -4.56378   0.04081
H    -3.23784  -4.18475  -1.27036
H    -3.86583  -1.88062  -1.98362
H    -2.42648   0.03766  -1.40129
