45
Generated by autodE on: 2022-06-24. E = -1255.247040 Ha. Imaginary frequency = -235.7 cm-1
C    -2.15319   3.24600  -1.26300
O    -1.77879   1.89229  -0.95905
C    -1.21461   1.67051   0.21567
O    -1.08683   2.51043   1.08154
C    -0.76764   0.24058   0.42535
C    -1.72914  -0.86843   0.22125
C    -1.55174  -2.06234   0.95312
C    -2.41039  -3.14097   0.77281
C    -3.46161  -3.06273  -0.15018
C    -3.64527  -1.88967  -0.88326
C    -2.79087  -0.79909  -0.70252
O    -0.03886   0.05518   1.52353
C     1.12975   0.66628   1.91501
C     1.86727  -0.12019   2.81754
N     2.48501  -0.78819   3.55451
C     1.47589   2.01753   1.76425
N     1.90078   3.10587   1.67204
C     1.97905  -0.15975  -0.53524
N     2.46743  -1.35182  -0.19198
C     3.77071  -1.48069   0.45446
C     1.73729  -2.52915  -0.46809
C     0.69204  -2.51242  -1.30136
C     0.27453  -1.25188  -2.00188
C     0.76993  -0.01378  -1.26991
C     0.67630   1.30881  -1.96909
N     0.05845   1.31390  -3.16757
O     1.17493   2.33792  -1.49021
H    -1.26226   3.88835  -1.23215
H    -2.57143   3.21819  -2.27486
H    -2.90233   3.60671  -0.54500
H    -0.72825  -2.13963   1.66127
H    -2.25620  -4.05421   1.35179
H    -4.13206  -3.91309  -0.29338
H    -4.46048  -1.81506  -1.60617
H    -2.94822   0.10333  -1.28712
H     2.61137   0.70587  -0.34955
H     3.68893  -2.14279   1.32527
H     4.11450  -0.49348   0.78255
H     4.50110  -1.90535  -0.25215
H     2.10010  -3.42231   0.04088
H     0.14741  -3.43704  -1.49701
H    -0.81946  -1.22714  -2.12214
H     0.67887  -1.26360  -3.03468
H    -0.11218   2.21449  -3.60455
H    -0.47144   0.51934  -3.50408
