20
Generated by autodE on: 2022-06-18. E = -457.715346 Ha
C    -3.09790  -0.19798  -0.66774
N    -1.79555   0.27899  -0.23139
C    -1.60085   1.64807  -0.00832
C    -0.39863   2.17246   0.27758
C     0.85801   1.34424   0.38536
C     0.55734  -0.11621   0.09076
C     1.61967  -1.13489   0.10941
N     2.86905  -0.68735   0.39132
O     1.41627  -2.34553  -0.11542
C    -0.70631  -0.53936  -0.19401
H    -3.11641  -1.29451  -0.62722
H    -3.32285   0.11997  -1.70037
H    -3.88825   0.18894  -0.00696
H    -2.50331   2.25770  -0.07994
H    -0.32877   3.24924   0.44797
H     1.30551   1.46030   1.39406
H     1.63225   1.73654  -0.30523
H     3.07490   0.28757   0.56781
H     3.63197  -1.35519   0.40663
H    -0.89230  -1.59380  -0.40418
