17
Generated by autodE on: 2022-06-18. E = -509.629585 Ha
C     2.51221  -1.16960  -0.41083
N     2.79665   0.14211   0.14442
C     1.90250   1.07582   0.49591
O     2.15345   2.18683   0.95930
C     0.49796   0.69738   0.29433
N    -0.65314   0.55178   0.19878
N    -1.90466   0.39621   0.09510
C    -2.26502  -0.85308  -0.41710
C    -3.75137  -1.03437  -0.51646
O    -1.45214  -1.71408  -0.73977
H     2.93966  -1.95742   0.22672
H     1.42744  -1.32797  -0.47477
H     2.93636  -1.26331  -1.42173
H     3.77052   0.40903   0.28096
H    -3.98175  -1.97385  -1.03353
H    -4.20672  -0.18444  -1.04660
H    -4.18468  -1.05594   0.49677
