37
Generated by autodE on: 2022-06-18. E = -967.344335 Ha. Imaginary frequency = -242.0 cm-1
C     3.77578   0.38320  -2.41428
N     2.57256   0.66145  -1.65193
C     2.02528  -0.27349  -0.85354
O     2.48716  -1.41210  -0.73597
C     0.81737   0.20629  -0.14578
N     0.27689   1.24185   0.11419
N    -0.67874   1.92607   0.60860
C    -0.63944   3.29208   0.38850
C     0.54599   3.87272  -0.34837
O    -1.57455   3.98527   0.78424
C    -1.64984  -0.93149   0.86507
N    -2.51796  -0.59152  -0.10954
C    -3.53259   0.41790   0.16197
C    -2.17353  -0.88773  -1.44036
C    -1.18814  -1.75055  -1.73445
C    -0.45418  -2.50316  -0.65283
C    -0.52200  -1.69977   0.63582
C     0.29221  -2.03292   1.83509
N     1.43439  -2.73127   1.61020
O    -0.06358  -1.71854   2.98271
H     4.61514   0.12175  -1.75115
H     3.61654  -0.45426  -3.11108
H     4.03936   1.27970  -2.98750
H     2.15086   1.58422  -1.70226
H     1.48763   3.60340   0.15465
H     0.59055   3.46134  -1.37016
H     0.44800   4.96399  -0.39824
H    -1.85086  -0.52808   1.85761
H    -4.03259   0.19384   1.11336
H    -3.06239   1.41487   0.23718
H    -4.27935   0.41516  -0.64132
H    -2.75512  -0.35860  -2.19610
H    -0.94932  -1.94289  -2.78233
H     0.57958  -2.69007  -0.96455
H    -0.91013  -3.50442  -0.50210
H     2.04903  -2.83427   2.41303
H     1.88912  -2.60803   0.70429
