30
Generated by autodE on: 2022-10-21. E = -1169.221937 Ha
C     4.17272   0.21130   0.31008
O     2.95925   0.25696  -0.47028
C     1.88220  -0.27390   0.06514
O     1.80770  -0.82845   1.13531
C     0.62844  -0.11205  -0.84037
C     1.01491   0.05159  -2.25043
N     1.29987   0.15948  -3.36746
N    -0.32794  -1.19294  -0.69701
C     0.09726  -2.55717  -0.98452
C    -1.24764  -0.98210   0.40950
C    -2.63269  -1.29347  -0.01441
N    -3.70095  -1.55496  -0.37594
C    -0.95863  -1.81399   1.60680
N    -0.75793  -2.51888   2.50301
C    -1.10160   0.55464   0.75734
F    -2.29060   1.17171   0.79532
F    -0.51212   0.70759   1.95570
C    -0.17974   1.13495  -0.36357
F    -1.02406   1.51984  -1.37977
O     0.65534   2.12816   0.00166
C     0.06250   3.34620   0.49861
H     4.43820  -0.83256   0.52557
H     4.02970   0.76538   1.24792
H     4.94110   0.68729  -0.30791
H    -0.78911  -3.20418  -1.04080
H     0.78864  -2.95541  -0.22342
H     0.59179  -2.57508  -1.96512
H     0.87820   4.07671   0.54097
H    -0.71947   3.70029  -0.18679
H    -0.35006   3.19397   1.50588
