10
Generated by autodE on: 2022-10-21. E = -491.033038 Ha
C     2.48575   0.16030   0.05104
O     1.27345   0.51027  -0.65167
C     0.20965  -0.23057  -0.35106
F     0.23465  -1.50720  -0.77237
C    -0.86012   0.22354   0.30225
F    -0.95921   1.45481   0.76850
F    -1.95252  -0.48785   0.51645
H     3.25335   0.86827  -0.28375
H     2.33023   0.25496   1.13696
H     2.79286  -0.86657  -0.19702
