30
Generated by autodE on: 2022-10-21. E = -1169.137059 Ha. Imaginary frequency = -449.7 cm-1
C     3.92078   0.84008   0.28419
O     2.73152   0.54385  -0.46354
C     1.97384  -0.45858  -0.01978
O     2.24014  -1.14031   0.95066
C     0.78421  -0.65296  -0.87696
C     0.95017  -0.36808  -2.25504
N     1.07954  -0.08192  -3.37788
N    -0.21573  -1.53931  -0.51306
C    -0.95637  -2.21389  -1.59552
C    -0.86769  -1.33902   0.68286
C    -2.07784  -2.07351   0.92232
N    -3.09285  -2.58897   1.15649
C    -0.21992  -0.98301   1.91781
N     0.12863  -0.65577   2.97676
C    -1.60021   0.71558   0.32016
F    -2.58438   0.41978  -0.52768
F    -2.04685   0.99752   1.54142
C    -0.52326   1.46033  -0.19156
F    -0.56371   1.84083  -1.46089
O     0.28605   2.09068   0.62517
C     1.15793   3.12369   0.10719
H     4.61181  -0.01453   0.25658
H     3.66380   1.07409   1.32669
H     4.37161   1.71109  -0.20378
H    -1.62964  -1.50948  -2.10435
H    -1.53642  -3.04246  -1.17647
H    -0.23396  -2.62142  -2.31050
H     1.86955   3.32912   0.91320
H     1.68398   2.77202  -0.78654
H     0.56141   4.01949  -0.11674
