12
Generated by autodE on: 2022-06-17. E = -157.299003 Ha
C     1.56776  -0.49449  -0.34832
C     0.64735   0.65552  -0.06731
C    -0.67052   0.60814   0.18444
C    -1.54759  -0.60658   0.24627
H     2.05491  -0.37499  -1.33224
H     2.38447  -0.53324   0.39416
H     1.05609  -1.46753  -0.33982
H     1.12292   1.64460  -0.07130
H    -1.18159   1.56178   0.36845
H    -2.36582  -0.53712  -0.49228
H    -2.03404  -0.68896   1.23435
H    -1.00108  -1.54196   0.05911
