20
Generated by autodE on: 2022-06-17. E = -606.945406 Ha
C    -3.44996  -0.45868  -1.53601
N    -2.10618  -0.76348  -1.09693
C    -1.30673   0.12955  -0.48477
O    -1.63550   1.30415  -0.23386
C     0.03449  -0.36439  -0.10888
O     0.88529   0.44540   0.50172
C     0.83253   1.67657   0.89002
C     1.98942   2.17194   1.52727
N     2.92423   2.62318   2.06050
C     0.58419  -1.69722  -0.33059
C     1.99189  -1.96548   0.13628
O    -0.08538  -2.57859  -0.88486
H    -3.55850  -0.63831  -2.61729
H    -4.18987  -1.08283  -1.00934
H    -3.66904   0.59529  -1.32951
H    -1.70890  -1.69429  -1.23944
H    -0.06440   2.27226   0.72534
H     2.08164  -1.79713   1.22069
H     2.70133  -1.28340  -0.35776
H     2.25008  -3.00489  -0.10104
