20
Generated by autodE on: 2022-07-27. E = -606.928701 Ha
C     1.20831  -2.40290   2.81304
N     0.55841  -1.36892   2.03389
C     0.84854  -1.19956   0.72747
O     1.65087  -1.92359   0.12444
C     0.15255  -0.07783   0.04170
O    -0.59085   0.66106   0.83696
C    -1.50741   1.56939   0.63850
C    -2.07208   1.84094  -0.61580
N    -2.59815   2.04764  -1.63934
C     0.44370   0.27353  -1.36495
C     0.66960   1.73053  -1.69660
O     0.64389  -0.60153  -2.19856
H     2.30306  -2.27924   2.80743
H     0.85038  -2.34310   3.84774
H     0.98139  -3.40571   2.41661
H    -0.11642  -0.75916   2.48174
H    -1.90198   2.01756   1.55022
H    -0.04013   2.05942  -2.47125
H     1.68484   1.79694  -2.11862
H     0.59695   2.40671  -0.83348
