32
Generated by autodE on: 2022-06-17. E = -764.238195 Ha. Imaginary frequency = -223.6 cm-1
C     1.89734  -1.98118   2.74402
N     1.28258  -0.91441   1.98066
C     1.46249  -0.82470   0.64500
O     2.21289  -1.59247   0.02717
C     0.69766   0.24281  -0.04970
C     1.05006   0.62134  -1.43183
C     1.34493   2.07739  -1.72067
O     1.24094  -0.23402  -2.29127
O     0.05669   1.06038   0.78751
C    -1.01896   1.77900   0.56840
C    -1.42721   2.24484  -0.70119
N    -1.85268   2.61772  -1.72258
C    -2.39495  -0.32819   0.19419
C    -2.63375  -0.73659   1.61879
C    -1.56560  -0.99896  -0.66542
C    -0.96211  -2.34663  -0.40051
H     2.98731  -1.99281   2.59368
H     1.68872  -1.82092   3.80895
H     1.50499  -2.96948   2.45023
H     0.57299  -0.33788   2.41886
H     0.74259   2.42514  -2.57259
H     2.40559   2.12132  -2.01704
H     1.19231   2.74858  -0.86607
H    -1.43559   2.23866   1.46545
H    -3.06272   0.42563  -0.22740
H    -3.14995   0.05397   2.18162
H    -1.69070  -0.97010   2.13704
H    -3.26038  -1.64556   1.66879
H    -1.53134  -0.65349  -1.70340
H    -1.66425  -3.12838  -0.74531
H    -0.77355  -2.52697   0.66685
H    -0.02423  -2.48772  -0.95334
