43
Generated by autodE on: 2022-06-19. E = -958.552509 Ha
C    -0.28331   1.75101  -2.73637
C    -0.07473   2.01631  -1.44025
C    -0.22047   3.39066  -0.85388
C     0.29526   0.92419  -0.45282
C     1.52334   0.05099  -0.82718
C     2.77864   0.58841  -0.17042
O     3.41145   0.00638   0.68746
O     3.09799   1.79216  -0.64520
C     4.25126   2.43464  -0.07758
N     1.20897  -1.31005  -0.38666
C    -0.01008  -1.30561   0.40301
C     0.24868  -1.03792   1.83409
N     0.52510  -0.80902   2.93793
C    -0.86618  -2.58114   0.28658
C    -0.77890  -3.35719  -0.98951
O    -1.60780  -2.87866   1.20424
C    -0.82143  -0.11627  -0.22843
C    -1.97606   0.37164   0.58494
C    -3.27422   0.07038   0.39470
C    -4.33269   0.62278   1.30984
C    -3.79111  -0.83484  -0.68980
H    -0.17508   0.74093  -3.14404
H    -0.57007   2.54046  -3.43714
H     0.72973   3.71119  -0.39257
H    -0.97513   3.38828  -0.04816
H    -0.51512   4.13346  -1.60926
H     0.49512   1.39413   0.52265
H     1.69035   0.08139  -1.91489
H     4.10796   2.59355   1.00081
H     4.34510   3.39661  -0.59394
H     5.14990   1.82353  -0.24334
H     1.99066  -1.73098   0.11353
H    -0.76515  -2.69245  -1.86439
H    -1.61814  -4.06209  -1.04712
H     0.17071  -3.91685  -0.99934
H    -1.15250  -0.47823  -1.21001
H    -1.71217   1.01996   1.42791
H    -5.07920   1.20116   0.73790
H    -3.90862   1.27244   2.08934
H    -4.88617  -0.19706   1.80044
H    -4.58169  -0.32769  -1.26869
H    -3.01674  -1.17679  -1.38853
H    -4.25790  -1.72793  -0.24001
