23
Generated by autodE on: 2022-06-19. E = -351.521384 Ha
C     3.64364  -1.00828   0.05849
C     2.57799  -0.18943  -0.08173
C     2.74894   1.26501  -0.43872
C     1.22665  -0.71126   0.11254
C     0.07860   0.00269  -0.00160
C    -1.23801  -0.56625   0.20241
C    -2.42989   0.07477   0.10205
C    -2.58578   1.52679  -0.25072
C    -3.71944  -0.65676   0.34673
H     3.51577  -2.06394   0.31724
H     4.66558  -0.64490  -0.08114
H     2.31576   1.91826   0.33690
H     3.81062   1.52432  -0.55545
H     2.22773   1.50696  -1.37990
H     1.15690  -1.77454   0.37203
H     0.13959   1.06323  -0.26043
H    -1.25759  -1.63069   0.46588
H    -1.63407   2.04170  -0.43458
H    -3.21476   1.63487  -1.15202
H    -3.11588   2.06152   0.55724
H    -4.28989  -0.18126   1.16484
H    -3.55606  -1.71343   0.60478
H    -4.37066  -0.61156  -0.54476
