20
Generated by autodE on: 2022-07-27. E = -606.993272 Ha
C     3.67037   2.56056  -0.43787
O     2.61137   1.67742  -0.83833
C     1.75208   1.30447   0.10877
O     1.80566   1.65795   1.27662
C     0.72048   0.40771  -0.42364
N    -0.17397  -0.00938   0.43975
C    -1.25503  -0.83425   0.30570
C    -2.01712  -1.07462   1.47222
N    -2.65878  -1.28549   2.42466
C    -1.61336  -1.43679  -0.96881
C    -2.83360  -2.32233  -0.98954
O    -0.94584  -1.22757  -1.98736
H     3.25639   3.49973  -0.04327
H     4.29597   2.08374   0.33057
H     4.25882   2.75410  -1.34173
H     0.67650   0.09353  -1.46080
H    -0.01675   0.36324   1.38849
H    -2.71275  -3.16796  -0.29376
H    -3.72585  -1.76133  -0.66857
H    -2.98512  -2.70318  -2.00738
