43
Generated by autodE on: 2022-06-19. E = -958.503655 Ha. Imaginary frequency = -460.0 cm-1
C     0.38107   0.70215  -3.06819
C     0.53313   1.53629  -2.02665
C     1.10945   2.91949  -2.18021
C     0.14319   1.17704  -0.62641
C     1.53383  -0.17316  -0.06283
C     2.61857   0.66518   0.51070
O     2.73426   0.90408   1.69926
O     3.40868   1.16395  -0.43688
C     4.41608   2.09756  -0.01727
N     0.94170  -0.99659   0.84272
C    -0.21815  -1.68105   0.53114
C    -1.10585  -1.94933   1.59318
N    -1.88367  -2.10894   2.44954
C    -0.43136  -2.31287  -0.76058
C    -1.74238  -3.03440  -0.96847
O     0.42603  -2.28429  -1.65561
C    -1.13406   0.60627  -0.36672
C    -1.83157   0.89094   0.85059
C    -3.12668   0.58357   1.15108
C    -3.71213   0.96819   2.47634
C    -4.06175  -0.12204   0.21624
H     0.66134   1.01290  -4.07874
H    -0.01336  -0.30916  -2.94453
H     0.38257   3.68321  -1.85355
H     2.00063   3.04094  -1.54294
H     1.39219   3.12874  -3.22205
H     0.41714   1.94025   0.11062
H     1.68881  -0.57529  -1.05993
H     3.95117   2.96439   0.47370
H     4.93579   2.40979  -0.92986
H     5.11918   1.61464   0.67622
H     1.02922  -0.68735   1.81227
H    -1.73621  -3.98451  -0.40863
H    -2.59851  -2.44694  -0.61104
H    -1.86180  -3.25614  -2.03694
H    -1.67147   0.13941  -1.19389
H    -1.24790   1.41175   1.61812
H    -4.55875   1.66505   2.33943
H    -2.97137   1.44205   3.13618
H    -4.12365   0.08141   2.98810
H    -3.62724  -0.32700  -0.76986
H    -4.97946   0.47531   0.07580
H    -4.38297  -1.07994   0.65942
