32
Generated by autodE on: 2022-06-17. E = -819.217399 Ha
C    -0.88292  -2.53519  -0.66746
C    -0.80982  -1.02096  -0.58062
C    -2.10732  -0.32998  -0.14931
C    -3.23149  -0.32925  -1.17018
C    -1.56357   1.07946   0.24535
C    -1.51820   2.00608  -0.91143
N    -1.44897   2.71392  -1.82586
C    -2.36919   1.69465   1.31735
N    -3.00507   2.15506   2.16914
O    -0.23368   0.88536   0.71372
C     0.21392  -0.46221   0.44474
C     0.12964  -1.19513   1.72918
N     0.03654  -1.75148   2.74190
C     1.63894  -0.43770  -0.08408
C     2.53689  -1.47018   0.21181
C     3.81772  -1.46701  -0.34850
C     4.20889  -0.43077  -1.19973
C     3.31225   0.60236  -1.49342
C     2.03015   0.60018  -0.94118
H    -1.24028  -2.97584   0.27568
H    -1.57396  -2.83226  -1.46907
H     0.10650  -2.95782  -0.89865
H    -0.50132  -0.60913  -1.55494
H    -2.45808  -0.78807   0.78920
H    -3.59120  -1.35680  -1.32183
H    -4.07955   0.27814  -0.81893
H    -2.89356   0.06470  -2.14042
H     2.24200  -2.28082   0.88105
H     4.51135  -2.27691  -0.11219
H     5.21186  -0.42575  -1.63252
H     3.61245   1.41690  -2.15641
H     1.33315   1.40592  -1.17534
