20
Generated by autodE on: 2022-07-27. E = -661.819439 Ha
N    -1.04142  -1.80227   2.20677
C    -0.62301  -1.12652   1.35766
C    -0.04355  -0.34334   0.31385
O    -0.62900   0.72568  -0.12019
C    -1.77402   1.36605   0.17545
C    -1.99621   2.53782  -0.57066
N    -2.20013   3.51476  -1.17805
C    -2.69349   0.92307   1.14002
N    -3.49411   0.60001   1.92801
C     1.21499  -0.71807  -0.28914
C     1.88709  -1.88461   0.14037
C     3.09728  -2.24317  -0.44471
C     3.65095  -1.45082  -1.45664
C     2.98869  -0.29162  -1.88668
C     1.77933   0.07832  -1.31284
H     1.45852  -2.50596   0.92856
H     3.61215  -3.14582  -0.11045
H     4.60121  -1.73556  -1.91345
H     3.42314   0.32471  -2.67621
H     1.26223   0.97862  -1.64612
