20
Generated by autodE on: 2022-06-17. E = -661.819434 Ha
N     0.46897  -2.46398   1.70188
C     0.26510  -1.52306   1.04932
C    -0.06442  -0.38244   0.25656
O     0.85880   0.40317  -0.19593
C     2.20121   0.43014  -0.11615
C     2.80405   1.51584  -0.77746
N     3.32587   2.41000  -1.31887
C     2.96453  -0.52938   0.56860
N     3.65054  -1.29851   1.12006
C    -1.43790  -0.06924  -0.06445
C    -1.74688   1.08503  -0.82107
C    -3.07028   1.37557  -1.12613
C    -4.09967   0.52897  -0.68922
C    -3.80008  -0.61500   0.05907
C    -2.47934  -0.91784   0.37433
H    -0.94489   1.74183  -1.15932
H    -3.30721   2.26819  -1.70845
H    -5.13787   0.76367  -0.93365
H    -4.60101  -1.27453   0.39835
H    -2.25076  -1.81177   0.95720
