32
Generated by autodE on: 2022-06-17. E = -819.126405 Ha. Imaginary frequency = -286.7 cm-1
C    -1.35999  -2.68165   0.38765
C    -1.10775  -1.54658  -0.55776
C    -2.07681  -0.61606  -0.88328
C    -1.98940   0.21145  -2.12561
C    -1.51434   1.19048   0.70463
C    -2.12490   2.35895   0.19246
N    -2.65829   3.29152  -0.26221
C    -2.09667   0.56381   1.83449
N    -2.64080   0.04078   2.72400
O    -0.21013   1.06155   0.37364
C     0.50980  -0.04850   0.49629
C     0.47162  -0.77207   1.72758
N     0.50217  -1.37295   2.72364
C     1.70274  -0.12942  -0.34335
C     2.68284  -1.11190  -0.10071
C     3.79205  -1.21293  -0.93809
C     3.94235  -0.33582  -2.01758
C     2.97213   0.64467  -2.26037
C     1.85512   0.74856  -1.43591
H    -2.02830  -2.38956   1.21119
H    -1.84504  -3.50890  -0.16095
H    -0.42946  -3.08524   0.81101
H    -0.27991  -1.66630  -1.26186
H    -3.04880  -0.68218  -0.38467
H    -2.39281  -0.37263  -2.97316
H    -2.58068   1.13560  -2.06602
H    -0.94589   0.46042  -2.37115
H     2.57326  -1.79805   0.74097
H     4.54559  -1.97910  -0.74450
H     4.81423  -0.41585  -2.67045
H     3.08625   1.33097  -3.10216
H     1.09635   1.50688  -1.62937
