36
Generated by autodE on: 2022-06-18. E = -950.130058 Ha
C     4.47493  -0.44766  -1.64430
O     3.07595  -0.69014  -1.41228
C     2.53015  -0.07381  -0.37235
O     3.11791   0.68160   0.37439
C     1.08346  -0.41519  -0.18697
N     0.62588  -1.58238  -0.42888
C    -0.81163  -1.59872  -0.01768
C    -1.63345  -2.54495  -0.89222
C    -0.79280  -2.13630   1.36198
N    -0.67483  -2.61780   2.41114
C    -1.23466  -0.08987  -0.04072
C    -2.42998   0.20082   0.86474
N    -2.74268   1.49788   1.03372
O    -3.07265  -0.70846   1.39857
C    -1.54941   0.35486  -1.49592
C    -1.29562   1.81792  -1.70716
C    -0.43554   2.51174  -0.93417
N     0.29703   1.96594   0.10523
C     0.72785   2.83487   1.19109
C     0.10110   0.57296   0.42735
H     5.06697  -0.78680  -0.78243
H     4.73496  -1.02452  -2.53866
H     4.65154   0.62408  -1.81381
H    -1.54603  -2.26309  -1.94848
H    -1.26524  -3.57383  -0.77686
H    -2.68848  -2.50565  -0.59150
H    -3.58386   1.72522   1.55668
H    -2.31103   2.22086   0.46485
H    -0.92704  -0.23567  -2.18754
H    -2.59197   0.09674  -1.73576
H    -1.80584   2.32928  -2.52459
H    -0.26871   3.58073  -1.08962
H     0.99558   3.81990   0.78366
H     1.61734   2.41326   1.67778
H    -0.06173   2.97610   1.95260
H     0.18666   0.46015   1.52197
