20
Generated by autodE on: 2022-06-18. E = -457.715310 Ha
C    -3.07062   0.73301  -0.36942
N    -1.82595   0.02424  -0.12180
C    -1.86344  -1.30592   0.31448
C    -0.75476  -2.00420   0.60712
C     0.63560  -1.42816   0.49835
C     0.57645   0.01510   0.02499
C     1.80112   0.80805  -0.16768
N     2.96959   0.17562   0.10762
O     1.79936   1.99320  -0.55860
C    -0.61109   0.62873  -0.24152
H    -3.68719   0.19465  -1.10659
H    -2.84646   1.73142  -0.76520
H    -3.65869   0.84571   0.55663
H    -2.86411  -1.73413   0.39706
H    -0.86520  -3.03947   0.93782
H     1.24998  -2.04526  -0.18911
H     1.15624  -1.50441   1.47514
H     3.83837   0.68297  -0.01904
H     3.01160  -0.78801   0.41359
H    -0.62377   1.66709  -0.57639
