16
Generated by autodE on: 2022-06-18. E = -492.339053 Ha
C     3.75854  -0.73707  -0.02595
O     2.42042  -0.63028   0.49777
C     1.68103   0.37318   0.03351
O     2.03328   1.20696  -0.77566
C     0.38013   0.42669   0.69998
N    -0.72395   0.04054   0.40201
C    -1.93563  -0.35613   0.20135
C    -2.44838  -1.66485   0.73858
C    -2.79209   0.49181  -0.55906
N    -3.52566   1.15624  -1.17501
H     4.21078  -1.59245   0.48791
H     4.32411   0.18108   0.18682
H     3.73146  -0.91442  -1.11035
H    -2.75843  -2.32499  -0.08705
H    -1.66277  -2.16546   1.31968
H    -3.32324  -1.49521   1.38619
