36
Generated by autodE on: 2022-06-18. E = -950.046561 Ha. Imaginary frequency = -402.2 cm-1
C     4.66842   0.07176  -0.68423
O     3.27370  -0.27203  -0.79828
C     2.56465  -0.25805   0.32406
O     2.99766  -0.05095   1.43835
C     1.11911  -0.42670   0.07529
N     0.46542  -1.41352  -0.23256
C    -0.79949  -1.74850  -0.48913
C    -1.26881  -1.82894  -1.91178
C    -1.47836  -2.52355   0.49413
N    -2.08188  -3.14750   1.27259
C    -1.43221   0.67147   0.29142
C    -1.89337   0.11814   1.56850
N    -3.22584  -0.12760   1.68636
O    -1.11986  -0.10645   2.52216
C    -2.40893   1.01100  -0.81986
C    -1.68400   1.57582  -2.01377
C    -0.45872   2.11558  -1.89855
N     0.24400   2.14211  -0.69315
C     1.60006   2.66665  -0.69350
C    -0.14593   1.25686   0.31042
H     4.77136   1.08441  -0.26861
H     5.06827   0.03292  -1.70325
H     5.18729  -0.65118  -0.03985
H    -2.36659  -1.86215  -1.93559
H    -0.89060  -2.74140  -2.40297
H    -0.91614  -0.94961  -2.46981
H    -3.82750  -0.13298   0.87134
H    -3.51902  -0.69357   2.47652
H    -3.15864   1.74475  -0.45177
H    -3.00303   0.12967  -1.11510
H    -2.18869   1.60108  -2.98119
H     0.05613   2.57921  -2.74295
H     1.61186   3.68434  -1.11006
H     1.97452   2.71247   0.33764
H     2.28625   2.04144  -1.28984
H     0.31799   1.43240   1.28266
