38
Generated by autodE on: 2022-10-07. E = -1084.018503 Ha
C     3.31954   0.99298  -2.86295
N     2.67149   0.55045  -1.64701
C     1.55387  -0.18561  -1.66500
O     1.03874  -0.60864  -2.71587
C     0.95321  -0.46370  -0.27968
C     0.44438   0.81836   0.42194
C     1.48412   1.58255   1.26195
O     1.04223   2.33229   2.16468
O     2.71166   1.44661   0.96877
C    -0.78323   0.34417   1.21404
C    -0.44199  -0.22023   2.60746
O     0.63087  -0.87412   2.73615
O    -1.28815  -0.02166   3.51845
C    -1.36503  -0.76635   0.28974
C    -2.25655  -1.77299   1.02020
C    -2.25771  -0.06208  -0.76516
O    -3.29177   0.53901  -0.42996
N    -1.83644  -0.14676  -2.03202
C    -2.50402   0.52844  -3.12229
N    -0.18618  -1.36169  -0.35892
C     0.13797  -2.76163  -0.19411
H     3.59530   0.13838  -3.50068
H     2.66880   1.65573  -3.45921
H     4.23311   1.54361  -2.60408
H     2.92497   0.94163  -0.72241
H     1.75199  -0.89962   0.34407
H     0.09835   1.53336  -0.34461
H    -1.51956   1.14403   1.35199
H    -3.06517  -1.23368   1.52932
H    -2.70835  -2.48567   0.31430
H    -1.69098  -2.33791   1.77236
H    -0.93048  -0.60469  -2.17870
H    -2.80290   1.54668  -2.82805
H    -3.41312  -0.00616  -3.44662
H    -1.81611   0.59282  -3.97568
H     0.51068  -3.01388   0.81984
H    -0.72754  -3.40157  -0.41510
H     0.92465  -3.03209  -0.91654
