28
Generated by autodE on: 2022-10-07. E = -628.879360 Ha
C     4.40940  -0.56650  -1.08776
N     3.00958  -0.23074  -0.97396
C     2.34133  -0.15416   0.21723
O     2.95650  -0.32079   1.29384
C     0.92333   0.12489   0.01575
N    -0.05208   0.31002   0.93672
C     0.32895   0.45028   2.36377
C    -1.38290   0.40398   0.66725
C    -2.33259   0.79312   1.76814
C    -1.91166   0.03835  -0.64991
O    -1.21598  -0.16439  -1.67160
N    -3.26532  -0.10953  -0.73776
C    -3.89845  -0.45577  -1.99122
H     4.95919   0.20072  -1.65724
H     4.55675  -1.53590  -1.59408
H     4.84184  -0.63142  -0.08264
H     2.47331  -0.13204  -1.82876
H     0.56689   0.13450  -1.00795
H     1.37732   0.17265   2.46963
H     0.18521   1.49292   2.67457
H    -0.30139  -0.20304   2.97679
H    -2.69662  -0.06994   2.35675
H    -3.21297   1.29939   1.34914
H    -1.88692   1.50375   2.47479
H    -3.84572  -0.02966   0.08596
H    -3.64040  -1.47709  -2.32094
H    -3.59663   0.23586  -2.79348
H    -4.98709  -0.39589  -1.86609
