28
Generated by autodE on: 2022-10-13. E = -628.883894 Ha
C     2.98065   1.33892  -2.10237
N     2.43126   1.30052  -0.76540
C     1.42720   0.42657  -0.43678
O     0.84533  -0.22982  -1.33096
C     1.13886   0.33634   0.97109
N     0.25065  -0.57288   1.49160
C     0.62336  -1.14969   2.80075
C    -0.85516  -1.03035   0.90303
C    -1.51266  -2.28313   1.39112
C    -1.56156  -0.28689  -0.18170
O    -2.28183  -0.89070  -0.98941
N    -1.52216   1.06680  -0.14382
C    -2.02030   1.84247  -1.26273
H     3.57957   0.44270  -2.34895
H     2.17256   1.41138  -2.84468
H     3.62629   2.22170  -2.20187
H     2.99767   1.67301  -0.01076
H     1.83711   0.76336   1.68727
H    -0.25479  -1.21588   3.45301
H     1.38231  -0.50916   3.26104
H     1.04557  -2.15281   2.65036
H    -2.21606  -2.63004   0.62493
H    -0.78639  -3.08602   1.58882
H    -2.08400  -2.11739   2.32256
H    -0.78267   1.48882   0.41216
H    -3.08785   1.64342  -1.43579
H    -1.47406   1.60874  -2.19301
H    -1.89570   2.90979  -1.04029
