10
Generated by autodE on: 2022-10-07. E = -455.045782 Ha
O     2.74011  -0.01509   0.41428
C     1.57826  -0.11891  -0.07208
O     1.08844  -1.15696  -0.59388
C     0.73367   1.13563  -0.01279
C    -0.60579   1.19085   0.07174
C    -1.57927   0.02735   0.06868
O    -1.52151  -0.80969   1.00521
O    -2.41608   0.03634  -0.87498
H     1.30559   2.07104   0.01352
H    -1.08644   2.17758   0.10825
