21
Generated by autodE on: 2022-06-09. E = -699.210993 Ha
C     3.69043   0.32329  -1.09961
N     2.42446   0.85460  -0.63606
C     1.34641   0.06907  -0.51370
O     1.34367  -1.15452  -0.70741
C     0.06620   0.74413  -0.17526
O    -0.96821   0.04341   0.17935
C    -1.22561  -1.18157   0.58427
C    -2.60502  -1.44929   0.77071
N    -3.73433  -1.69885   0.91526
C    -0.28364  -2.14849   1.00482
N     0.35610  -3.00496   1.47197
C    -0.25179   2.17569  -0.39052
C    -1.68342   2.60157  -0.24796
O     0.65246   2.96637  -0.64798
H     4.46905   1.08113  -0.95253
H     3.65166   0.05476  -2.16879
H     3.95446  -0.58069  -0.53220
H     2.26359   1.86215  -0.59693
H    -1.76420   3.66627  -0.49846
H    -2.33524   2.00368  -0.90352
H    -2.02404   2.43591   0.78677
