21
Generated by autodE on: 2022-07-26. E = -699.204873 Ha
C     3.92115  -0.06445  -0.60735
N     2.47974  -0.10118  -0.47128
C     1.83958   0.26856   0.65367
O     2.40330   0.66855   1.67747
C     0.34547   0.18312   0.60369
O    -0.11579  -0.22094  -0.54165
C    -1.26585  -0.38189  -1.16249
C    -1.14451  -0.95191  -2.45455
N    -1.06994  -1.43396  -3.50182
C    -2.52209   0.11963  -0.75502
N    -3.58764   0.54712  -0.59209
C    -0.56749   0.33756   1.75767
C    -0.09490   0.95751   3.03402
O    -1.70468  -0.10771   1.62578
H     4.23149   0.70646  -1.33103
H     4.29841  -1.03794  -0.95467
H     4.36793   0.16601   0.36644
H     1.92971  -0.40148  -1.26995
H     0.35867   1.94063   2.84156
H     0.68594   0.33320   3.49286
H    -0.95287   1.04920   3.71249
