79
Generated by autodE on: 2022-07-04. E = -2036.526706 Ha
C     8.08637  -1.24859   6.43615
O     8.62198  -0.20620   5.60848
C     8.37098   1.05007   5.94224
O     7.73907   1.37038   6.92256
C     9.10807   2.05854   4.99592
C    10.56611   1.59538   5.20937
O    11.15014   0.81107   4.49390
O    11.07307   2.08181   6.33514
C    12.39949   1.65491   6.69339
C     8.81117   3.45963   5.59902
C     9.55821   4.69513   5.10099
C     9.21979   5.18398   3.68499
C    10.23130   4.86442   2.58748
C    10.54525   3.38517   2.27790
F    10.86984   3.35819   0.89550
C    11.88740   2.93992   2.93799
C    12.68632   1.89436   2.22468
O    12.29611   3.51076   3.92959
C     9.33653   2.46678   2.44046
C     8.70705   1.94307   3.51456
C     7.37182   1.27935   3.06013
C     6.20358   1.77416   3.92904
C     5.80107   3.11302   3.78854
C     4.78466   3.64291   4.58200
C     4.14697   2.83918   5.53493
C     4.53282   1.50556   5.67593
C     5.55041   0.97702   4.87453
C     7.45818  -0.25440   2.90906
C     8.69241  -0.91785   2.85208
C     8.76512  -2.27802   2.54284
C     7.60173  -3.00702   2.27928
C     6.36542  -2.35815   2.33010
C     6.29624  -0.99664   2.63874
N     7.22955   1.85789   1.71604
C     6.08362   1.55522   0.89290
C     8.52776   2.14083   1.16021
C     8.38041   3.36684   0.19045
C     8.84952   3.24663  -1.22626
O     7.82449   4.35960   0.61449
C     9.17506   0.93139   0.43089
O    10.32067   0.55786   0.56366
O     8.30343   0.31998  -0.36639
C     8.76295  -0.85241  -1.05748
H     8.56419  -1.22233   7.42587
H     8.32065  -2.18641   5.92001
H     7.00028  -1.13344   6.54845
H    12.43928   0.55937   6.76725
H    12.60709   2.11381   7.66638
H    13.11863   2.00733   5.94203
H     8.99206   3.37264   6.67619
H     7.73020   3.61972   5.48517
H    10.64228   4.55506   5.20575
H     9.28726   5.49165   5.81203
H     9.14236   6.28259   3.70038
H     8.22437   4.82191   3.38895
H     9.85623   5.28584   1.64620
H    11.18632   5.36412   2.80357
H    12.04464   1.09648   1.83630
H    13.46100   1.50477   2.89611
H    13.16835   2.37368   1.35612
H     6.29422   3.72937   3.03653
H     4.48872   4.68729   4.45775
H     3.35094   3.25169   6.15940
H     4.04300   0.86585   6.41366
H     5.83716  -0.06474   5.00352
H     9.60895  -0.37475   3.07040
H     9.74051  -2.76941   2.51041
H     7.65821  -4.07105   2.03778
H     5.44534  -2.91123   2.12622
H     5.32026  -0.51295   2.66851
H     6.04679   0.52156   0.50945
H     6.06455   2.23462   0.02798
H     5.16628   1.73926   1.47207
H     8.85714   4.23546  -1.70180
H     8.14639   2.58894  -1.76327
H     9.84224   2.78126  -1.28713
H     9.07100  -1.61961  -0.33352
H     7.90993  -1.20595  -1.64727
H     9.60712  -0.60166  -1.71524
