37
Generated by autodE on: 2022-07-04. E = -1020.105477 Ha
C    -1.21666  -3.60492   0.42831
O    -0.67385  -2.29786   0.16348
C    -0.42151  -1.99790  -1.10090
O    -0.60947  -2.74257  -2.03897
C     0.10074  -0.56365  -1.29700
C     1.27588  -0.67396  -2.28611
O     1.29566  -0.18660  -3.39157
O     2.26517  -1.38642  -1.75514
C     3.42938  -1.59886  -2.57275
C     0.49469   0.08139  -0.05042
C     0.41448   0.81111   0.91150
C    -0.19079   1.81028   1.78738
F     0.38011   3.06245   1.51996
C    -0.02222   1.49611   3.28713
C     0.38331   2.62633   4.17725
O    -0.25365   0.36795   3.67565
C    -1.69286   1.87019   1.42745
C    -2.00565   1.99815  -0.07672
C    -2.17268   0.69718  -0.91232
C    -1.04940   0.30899  -1.89435
H    -1.35498  -3.65526   1.51384
H    -0.51418  -4.38044   0.09276
H    -2.17891  -3.72595  -0.08838
H     4.11763  -2.19685  -1.96521
H     3.15489  -2.14223  -3.48800
H     3.88882  -0.63593  -2.83662
H     0.40698   2.28923   5.22124
H    -0.31776   3.46827   4.05998
H     1.37501   2.99692   3.87163
H    -2.16499   0.96720   1.84346
H    -2.10201   2.73543   1.97328
H    -2.95967   2.54348  -0.13497
H    -1.26102   2.66088  -0.54796
H    -3.07133   0.82994  -1.53333
H    -2.40289  -0.15024  -0.24523
H    -1.46617  -0.25603  -2.74103
H    -0.58397   1.21356  -2.31186
