42
Generated by autodE on: 2022-07-27. E = -1016.361335 Ha
C     3.99194   0.08199  -1.83290
O     2.63640   0.36857  -2.17664
C     1.79086   0.61236  -1.14472
O     2.19418   0.56399   0.02209
C     0.43880   0.90558  -1.53766
C    -0.15496   0.96937  -2.83085
C     0.68363   0.84670  -4.08614
O    -1.39745   1.10701  -2.95457
N    -0.43371   1.14712  -0.41664
C    -0.94046   2.52017  -0.29216
C    -0.61656   0.22791   0.50240
C    -1.07578   0.56597   1.86055
C    -0.44063   1.58717   2.59111
C    -0.83492   1.85322   3.90143
C    -1.87180   1.11764   4.48569
C    -2.50208   0.09716   3.76509
C    -2.09492  -0.19298   2.46368
C    -0.35040  -1.19074   0.19944
C     0.35162  -1.98350   1.12122
C     0.58425  -3.33225   0.84597
C     0.09367  -3.90020  -0.33313
C    -0.62885  -3.11715  -1.24312
C    -0.84314  -1.76519  -0.98711
H     4.45602   0.92870  -1.30487
H     4.51331  -0.09468  -2.78200
H     4.05764  -0.81423  -1.19792
H     1.10879  -0.16505  -4.17027
H     0.03147   1.03615  -4.94970
H     1.52756   1.55009  -4.09037
H    -1.30028   2.82188  -1.28195
H    -0.12830   3.19022   0.02090
H    -1.76702   2.56502   0.42487
H     0.38316   2.14280   2.14178
H    -0.32809   2.63527   4.47066
H    -2.18313   1.33385   5.51021
H    -3.30749  -0.48076   4.22305
H    -2.57333  -0.99741   1.90245
H     0.73155  -1.53464   2.04019
H     1.14555  -3.94182   1.55727
H     0.26681  -4.95836  -0.54241
H    -1.02766  -3.56483  -2.15594
H    -1.40929  -1.15009  -1.68772
