30
Generated by autodE on: 2022-05-26. E = -912.429828 Ha
C     4.32354   0.34056   0.10170
O     3.03864   0.39465  -0.54219
C     2.05284   0.98807   0.12704
O     2.18523   1.51601   1.20976
C     0.74383   0.87253  -0.63051
C    -0.45099   1.62678  -0.00630
C    -1.45372   0.48408   0.20191
C    -2.91367   0.83530   0.49178
C    -3.59796   1.70505  -0.51498
O    -3.44077   0.41947   1.50150
O    -0.92496  -0.30783   1.34344
C     0.11927  -0.99895   0.86436
O     0.84132  -1.70999   1.50845
C     0.19166  -0.60178  -0.63828
C     0.89349  -1.55104  -1.48122
N     1.45017  -2.32008  -2.14534
N    -1.22790  -0.36175  -0.95798
C    -2.06634  -1.56063  -1.05813
H     4.98521  -0.18892  -0.59270
H     4.24557  -0.20803   1.05102
H     4.69840   1.35636   0.28985
H     0.91449   1.16010  -1.67537
H    -0.85285   2.37516  -0.69713
H    -0.19544   2.10053   0.94780
H    -3.35986   1.39260  -1.54191
H    -3.22818   2.73795  -0.39589
H    -4.68135   1.68834  -0.34216
H    -3.09820  -1.25340  -1.27420
H    -1.71440  -2.16967  -1.90113
H    -2.06278  -2.18096  -0.14471
