12
Generated by autodE on: 2022-05-26. E = -306.615261 Ha
C    -2.43355  -0.07613  -0.51501
C    -1.17227   0.21434  -0.85123
C    -0.05225  -0.04034   0.08412
O    -0.15473  -0.51515   1.20163
O     1.12415   0.32051  -0.45159
C     2.28909   0.12137   0.35884
H    -2.66635  -0.50991   0.46213
H    -3.26274   0.10981  -1.20221
H    -0.91281   0.64761  -1.82015
H     2.40824  -0.94292   0.61005
H     2.21897   0.70693   1.28746
H     3.13964   0.46554  -0.24111
