30
Generated by autodE on: 2022-05-26. E = -912.387216 Ha. Imaginary frequency = -454.0 cm-1
C     4.16909   0.35444  -0.26440
O     2.89972   0.46950  -0.91731
C     1.93067   1.11089  -0.23768
O     2.11559   1.61890   0.85804
C     0.65514   1.08390  -0.95746
C    -0.50107   1.68249  -0.43868
C    -1.46966   0.21964   0.43531
C    -2.74692   0.85214   0.94007
C    -3.91816   0.99565   0.02026
O    -2.73617   1.27663   2.07905
O    -0.58593  -0.09361   1.45222
C     0.37552  -0.95094   0.95464
O     1.34602  -1.29521   1.58597
C    -0.09366  -1.26450  -0.38303
C     0.54107  -2.15312  -1.27500
N     1.10187  -2.87026  -2.00010
N    -1.36827  -0.78911  -0.50967
C    -2.09573  -0.83881  -1.77233
H     4.81677  -0.19802  -0.95536
H     4.06350  -0.19959   0.67975
H     4.59546   1.34739  -0.05914
H     0.68340   0.72338  -1.98649
H    -1.26668   2.00162  -1.15185
H    -0.38985   2.31044   0.44965
H    -4.38333   0.01034  -0.14507
H    -4.65093   1.66331   0.49051
H    -3.61465   1.39372  -0.95871
H    -1.69900  -1.67028  -2.36518
H    -3.16068  -1.01065  -1.59211
H    -1.95517   0.10166  -2.32657
