16
Generated by autodE on: 2022-06-03. E = -806.483311 Ha
C     1.78963  -1.60287   0.61004
C     0.63029  -0.68149   0.53953
C     0.41247   0.43791  -0.16109
Cl    1.44585   1.24551  -1.28467
C    -1.06538   0.82686   0.06617
C    -1.92523  -0.25015  -0.63950
C    -1.72621  -1.36235   0.07405
C    -0.75136  -0.94256   1.19957
O    -1.19980   0.40930   1.43539
H     2.11893  -1.75433   1.65191
H     1.51115  -2.59765   0.21848
H     2.63794  -1.22357   0.02217
H    -1.33021   1.87858  -0.08608
H    -2.50024  -0.09584  -1.55183
H    -2.09542  -2.37389  -0.09175
H    -0.74513  -1.54367   2.11586
