35
Generated by autodE on: 2022-07-27. E = -894.996721 Ha
C    -2.24822   2.84853   1.38021
N    -1.77083   1.90667   0.38535
C    -1.12785   0.78578   0.74356
O    -0.98744   0.41230   1.90638
C    -0.67021  -0.08494  -0.41122
C    -1.63376  -0.23293  -1.56617
O    -2.71623  -0.78483  -1.36175
N    -1.23838   0.29017  -2.73137
C    -2.05996   0.21048  -3.92686
N     0.36256  -0.86873  -0.30885
C     0.61726  -1.90845  -1.32722
C     1.42815  -0.56849   0.59332
C     1.83698  -1.65779   1.44269
C     3.01010  -1.52941   2.38946
O     1.20112  -2.73111   1.43231
C     1.88557   0.79626   0.50425
C     3.17639   1.23230   1.16340
O     1.24802   1.65554  -0.14174
H    -2.83544   2.32439   2.14701
H    -1.41096   3.36445   1.87930
H    -2.88400   3.59401   0.88777
H    -1.72185   2.20876  -0.58343
H    -0.30333   0.68633  -2.79023
H    -2.04767  -0.80606  -4.35247
H    -1.67144   0.91453  -4.67217
H    -3.10002   0.47294  -3.68755
H    -0.32381  -2.39631  -1.60852
H     1.08579  -1.44201  -2.20433
H     1.29364  -2.64917  -0.89686
H     3.08573  -2.46762   2.95447
H     3.95268  -1.36088   1.84854
H     2.87656  -0.69698   3.09476
H     3.04309   1.29824   2.25406
H     4.01065   0.54803   0.96490
H     3.42317   2.23248   0.78460
