35
Generated by autodE on: 2022-06-03. E = -895.000109 Ha
C     0.37696   3.38999  -0.88768
N     0.51172   2.12291  -0.19174
C     0.65276   0.97432  -0.83990
O     0.77830   0.81555  -2.06018
C     0.79821  -0.28618  -0.01462
C     2.20906  -0.80098   0.19734
O     2.57960  -1.10183   1.33114
N     2.95647  -0.85485  -0.90810
C     4.34325  -1.28316  -0.86601
N    -0.23494  -0.93759   0.39971
C    -0.12742  -2.25450   1.05187
C    -1.54056  -0.31108   0.43289
C    -2.50677  -0.73111  -0.54568
C    -2.01596  -1.64453  -1.65695
O    -3.68472  -0.33200  -0.55939
C    -1.68709   0.68305   1.44673
C    -3.04734   1.28927   1.69824
O    -0.70555   1.09096   2.11940
H     0.70027   4.20147  -0.22366
H     1.00470   3.38525  -1.78820
H    -0.66766   3.57092  -1.18875
H     0.26474   2.05133   0.80312
H     2.54676  -0.52841  -1.78191
H     4.70841  -1.39713  -1.89297
H     4.97015  -0.54539  -0.34035
H     4.43182  -2.24568  -0.34156
H    -1.07596  -2.78128   0.90839
H     0.70049  -2.83605   0.63229
H     0.03195  -2.08682   2.12618
H    -2.84482  -1.83568  -2.35081
H    -1.18302  -1.17154  -2.20154
H    -1.64779  -2.60681  -1.26824
H    -2.97672   1.94345   2.57791
H    -3.36266   1.88216   0.82533
H    -3.81824   0.52176   1.85019
