17
Generated by autodE on: 2022-10-21. E = -364.110109 Ha
C    -1.73959  -0.87052  -2.05993
C    -1.14888  -0.33611  -0.80832
C    -1.97735   0.16544   0.31023
O     0.13531  -0.33855  -0.75815
C     1.06793   0.04413   0.15851
C     2.47565  -0.19642  -0.29384
C     0.75327   0.60913   1.38988
N     0.60138   1.09602   2.45386
H    -0.95717  -1.19454  -2.75849
H    -2.40652  -1.72156  -1.83369
H    -2.36890  -0.10203  -2.54352
H    -1.75160   1.22482   0.52253
H    -1.76899  -0.39935   1.23551
H    -3.04203   0.06929   0.06379
H     2.71620   0.35329  -1.22215
H     3.17483   0.14338   0.48340
H     2.67908  -1.26683  -0.48036
