36
Generated by autodE on: 2022-05-30. E = -1288.975917 Ha
C     5.03840  -0.84936  -1.00375
N     3.62961  -0.97193  -0.68657
C     2.81141   0.08892  -0.67522
O     3.16911   1.25289  -0.87200
C     1.36616  -0.22968  -0.41097
N     0.85337  -1.38168  -0.69343
C    -0.55266  -1.33103  -0.35367
C    -0.83077  -2.34937   0.83491
C     0.06080  -2.24653   2.03010
O    -1.71177  -3.16452   0.70804
C    -1.48941  -1.75983  -1.51120
C    -0.96572  -2.78087  -2.46668
O    -2.59635  -1.27009  -1.57365
C    -0.81434   0.07342   0.11762
C    -2.15055   0.48936   0.61837
O    -2.71940  -0.12960   1.49529
O    -2.61976   1.56850   0.01343
C    -3.89473   2.05980   0.46606
C     0.37054   0.72691   0.11173
C     0.63163   2.11627   0.62267
F     0.80055   3.00439  -0.36740
F    -0.39184   2.55613   1.37870
F     1.72755   2.15001   1.39749
H     5.19829  -0.65877  -2.07813
H     5.48289  -0.01615  -0.44070
H     5.54952  -1.77993  -0.72932
H     3.21427  -1.89307  -0.58525
H     0.29225  -1.20343   2.28366
H    -0.41416  -2.75585   2.87828
H     1.01136  -2.75335   1.79512
H    -0.18295  -2.31511  -3.08741
H    -0.49309  -3.61169  -1.92265
H    -1.78052  -3.14366  -3.10602
H    -3.83341   2.34280   1.52641
H    -4.66703   1.28968   0.33099
H    -4.11417   2.93643  -0.15296
