13
Generated by autodE on: 2022-05-30. E = -642.534023 Ha
C     4.07003   0.47655  -0.83742
O     2.62918   0.45611  -0.83043
C     2.05093  -0.09118   0.23076
O     2.62786  -0.56901   1.18324
C     0.59828  -0.05430   0.12286
C    -0.60972  -0.05409   0.08809
C    -2.07727  -0.04660   0.03779
F    -2.51974  -0.14871  -1.22293
F    -2.59335  -1.06864   0.73408
F    -2.56686   1.08917   0.55347
H     4.46239  -0.54931  -0.79779
H     4.35511   0.96143  -1.77731
H     4.44402   1.05074   0.02188
