42
Generated by autodE on: 2022-10-07. E = -1236.470526 Ha
C     2.31934  -3.13074   0.71421
N     1.99294  -1.73614   0.49007
C     0.83750  -1.20462   0.93886
O     0.12922  -1.77479   1.77052
C     0.45923   0.15481   0.28733
C     1.68440   1.05897   0.26353
C     2.24305   1.56628  -0.91410
C     3.35886   2.41115  -0.86226
C     3.92624   2.75841   0.36449
C     3.38004   2.24441   1.54736
C     2.27299   1.39945   1.49439
C    -0.22797  -0.14534  -1.09645
C     0.40889  -1.29562  -1.91579
O    -0.05070  -2.45448  -1.75856
O     1.37547  -0.98350  -2.66133
C    -1.69202  -0.40285  -0.70483
C    -2.66196   0.27764  -1.69456
O    -2.61976  -0.18951  -2.86375
O    -3.37672   1.22577  -1.28797
N    -1.77697   0.06566   0.67322
C    -2.69707  -0.39556   1.54630
C    -2.54350   0.01270   2.98964
O    -3.62677  -1.11631   1.15405
N    -0.63360   0.78522   1.07875
C    -0.83380   2.21753   0.80827
H     2.19640  -3.38732   1.77509
H     3.36329  -3.30789   0.42578
H     1.66686  -3.79052   0.11650
H     2.45742  -1.26542  -0.28121
H     1.83585   1.27086  -1.87952
H     3.78483   2.79590  -1.79199
H     4.79499   3.41997   0.40225
H     3.82077   2.50227   2.51330
H     1.85132   0.99953   2.41922
H    -0.16006   0.76851  -1.69952
H    -1.88740  -1.48321  -0.72522
H    -3.39029  -0.39036   3.55955
H    -2.51286   1.10659   3.09907
H    -1.60093  -0.38742   3.39010
H    -0.00603   2.79809   1.23242
H    -1.76070   2.52435   1.31063
H    -0.92788   2.45507  -0.26558
