32
Generated by autodE on: 2022-10-07. E = -781.366267 Ha
C    -1.17472   3.33208  -0.11345
N    -0.96039   1.90876   0.05794
C     0.03467   1.27513  -0.58150
O     0.74933   1.81429  -1.42869
C     0.15621  -0.20054  -0.26600
C    -1.08707  -0.98040  -0.11994
C    -1.28784  -1.81015   0.99871
C    -2.48870  -2.50336   1.14961
C    -3.49656  -2.38171   0.18745
C    -3.30594  -1.55321  -0.92373
C    -2.11362  -0.84611  -1.07331
N     1.33990  -0.77080  -0.23042
C     1.50416  -2.23409  -0.26639
N     2.54177  -0.13734  -0.18859
C     2.63769   0.91397   0.65575
C     3.99210   1.57971   0.63630
O     1.74388   1.34017   1.41508
H    -2.07086   3.62647   0.44575
H    -0.31271   3.90988   0.25906
H    -1.31822   3.57902  -1.17593
H    -1.47982   1.40982   0.77330
H    -0.50790  -1.89413   1.75742
H    -2.63978  -3.13805   2.02544
H    -4.43497  -2.92787   0.30713
H    -4.09129  -1.45494  -1.67628
H    -1.96704  -0.19796  -1.93965
H     2.37660  -2.43213  -0.89904
H     1.70670  -2.60307   0.74792
H     0.61424  -2.71862  -0.67782
H     3.88376   2.56493   0.15196
H     4.73906   0.99214   0.08769
H     4.33063   1.75783   1.66831
