10
Generated by autodE on: 2022-10-07. E = -455.051682 Ha
O     2.80092  -0.97335  -0.19402
C     1.95184  -0.04273  -0.28406
O     2.19367   1.14554  -0.63284
C     0.52365  -0.41414   0.05771
C    -0.52366   0.41414  -0.05778
C    -1.95185   0.04272   0.28403
O    -2.19366  -1.14555   0.63281
O    -2.80091   0.97336   0.19412
H     0.35835  -1.43778   0.41100
H    -0.35837   1.43777  -0.41109
