42
Generated by autodE on: 2022-10-07. E = -1236.398710 Ha. Imaginary frequency = -285.5 cm-1
C     2.50044  -3.13601   0.22589
N     2.10578  -1.74172   0.17679
C     0.95957  -1.33668   0.77300
O     0.34038  -2.05223   1.56340
C     0.57478   0.10276   0.48699
C     1.71131   1.07049   0.34486
C     2.27072   1.40239  -0.89846
C     3.34729   2.29167  -0.97177
C     3.88036   2.85623   0.18936
C     3.34111   2.51418   1.43385
C     2.26914   1.62445   1.51139
C    -0.46694  -0.34171  -1.61896
C     0.32940  -1.52288  -2.09234
O    -0.10364  -2.68128  -1.83460
O     1.41175  -1.27577  -2.70842
C    -1.79018  -0.46645  -1.19968
C    -2.77769   0.66733  -1.42397
O    -2.32217   1.84010  -1.50359
O    -3.99395   0.34523  -1.53885
N    -1.63154  -0.24838   0.87389
C    -2.60292  -0.29879   1.81694
C    -3.81309  -1.10228   1.40750
O    -2.49588   0.20759   2.94510
N    -0.57969   0.55777   1.01688
C    -0.81407   2.00242   1.21304
H     1.80612  -3.76887  -0.35184
H     3.50853  -3.23729  -0.19619
H     2.51481  -3.49226   1.26491
H     2.39492  -1.22671  -0.65213
H     1.88803   0.93634  -1.80581
H     3.77057   2.54152  -1.94751
H     4.71880   3.55393   0.12711
H     3.75863   2.93902   2.34968
H     1.85926   1.35180   2.48626
H    -0.15488   0.63994  -1.97637
H    -2.21806  -1.46825  -1.14858
H    -3.51830  -2.14757   1.22225
H    -4.23860  -0.71010   0.47216
H    -4.55904  -1.07168   2.21190
H    -0.37288   2.32646   2.16421
H    -1.89274   2.17342   1.23034
H    -0.37316   2.57396   0.38885
