25
Generated by autodE on: 2022-10-06. E = -855.217038 Ha
C     3.21031   0.62313   0.65712
O     1.92783   0.57057   0.03010
C     1.79195  -0.26680  -1.00199
O     2.73320  -0.83381  -1.52509
C     0.36144  -0.32163  -1.52065
N    -0.11226   1.03901  -1.80530
C    -1.16243   1.28134  -1.11199
C    -1.87485   2.59310  -1.14881
C    -1.65436   0.16842  -0.21590
C    -1.64538   0.65116   1.26382
O    -2.75842   0.73874   1.84031
O    -0.52783   0.96942   1.74764
C    -0.68160  -0.98246  -0.57276
C    -0.16272  -1.81672   0.61520
O    -1.02859  -2.19515   1.44536
O     1.06141  -2.11511   0.63962
H     3.47943  -0.36921   1.04924
H     3.98279   0.95888  -0.05031
H     3.11621   1.33929   1.48219
H     0.44048  -0.87845  -2.46451
H    -1.82528   3.07421  -0.15757
H    -2.94320   2.44509  -1.37584
H    -1.43207   3.26893  -1.89278
H    -2.69570  -0.07841  -0.46732
H    -1.24667  -1.70900  -1.17733
