10
Generated by autodE on: 2022-10-06. E = -455.046574 Ha
O     1.75302  -0.38853  -1.49237
C     1.55336  -0.12973  -0.27721
O     2.03863  -0.73831   0.71097
C     0.72948   1.10986   0.01985
C    -0.59182   1.19073   0.25095
C    -1.56620   0.03640   0.26839
O    -2.76174   0.32573   0.56079
O    -1.14101  -1.12106  -0.00704
H     1.31604   2.03914   0.03734
H    -1.03979   2.17030   0.45451
