25
Generated by autodE on: 2022-10-06. E = -855.117264 Ha. Imaginary frequency = -337.5 cm-1
C     2.83458   0.60273   0.81158
O     1.82722   0.73685  -0.19027
C     1.74691  -0.24734  -1.11470
O     2.56109  -1.16597  -1.17372
C     0.60751  -0.11299  -1.98931
N    -0.21383   0.92302  -1.88203
C    -1.11673   1.44250  -1.27572
C    -1.81729   2.72894  -1.17661
C    -1.82110  -0.11218   0.10078
C    -1.62801   0.71905   1.36939
O    -2.48523   0.53209   2.27205
O    -0.68840   1.55911   1.40819
C    -1.12202  -1.25926  -0.21336
C    -0.03486  -1.91648   0.58626
O     0.39884  -3.01959   0.14231
O     0.36912  -1.35896   1.65115
H     2.75840  -0.37184   1.31164
H     3.84018   0.71914   0.37817
H     2.64470   1.40479   1.53560
H     0.54973  -0.74795  -2.87371
H    -1.14542   3.48094  -0.73564
H    -2.71643   2.64538  -0.55197
H    -2.10329   3.06300  -2.18702
H    -2.81870  -0.01014  -0.34358
H    -1.49410  -1.87528  -1.03818
