50
Generated by autodE on: 2022-06-02. E = -1262.532700 Ha
C     3.60364  -0.18585   2.13297
C     2.32612  -0.98700   2.07404
O     1.87520  -1.50738   3.09831
C     1.65695  -1.23041   0.79549
C     1.56241  -0.51652  -0.36065
C     1.99953   0.83275  -0.70932
C     2.01554   1.86267   0.25140
C     2.38586   3.15739  -0.10458
C     2.74051   3.44904  -1.42657
C     2.71954   2.43748  -2.39208
C     2.34468   1.14118  -2.03984
C     0.70439  -1.38685  -1.27913
O     1.02140  -2.71053  -0.82766
C     0.78453  -2.46277   0.56468
C    -0.71730  -2.03246   0.53631
C    -1.12919  -0.95308   1.55953
C    -2.43816  -1.25748   2.18725
N    -3.47528  -1.43341   2.67853
N    -1.15163   0.29423   0.80777
C    -1.54463   1.47995   1.54541
C    -1.51913   0.00725  -0.58055
C    -3.07097  -0.22011  -0.67893
C    -3.96556   0.96490  -0.44680
O    -3.52582  -1.33535  -0.85006
C    -1.15566   1.10548  -1.59153
C    -1.37504   0.75813  -3.03911
O    -0.74506   2.19757  -1.25033
C    -0.80315  -1.33130  -0.84610
H     3.97385   0.12254   1.14879
H     4.36182  -0.80805   2.63456
H     3.44933   0.70535   2.76055
H     1.68693   1.65489   1.26936
H     2.38081   3.94846   0.64867
H     3.02267   4.46682  -1.70586
H     2.99098   2.66091  -3.42621
H     2.32713   0.35864  -2.80008
H     0.87667  -1.28199  -2.35399
H     1.00876  -3.34023   1.17878
H    -1.36078  -2.91660   0.59261
H    -0.40698  -0.87866   2.38919
H    -0.83958   1.61939   2.38091
H    -1.48566   2.35876   0.89768
H    -2.56209   1.41930   1.97717
H    -3.48272   1.92437  -0.66862
H    -4.88037   0.84517  -1.04382
H    -4.25893   0.96715   0.61662
H    -2.26524   0.12974  -3.18798
H    -0.50717   0.18477  -3.40381
H    -1.45235   1.68072  -3.62875
H    -1.36640  -1.92508  -1.57093
