28
Generated by autodE on: 2022-06-02. E = -691.408455 Ha
C    -3.01731   1.98948  -0.36136
C    -1.54687   1.76960  -0.09415
O    -0.72957   2.65753  -0.34184
C    -1.18774   0.46387   0.46498
C    -0.04533  -0.28296   0.40615
C     1.28685  -0.08562  -0.14994
C     1.87451   1.18845  -0.30736
C     3.15339   1.31756  -0.84742
C     3.87247   0.18643  -1.24799
C     3.30569  -1.08354  -1.09560
C     2.03394  -1.22062  -0.54260
C    -0.47917  -1.66682   0.98013
C    -1.40846  -2.31599  -0.06481
C    -2.52822  -1.58831  -0.01591
C    -2.25052  -0.50977   1.05309
O    -1.42582  -1.24400   1.96784
H    -3.15524   2.92215  -0.92344
H    -3.56092   2.06037   0.59556
H    -3.45356   1.14435  -0.91727
H     1.31088   2.06739  -0.00416
H     3.59420   2.31144  -0.95529
H     4.87359   0.29314  -1.67226
H     3.85983  -1.97279  -1.40440
H     1.60973  -2.21989  -0.43263
H     0.31563  -2.28344   1.41039
H    -1.13484  -3.14305  -0.71869
H    -3.43437  -1.65685  -0.61671
H    -3.11335  -0.05562   1.54946
