22
Generated by autodE on: 2022-07-27. E = -571.035110 Ha
C    -2.28284   0.53509   0.52512
C    -1.23853   0.25732  -0.54388
O    -1.62974   0.07641  -1.70018
C     0.18888   0.35561  -0.22412
C     1.21390   0.70153  -1.21226
C     0.80955   1.07871  -2.61618
O     2.41345   0.68355  -0.91079
N     0.60702   0.15961   1.08381
C     1.63632   1.02621   1.70746
C     0.07882  -0.76462   1.86674
C    -0.68456  -1.84412   1.36887
N    -1.28588  -2.77773   1.01374
H    -2.90615  -0.35904   0.67891
H    -1.89093   0.86970   1.49372
H    -2.93634   1.31889   0.11237
H    -0.02031   1.79883  -2.63079
H     1.69132   1.49820  -3.11922
H     0.46756   0.18796  -3.16345
H     1.67144   1.98360   1.18233
H     2.61134   0.52965   1.65953
H     1.34901   1.17926   2.75521
H     0.27492  -0.72367   2.94004
