50
Generated by autodE on: 2022-06-02. E = -1262.427020 Ha. Imaginary frequency = -337.5 cm-1
C     3.32638  -0.09896   2.51148
C     2.02603  -0.82613   2.27724
O     1.36948  -1.22930   3.24052
C     1.57093  -1.17315   0.92665
C     1.58534  -0.58812  -0.30788
C     2.07317   0.68383  -0.84068
C     2.49627   1.75244  -0.02041
C     2.92245   2.95922  -0.56879
C     2.93951   3.13905  -1.95554
C     2.52909   2.09378  -2.78674
C     2.10084   0.88571  -2.23852
C     0.84154  -1.61396  -1.19178
O     1.31769  -2.84569  -0.60426
C     0.85023  -2.52303   0.72446
C    -0.64440  -2.30201   0.43386
C    -1.69963  -0.69119   1.81984
C    -2.88651  -1.45488   1.66219
N    -3.82453  -2.14415   1.59113
N    -1.41801   0.41894   1.08968
C    -0.51336   1.38604   1.74120
C    -1.71716   0.45063  -0.25543
C    -3.10563   0.03431  -0.68704
C    -4.24715   0.66595   0.07805
O    -3.32123  -0.61156  -1.70037
C    -1.12921   1.48447  -1.15358
C    -1.28004   1.27424  -2.64190
O    -0.55604   2.48315  -0.73076
C    -0.65555  -1.67216  -0.79704
H     3.92449   0.03211   1.60215
H     3.89851  -0.68126   3.25046
H     3.12579   0.88463   2.96556
H     2.46368   1.66042   1.06038
H     3.23200   3.77023   0.09406
H     3.26633   4.08910  -2.38425
H     2.53542   2.21953  -3.87164
H     1.78297   0.09318  -2.91357
H     1.03707  -1.58481  -2.26531
H     1.09522  -3.30173   1.45276
H    -1.39047  -3.00112   0.80112
H    -1.26572  -0.73278   2.81977
H    -1.01724   2.35753   1.80792
H     0.40962   1.51266   1.17874
H    -0.29051   1.01793   2.74652
H    -5.12521   0.00697   0.05392
H    -3.99892   0.93980   1.11000
H    -4.49304   1.59669  -0.46336
H    -2.32407   1.45088  -2.94597
H    -1.01810   0.25315  -2.94669
H    -0.63478   1.99959  -3.15234
H    -1.44767  -1.70164  -1.54021
