20
Generated by autodE on: 2022-06-21. E = -457.715327 Ha
C    -3.10835  -0.15428  -0.63345
N    -1.78468   0.31812  -0.26091
C    -1.54032   1.69491  -0.18135
C    -0.32023   2.20258   0.05468
C     0.90416   1.34494   0.25914
C     0.55300  -0.12605   0.10501
C     1.57981  -1.17476   0.21939
N     2.84064  -0.74886   0.48350
O     1.33848  -2.39163   0.08360
C    -0.72514  -0.53061  -0.13971
H    -3.15994  -1.24134  -0.49261
H    -3.87560   0.31618  -0.00003
H    -3.34048   0.07562  -1.68750
H    -2.41934   2.32607  -0.32358
H    -0.21070   3.28813   0.10868
H     1.34653   1.54454   1.25727
H     1.69834   1.63859  -0.45703
H     3.57734  -1.43985   0.57366
H     3.07354   0.22695   0.61565
H    -0.94807  -1.59351  -0.24586
