43
Generated by autodE on: 2022-06-21. E = -1199.178889 Ha. Imaginary frequency = -489.9 cm-1
C    -1.81311   4.23528  -1.89518
O    -1.86773   2.88485  -1.40685
C    -0.74566   2.17295  -1.48554
O     0.29917   2.60185  -1.94127
C    -0.85283   0.81711  -0.91710
C     0.04381  -0.24961  -1.36232
O     1.03395  -0.26415  -2.05551
O    -0.44741  -1.38603  -0.76017
C    -1.50014  -1.00900   0.06494
C    -2.33620  -2.13447   0.56631
C    -1.86042  -3.51723   0.22589
O    -3.33662  -1.92253   1.23866
C    -0.34567  -0.24948   1.64221
C     0.12578   0.94752   1.01615
C     1.60020   1.16843   0.79007
C     2.36508  -0.13565   0.79374
C     3.68638  -0.14307   0.15944
N     4.29794  -1.33992  -0.05672
O     4.24685   0.92296  -0.16164
C     1.84781  -1.21971   1.43603
N     0.59227  -1.25222   1.97231
C     0.20059  -2.30027   2.90000
N    -1.99899   0.18370  -0.43953
C    -3.10276   0.88700   0.20776
H    -1.06250   4.81273  -1.33729
H    -2.81368   4.65139  -1.73343
H    -1.56357   4.24407  -2.96560
H    -1.97773  -3.67511  -0.85975
H    -0.79045  -3.63917   0.44873
H    -2.45646  -4.25569   0.77638
H    -1.17513  -0.16925   2.34839
H    -0.46033   1.84316   1.22922
H     1.97960   1.84714   1.58084
H     1.77093   1.71276  -0.15143
H     3.77686  -2.20800  -0.04921
H     5.18567  -1.32883  -0.54754
H     2.42147  -2.13888   1.57755
H     0.87575  -3.15917   2.79180
H     0.24403  -1.94798   3.94522
H    -0.82674  -2.63449   2.70151
H    -2.73575   1.51673   1.03472
H    -3.61102   1.52057  -0.52426
H    -3.79856   0.14553   0.60530
