40
Generated by autodE on: 2022-06-19. E = -1010.565244 Ha
C     3.28316   1.20138   0.85219
C     2.12342   1.40639  -0.06725
O     2.01123   2.36297  -0.80761
C     1.01950   0.34162  -0.08259
O     1.27674  -0.62561   1.00346
C     0.63293  -1.76023   0.63901
O     0.61578  -2.75912   1.31148
C    -0.02708  -1.44485  -0.70560
C    -0.38791  -2.64540  -1.53891
C    -1.21476  -0.47679  -0.33315
N    -2.15675  -1.06910   0.58433
C    -3.40637  -1.55889   0.02833
C    -2.11959  -0.73573   1.93107
C    -1.39544   0.27067   2.44566
C    -0.66378   1.26509   1.59470
C    -0.45056   0.83598   0.12835
C    -0.79215   2.00954  -0.83613
N    -0.67800   1.74384  -2.15007
O    -1.20221   3.09263  -0.41603
N     0.93530  -0.47284  -1.27660
C     2.19338  -1.02299  -1.78422
H     3.75102   0.22453   0.65125
H     2.92942   1.17257   1.89515
H     4.00862   2.01316   0.71717
H    -1.10502  -3.26589  -0.98391
H     0.49511  -3.26358  -1.75416
H    -0.85024  -2.33345  -2.48629
H    -1.73632  -0.26950  -1.27363
H    -3.22229  -2.14759  -0.88098
H    -4.10925  -0.74074  -0.22530
H    -3.89955  -2.21496   0.76114
H    -2.72805  -1.38383   2.57003
H    -1.38546   0.41734   3.52763
H    -1.22392   2.21152   1.58281
H     0.30898   1.51404   2.04845
H    -0.13731   0.92515  -2.42590
H    -0.78633   2.51582  -2.80077
H     1.98531  -1.62468  -2.67814
H     2.85166  -0.19556  -2.08352
H     2.72801  -1.65555  -1.05231
