20
Generated by autodE on: 2022-06-19. E = -457.715344 Ha
C     3.08505   0.75541  -0.00662
N     1.83121   0.02020  -0.04340
C     1.82509  -1.31245  -0.47456
C     0.69392  -2.01727  -0.63488
C    -0.67750  -1.44788  -0.36698
C    -0.57461   0.01154   0.04519
C    -1.77662   0.81222   0.32960
N    -2.96442   0.16983   0.19807
O    -1.74005   2.01171   0.67185
C     0.63238   0.63095   0.17406
H     3.47506   0.94426  -1.02152
H     2.92724   1.71980   0.49282
H     3.84438   0.19124   0.55590
H     2.81198  -1.73681  -0.66799
H     0.77099  -3.05462  -0.96854
H    -1.31765  -1.56104  -1.26540
H    -1.19227  -2.04456   0.41433
H    -3.81826   0.68482   0.38250
H    -3.03383  -0.80163  -0.07665
H     0.67725   1.67952   0.47256
