40
Generated by autodE on: 2022-06-19. E = -1010.530600 Ha. Imaginary frequency = -377.2 cm-1
C     2.89862   1.30239   1.56155
C     2.28304   1.08556   0.21202
O     2.66228   1.66600  -0.79237
C     1.14957   0.09559   0.11740
O     0.86720  -0.53692   1.33118
C     0.16898  -1.70428   1.02090
O    -0.39758  -2.35288   1.88769
C     0.27453  -1.84979  -0.40058
C    -0.10630  -3.05023  -1.18723
C    -1.41078  -0.21698  -0.39365
N    -2.42424  -0.54844   0.48169
C    -3.18024  -1.76375   0.22360
C    -2.43370   0.00477   1.76363
C    -1.69097   1.07429   2.08682
C    -0.83816   1.78220   1.07122
C    -0.54153   0.92886  -0.17752
C    -0.30524   1.70721  -1.45279
N    -0.01891   3.01896  -1.32130
O    -0.37967   1.17641  -2.56903
N     1.22041  -0.93018  -0.82293
C     1.75839  -0.90019  -2.17324
H     3.63672   2.11208   1.50143
H     2.13069   1.53308   2.31463
H     3.38868   0.36943   1.88609
H    -0.62882  -2.77562  -2.11710
H    -0.77150  -3.68630  -0.58857
H     0.78142  -3.64337  -1.46544
H    -1.58000  -0.53139  -1.42198
H    -2.63801  -2.66255   0.55979
H    -3.37236  -1.85449  -0.85496
H    -4.14502  -1.71645   0.74664
H    -3.10279  -0.48499   2.47292
H    -1.75845   1.48892   3.09421
H     0.09878   2.13297   1.53497
H    -1.36266   2.70487   0.76049
H     0.19059   3.43687  -0.42314
H     0.25036   3.53046  -2.15599
H     0.95293  -0.90854  -2.91794
H     2.35193   0.00744  -2.30672
H     2.40182  -1.77939  -2.32853
