20
Generated by autodE on: 2022-06-18. E = -457.715341 Ha
C     3.02763   0.07322   0.95656
N     1.73859   0.42876   0.38594
C     1.64485   1.53255  -0.47124
C     0.51548   1.85024  -1.12377
C    -0.76023   1.05408  -0.99990
C    -0.55143  -0.14301  -0.08719
C    -1.63886  -1.09820   0.18025
N    -2.82076  -0.84037  -0.43396
O    -1.51243  -2.09530   0.91974
C     0.64511  -0.37327   0.52292
H     3.72302  -0.30299   0.18663
H     2.88802  -0.70888   1.71355
H     3.48773   0.94847   1.43971
H     2.56072   2.11857  -0.56636
H     0.51883   2.73167  -1.76910
H    -1.10603   0.73131  -2.00310
H    -1.57850   1.70145  -0.62208
H    -3.60004  -1.46883  -0.27237
H    -2.96343  -0.03387  -1.02831
H     0.76658  -1.24189   1.17209
