18
Generated by autodE on: 2022-06-18. E = -534.526640 Ha
C     4.05078   0.05092  -0.09363
O     2.85606   0.66185  -0.59380
C     1.69197   0.15387  -0.14744
O     1.61790  -0.78030   0.64458
C     0.56753   0.85133  -0.72289
O    -0.66806   0.53522  -0.44301
C    -1.21036  -0.36907   0.32580
C    -2.65655  -0.40613   0.37303
C    -3.43141   0.58527  -0.45831
O    -3.20948  -1.24698   1.09052
H     4.08359  -1.01575  -0.36130
H     4.10990   0.15138   1.00049
H     4.88421   0.58364  -0.56615
H     0.66840   1.67841  -1.42284
H    -0.57791  -1.04929   0.89376
H    -4.50580   0.42208  -0.30451
H    -3.18741   0.46880  -1.52636
H    -3.16835   1.61734  -0.17679
