18
Generated by autodE on: 2022-07-27. E = -534.520470 Ha
C     1.20228  -2.78704   2.32012
O     0.69773  -1.64249   1.62146
C     0.74188  -1.69627   0.28008
O     1.17655  -2.65159  -0.34997
C     0.22473  -0.50969  -0.37396
O    -0.21031   0.45465   0.37991
C    -0.73088   1.64246   0.22384
C    -1.01962   2.34550  -1.01192
C    -0.71073   1.73246  -2.35053
O    -1.52817   3.46959  -0.91468
H     2.26686  -2.94358   2.09072
H     1.07499  -2.57024   3.38721
H     0.63623  -3.69012   2.04768
H     0.21240  -0.44859  -1.45953
H    -0.96264   2.12532   1.17410
H    -1.26973   0.79176  -2.48692
H     0.36295   1.49665  -2.43608
H    -0.99321   2.44129  -3.13952
