28
Generated by autodE on: 2022-06-16. E = -483.413308 Ha
C    -1.69187   1.89347   1.29706
C    -1.23051   1.22332   0.02977
O    -1.26801   1.81709  -1.03835
C    -0.73953  -0.23306   0.10396
C    -1.76218  -1.05937   0.89520
N    -0.56964  -0.77337  -1.26396
C     0.87062  -0.92959  -1.52516
C     1.59158  -0.03328  -0.51746
C     3.07710  -0.32184  -0.34867
C     0.70300  -0.19950   0.73735
C     1.04161  -1.43141   1.57706
H    -2.74739   1.61766   1.46194
H    -1.63630   2.98408   1.18035
H    -1.12713   1.56921   2.18094
H    -2.75781  -0.97092   0.43260
H    -1.84001  -0.74131   1.94449
H    -1.47792  -2.11986   0.87621
H    -0.91402  -0.04511  -1.88985
H     1.10319  -0.67191  -2.56937
H     1.18316  -1.97976  -1.37812
H     1.47539   1.00967  -0.85944
H     3.26203  -1.37579  -0.08810
H     3.52424   0.30487   0.44002
H     3.61880  -0.11417  -1.28581
H     0.80568   0.68162   1.38931
H     0.98255  -2.36474   0.99584
H     0.36398  -1.52744   2.43751
H     2.06309  -1.34862   1.97746
