12
Generated by autodE on: 2022-06-16. E = -157.299004 Ha
C     1.58396  -0.55959   0.03546
C     0.67198   0.63030   0.06784
C    -0.66924   0.63677   0.00859
C    -1.58636  -0.54443  -0.10207
H     2.28152  -0.49563  -0.81844
H     1.04354  -1.51402  -0.03976
H     2.21350  -0.59565   0.94212
H     1.17613   1.60179   0.14841
H    -1.16921   1.61304   0.04579
H    -1.05011  -1.50340  -0.14012
H    -2.28513  -0.57921   0.75251
H    -2.21435  -0.46983  -1.00745
