16
Generated by autodE on: 2022-06-16. E = -326.054578 Ha
C     2.58263  -0.09475  -0.00663
N     1.32580  -0.07185  -0.36592
C     0.17990   0.01536   0.37169
C     0.29756   0.10011   1.85306
C    -1.00504   0.01113  -0.41992
C    -2.34725   0.10839   0.27368
O    -0.95645  -0.06955  -1.67679
H     2.85178  -0.03834   1.04765
H     3.33998  -0.17034  -0.78559
H     1.09940  -0.12627  -1.37043
H     0.88189   0.98687   2.16622
H     0.82295  -0.78054   2.27062
H    -0.68709   0.16118   2.33186
H    -2.49971  -0.73366   0.96799
H    -3.14419   0.09820  -0.48185
H    -2.42484   1.03433   0.86598
