28
Generated by autodE on: 2022-06-16. E = -483.338816 Ha. Imaginary frequency = -402.4 cm-1
C    -2.23553   1.20680   1.57047
C    -1.52476   1.18723   0.23642
O    -1.35110   2.25788  -0.39410
C    -1.01959  -0.06256  -0.26305
C    -1.35223  -1.40619   0.30532
N    -0.45825   0.02518  -1.50996
C     0.54803  -0.76651  -1.91115
C     2.04345  -0.31003  -0.42497
C     2.82149  -1.60679  -0.40852
C     1.34654   0.15023   0.69143
C     1.22392  -0.61749   1.97292
H    -3.15296   0.59688   1.53903
H    -2.49852   2.24239   1.82397
H    -1.59847   0.79093   2.36752
H    -2.21227  -1.86159  -0.22160
H    -1.61412  -1.33556   1.36740
H    -0.51413  -2.11351   0.22629
H    -0.44531   0.99393  -1.84022
H     1.01203  -0.51653  -2.86772
H     0.49554  -1.82493  -1.65593
H     2.44595   0.46409  -1.08655
H     2.23789  -2.43272   0.02689
H     3.74597  -1.51384   0.19008
H     3.11862  -1.91017  -1.42474
H     1.12152   1.21848   0.73944
H     1.03878  -1.68947   1.80484
H     0.41476  -0.22820   2.60851
H     2.15882  -0.55330   2.56352
