19
Generated by autodE on: 2022-06-12. E = -568.848818 Ha
C     4.22659   1.36981   0.81572
N     3.42463   0.33461   0.19616
C     2.09516   0.48071   0.02293
O     1.46997   1.48618   0.38462
C     1.42810  -0.66437  -0.64059
N     0.16326  -0.60107  -0.83523
C    -1.00538  -0.38184  -1.05226
C    -2.23046  -0.74253  -0.34276
O    -2.79557  -1.80666  -0.49984
O    -2.67028   0.26978   0.40344
C    -3.92076   0.06770   1.08761
H     4.22248   2.29630   0.21832
H     5.25979   1.01330   0.90481
H     3.84836   1.61549   1.82051
H     3.87847  -0.50597  -0.14662
H     1.97411  -1.55184  -0.97262
H    -3.83960  -0.76768   1.79744
H    -4.12103   1.00243   1.62312
H    -4.72244  -0.13741   0.36396
