17
Generated by autodE on: 2022-10-21. E = -472.479142 Ha
C     2.60998   0.42041   1.13072
N     1.88950  -0.64398   1.80634
C     0.79824  -1.25662   1.32017
O     0.12882  -2.10917   1.90838
C     0.43810  -0.92080  -0.07516
N    -0.41504  -0.21809  -0.55606
C    -1.32481   0.47475  -1.16211
C    -2.71382  -0.06022  -1.38888
C    -0.97198   1.77812  -1.61040
N    -0.72052   2.85214  -1.99049
H     2.17273   1.41224   1.32936
H     3.65471   0.42199   1.46731
H     2.60333   0.24897   0.04382
H     2.12287  -0.86516   2.77207
H    -2.95703  -0.06066  -2.46337
H    -3.46030   0.56339  -0.87121
H    -2.78438  -1.08710  -1.00596
