8
Generated by autodE on: 2022-10-21. E = -651.547896 Ha
C    -2.81275   0.55426   0.38217
O    -1.95889  -0.23481  -0.48302
C    -0.68385  -0.15592  -0.25730
C     0.51384  -0.11100  -0.08096
Cl    2.15294  -0.05448   0.15329
H    -3.83926   0.36390   0.04836
H    -2.56683   1.62120   0.27701
H    -2.68368   0.23420   1.42657
