40
Generated by autodE on: 2022-05-30. E = -1159.834087 Ha
N    -0.60712  -3.12273   2.48533
C    -0.57704  -2.71863   1.39877
C    -0.45670  -2.15170   0.02663
C    -0.74403  -3.23354  -0.93532
N    -0.95653  -4.07920  -1.69830
N     0.85560  -1.58612  -0.22410
C     0.91323  -0.26308   0.40341
C     2.04115   0.59093  -0.13784
C     2.51062   1.66248   0.63790
C     3.52434   2.49645   0.16263
C     4.09628   2.26157  -1.09245
C     3.64946   1.18389  -1.86150
C     2.62868   0.35392  -1.38729
C    -0.54503   0.30964   0.21483
C    -0.99062   1.00258   1.50277
F    -0.67090   0.29750   2.60947
F    -2.32436   1.18456   1.57170
F    -0.42323   2.21759   1.63550
C    -0.71017   1.18600  -1.06748
C    -2.13659   1.76366  -1.18769
C    -3.01058   0.49324  -1.40613
C    -1.96075  -0.63706  -1.53264
C    -0.77469   0.10758  -2.16981
C    -1.44148  -0.93878  -0.10996
H     1.60998  -2.19648   0.08970
H     1.08629  -0.36366   1.48599
H     2.07515   1.84604   1.62213
H     3.87499   3.32829   0.77825
H     4.89259   2.91081  -1.46418
H     4.09776   0.98426  -2.83784
H     2.29154  -0.48986  -1.98896
H     0.08264   1.93635  -1.16057
H    -2.45280   2.37597  -0.33650
H    -2.16170   2.41083  -2.07636
H    -3.59975   0.56512  -2.33136
H    -3.71085   0.31176  -0.57820
H    -2.32944  -1.52734  -2.05685
H    -1.02439   0.54254  -3.14855
H     0.12618  -0.50447  -2.26804
H    -2.27284  -1.08057   0.58884
