20
Generated by autodE on: 2022-07-26. E = -549.728886 Ha
N    -2.72151  -1.05297   2.70228
C    -2.11851  -1.40308   1.76153
C    -1.38686  -1.80448   0.63382
C    -1.55049  -3.08306   0.07908
N    -1.69598  -4.15288  -0.37529
N    -0.47812  -0.92423   0.04454
C    -0.18161   0.29694   0.40118
C     0.77560   1.14581  -0.27192
C     0.98178   2.43567   0.26348
C     1.88861   3.31210  -0.32897
C     2.60329   2.91745  -1.46435
C     2.40593   1.63956  -2.00552
C     1.50231   0.75822  -1.41995
H     0.00432  -1.31482  -0.76953
H    -0.70464   0.69257   1.27509
H     0.42124   2.73883   1.15073
H     2.03865   4.30685   0.09603
H     3.31447   3.60328  -1.93003
H     2.96256   1.33030  -2.89273
H     1.36682  -0.23125  -1.86328
