20
Generated by autodE on: 2022-05-30. E = -549.728876 Ha
N     3.36529  -1.36524  -1.64778
C     2.90649  -0.59431  -0.89525
C     2.33968   0.32273   0.00270
C     3.13884   1.22420   0.72223
N     3.81560   1.97218   1.31772
N     0.95776   0.35045   0.19362
C     0.03972  -0.38199  -0.37880
C    -1.37714  -0.28953  -0.10511
C    -1.94172   0.60926   0.82754
C    -3.31777   0.63043   1.03305
C    -4.15564  -0.23734   0.31912
C    -3.60788  -1.13063  -0.60692
C    -2.23090  -1.15826  -0.81857
H     0.65217   1.04430   0.88119
H     0.38299  -1.11496  -1.11282
H    -1.31293   1.29702   1.39796
H    -3.74371   1.32864   1.75671
H    -5.23461  -0.21507   0.48734
H    -4.25647  -1.80866  -1.16570
H    -1.79794  -1.85460  -1.54026
