23
Generated by autodE on: 2022-05-31. E = -3112.268675 Ha
Br    0.75220  -1.99880   0.78097
C     0.97051  -0.42915  -0.22235
C     0.09951   0.54629  -0.54942
C    -1.32165   0.75862  -0.30458
C    -2.21235  -0.30914  -0.06381
C    -3.56358  -0.06743   0.17962
C    -4.05865   1.24174   0.19244
C    -3.18909   2.30942  -0.04977
C    -1.83743   2.07211  -0.30280
C     1.03540   1.62638  -1.18077
C     1.88553   2.22123  -0.03764
C     2.72682   1.24215   0.30731
C     2.37218   0.07132  -0.63961
O     2.01054   0.78888  -1.82745
H    -1.84610  -1.33532  -0.08250
H    -4.23749  -0.90884   0.35751
H    -5.11779   1.42728   0.38531
H    -3.56511   3.33515  -0.04455
H    -1.17220   2.91775  -0.48691
H     0.56380   2.32210  -1.88204
H     1.74482   3.20944   0.39863
H     3.46790   1.20124   1.10470
H     3.13576  -0.69249  -0.82069
