15
Generated by autodE on: 2022-05-31. E = -400.074768 Ha
C     3.28037  -1.34630  -0.40527
C     2.21088  -0.39225  -0.22504
N     1.34460   0.37358  -0.08800
C     0.31415   1.21872   0.07153
C    -1.01919   0.73733   0.15047
O    -2.02611   1.43656   0.30058
O    -1.10974  -0.62762   0.04310
C    -2.42085  -1.17997   0.12051
H     3.97770  -1.32445   0.44721
H     2.82939  -2.35050  -0.46397
H     3.82729  -1.15220  -1.34166
H     0.53494   2.28247   0.13965
H    -2.89830  -0.94765   1.08537
H    -2.30211  -2.26674   0.02149
H    -3.06352  -0.80412  -0.69108
