56
Generated by autodE on: 2022-06-23. E = -1246.130908 Ha
C    -2.83024  -0.82216  -2.33008
C    -1.35610  -0.55952  -2.17697
O    -0.60547  -0.69842  -3.12845
C    -0.79683  -0.17454  -0.76894
C    -1.83103   0.62361   0.02686
C    -2.40157   1.78657  -0.51467
C    -3.30289   2.55388   0.22597
C    -3.65989   2.16425   1.52095
C    -3.11714   0.99438   2.05973
C    -2.21249   0.23139   1.31578
C     0.58198   0.57239  -0.91902
C     1.41045   0.07942   0.27562
C     1.10745   0.84098   1.57625
C     0.87083   2.31056   1.33478
C     0.84383   3.28488   2.43024
N     1.02361   2.79157   3.68456
O     0.66652   4.51097   2.26140
C     0.62941   2.77675   0.07298
N     0.54657   2.00818  -1.03763
C     0.39238   2.58392  -2.36005
C     1.00945  -1.40567   0.35715
C     1.95348  -2.32851  -0.40243
C     3.03994  -2.89823   0.27932
C     3.95535  -3.71834  -0.38473
C     3.79099  -3.99067  -1.74738
C     2.70679  -3.43567  -2.43361
C     1.79439  -2.61103  -1.76653
N    -0.37356  -1.39688  -0.09703
C    -1.13246  -2.62014  -0.13821
H    -2.98126  -1.57941  -3.11170
H    -3.31404  -1.12149  -1.39268
H    -3.31248   0.11204  -2.66234
H    -2.14621   2.10121  -1.52727
H    -3.72728   3.46122  -0.21063
H    -4.36239   2.76556   2.10303
H    -3.39682   0.67315   3.06614
H    -1.78245  -0.67598   1.73992
H     1.02782   0.17556  -1.83878
H     2.47702   0.18645   0.03637
H     1.96217   0.69425   2.25781
H     0.23871   0.38755   2.08133
H     0.96402   3.43242   4.46775
H     1.10071   1.80085   3.87513
H     0.49265   3.84836  -0.08461
H     0.28602   3.67322  -2.27634
H    -0.49792   2.18548  -2.87160
H     1.26873   2.36269  -2.99318
H     1.04333  -1.72632   1.41477
H     3.16582  -2.69444   1.34665
H     4.79577  -4.15185   0.16329
H     4.50144  -4.63647  -2.26920
H     2.56709  -3.64646  -3.49697
H     0.95386  -2.18241  -2.31204
H    -2.19951  -2.43263   0.06128
H    -0.76912  -3.29399   0.65353
H    -1.05945  -3.17254  -1.09761
