36
Generated by autodE on: 2022-06-23. E = -788.358320 Ha
C    -2.49193   1.72683   2.13843
C    -1.12545   1.45580   1.52084
O    -0.15321   2.13399   1.96102
C    -1.04275   0.46752   0.50408
C    -2.26368  -0.27016   0.07308
C    -3.28448   0.37831  -0.64454
C    -4.44516  -0.30304  -1.01982
C    -4.60322  -1.65337  -0.69224
C    -3.59544  -2.31439   0.01807
C    -2.44136  -1.62721   0.40099
N     0.17673   0.10469  -0.10259
C     0.08292  -0.78184  -1.28295
C     1.36142   0.56385   0.27469
C     2.68004   0.19780  -0.21391
C     3.68592   1.18352  -0.06449
C     4.99893   0.94062  -0.45842
C     5.35356  -0.30498  -0.98973
C     4.38199  -1.30403  -1.10991
C     3.06216  -1.06376  -0.72817
H    -3.09498   2.38077   1.48784
H    -3.07502   0.81189   2.31308
H    -2.33425   2.24862   3.09292
H    -3.15894   1.42980  -0.91262
H    -5.22638   0.22074  -1.57625
H    -5.50867  -2.18876  -0.98800
H    -3.71299  -3.36812   0.28293
H    -1.66383  -2.14494   0.96791
H     0.93657  -0.59541  -1.93963
H    -0.83880  -0.55194  -1.82407
H     0.06600  -1.83611  -0.98242
H     1.30465   1.32775   1.04840
H     3.41432   2.15319   0.35933
H     5.75204   1.72401  -0.34601
H     6.38402  -0.50039  -1.29497
H     4.65585  -2.28824  -1.49713
H     2.34097  -1.87622  -0.79662
