20
Generated by autodE on: 2022-06-23. E = -457.715296 Ha
C    -3.11712  -0.62274   0.02913
N    -1.82895   0.05098   0.01753
C    -1.78077   1.45032   0.04861
C    -0.62657   2.13590   0.05160
C     0.72773   1.47130   0.02293
C     0.57598  -0.04109  -0.00815
C     1.74945  -0.92834  -0.03969
N     2.96070  -0.31674  -0.03157
O     1.67009  -2.17337  -0.07279
C    -0.65169  -0.63360  -0.00841
H    -2.95794  -1.70748  -0.00855
H    -3.72570  -0.32692  -0.84073
H    -3.68232  -0.38249   0.94449
H    -2.75438   1.94342   0.06969
H    -0.67089   3.22715   0.07566
H     1.30868   1.82884  -0.85219
H     1.32729   1.79141   0.89994
H     3.06739   0.68898  -0.00079
H     3.79510  -0.89278  -0.05023
H    -0.73061  -1.72165  -0.03092
