66
Generated by autodE on: 2022-06-15. E = -2510.955401 Ha
C    -1.40533  -6.50392  26.52068
N    -1.85920  -5.56970  25.50727
C    -0.98051  -4.84298  24.79302
O     0.21787  -4.79230  25.05588
C    -1.61050  -4.07515  23.57955
C    -2.21677  -2.70520  23.96385
O    -2.53265  -1.88921  23.09732
N    -2.47629  -2.50967  25.26336
C    -3.04340  -1.25913  25.73011
C    -0.55370  -4.08301  22.42124
C    -0.79654  -5.23886  21.74780
N    -1.94277  -5.89776  22.33561
C    -1.91855  -7.19315  22.84499
O    -0.99094  -7.96462  22.72169
O    -3.07384  -7.48967  23.44750
C    -3.14574  -8.78235  24.06494
N    -2.69178  -4.93808  23.06064
C    -3.73750  -4.35969  22.21514
C    -0.26144  -5.80074  20.42676
C    -1.40500  -6.51944  19.62890
F    -1.88310  -7.64085  20.18146
F    -0.96465  -6.85734  18.40472
F    -2.45730  -5.70358  19.45870
C     0.93666  -6.81840  20.63179
F     1.32342  -6.90644  21.90436
F     2.02365  -6.44992  19.93090
F     0.63478  -8.06070  20.21996
C     0.23947  -4.64908  19.51290
C    -0.72542  -3.47062  19.28059
C    -0.09017  -2.14681  19.68558
C    -0.05161  -1.86831  21.19428
C     0.46196  -2.94833  22.18503
Cl    0.58837  -1.96066  23.80629
C     1.90847  -3.39098  21.99423
C     2.41391  -4.47891  22.72002
C     3.74448  -4.87445  22.58163
C     4.60385  -4.17500  21.72980
C     4.12237  -3.06129  21.03674
C     2.78959  -2.66633  21.17476
H    -0.74015  -7.26739  26.08399
H    -0.85120  -5.98035  27.31339
H    -2.27807  -6.99855  26.96365
H    -2.77242  -5.70667  25.07925
H    -2.23013  -3.22025  25.94333
H    -3.17169  -1.31291  26.81761
H    -4.02147  -1.06851  25.26241
H    -2.37846  -0.41480  25.48765
H    -4.13678  -8.83458  24.53001
H    -3.03707  -9.57556  23.31164
H    -2.36288  -8.88871  24.82907
H    -3.34592  -3.78129  21.36309
H    -4.38223  -3.71391  22.82324
H    -4.34219  -5.19670  21.84296
H     0.53565  -5.09333  18.55586
H     1.16939  -4.28611  19.95626
H    -1.66817  -3.59472  19.82728
H    -0.99553  -3.43849  18.21494
H    -0.66537  -1.31649  19.24500
H     0.91717  -2.08251  19.24558
H    -1.06360  -1.62297  21.53258
H     0.55991  -0.97125  21.36153
H     1.75785  -5.00981  23.40554
H     4.11043  -5.73630  23.14463
H     5.64438  -4.48793  21.61552
H     4.78613  -2.49118  20.38257
H     2.44824  -1.78616  20.63352
