30
Generated by autodE on: 2022-07-27. E = -833.573770 Ha
C     2.49784  -0.85926   2.17252
N     1.34113  -0.13280   1.68379
C     1.08591  -0.03372   0.36992
O     1.84363  -0.44696  -0.51087
C    -0.16116   0.72885   0.02113
C    -0.50144   1.95785   0.82905
O    -1.53643   1.99380   1.49960
N     0.40147   2.94649   0.78860
C     0.24179   4.15479   1.57804
N    -0.92415   0.39769  -0.99545
C    -1.97805   1.32442  -1.46062
N    -0.87070  -0.71626  -1.73023
C    -0.56463  -1.87115  -1.08319
O    -0.53425  -2.09036   0.12702
O    -0.36153  -2.85137  -1.99378
C    -0.11254  -4.15556  -1.46769
H     2.58787  -0.69873   3.25348
H     3.41201  -0.50018   1.67882
H     2.40172  -1.93997   1.97614
H     0.61869   0.13996   2.34444
H     1.23234   2.83174   0.21516
H    -0.70174   4.66380   1.32906
H     0.23368   3.92401   2.65497
H     1.07877   4.82926   1.36347
H    -1.67881   2.36523  -1.30081
H    -2.90338   1.10319  -0.91320
H    -2.12082   1.12937  -2.52746
H     0.77735  -4.15520  -0.82027
H     0.05712  -4.80572  -2.33489
H    -0.97592  -4.52153  -0.89132
