30
Generated by autodE on: 2022-06-15. E = -833.573737 Ha
C    -3.79793   2.32066  -0.09986
N    -2.70110   1.41732  -0.39914
C    -1.47576   1.61149   0.10552
O    -1.16803   2.56168   0.82973
C    -0.45927   0.54589  -0.22504
C    -0.72118  -0.85850   0.24283
O    -0.54826  -1.81867  -0.51120
N    -1.23958  -0.95850   1.47687
C    -1.51285  -2.25219   2.07396
N     0.58196   0.85804  -0.96174
C     0.65091   2.18306  -1.61480
N     1.64490   0.09932  -1.24343
C     2.09683  -0.72396  -0.26181
O     1.80265  -0.73165   0.93289
O     3.04285  -1.54666  -0.77164
C     3.68106  -2.42333   0.15775
H    -4.01981   2.32727   0.97895
H    -3.55288   3.34901  -0.40600
H    -4.68810   1.98760  -0.64592
H    -2.86966   0.60279  -0.98299
H    -1.23810  -0.13650   2.07468
H    -2.13559  -2.85997   1.40238
H    -2.04772  -2.10139   3.01927
H    -0.57940  -2.80436   2.27316
H     1.13156   2.88800  -0.92438
H     1.26551   2.06147  -2.51136
H    -0.35023   2.53416  -1.88478
H     4.38884  -3.02348  -0.42742
H     4.22306  -1.85591   0.92962
H     2.94629  -3.08161   0.64558
