36
Generated by autodE on: 2022-06-15. E = -1677.324188 Ha
F    -1.20273   2.11562   1.68351
C    -2.10613   1.76905   0.75648
F    -1.94684   2.60076  -0.28195
F    -3.32126   1.99440   1.27420
C    -1.92715   0.28715   0.34235
C    -3.03537  -0.12182  -0.65840
F    -4.24780  -0.10896  -0.09109
F    -2.81295  -1.36427  -1.10932
F    -3.07476   0.68813  -1.72512
C    -0.61388   0.10592  -0.26912
C     0.53252  -0.26160  -0.38273
C     1.77050  -0.96355  -0.08455
Cl    1.70037  -2.55488  -1.08083
C     3.04800  -0.23995  -0.45422
C     4.29203  -0.84533  -0.21541
C     5.47359  -0.16698  -0.51300
C     5.42858   1.12449  -1.05248
C     4.19378   1.72954  -1.29469
C     3.00794   1.04960  -0.99781
C     1.69732  -1.34380   1.41796
C     0.34227  -1.87519   1.92234
C    -0.69851  -0.82860   2.41269
C    -1.99407  -0.65576   1.59537
H     4.33585  -1.85806   0.18920
H     6.43571  -0.64936  -0.32569
H     6.35522   1.65408  -1.28573
H     4.14764   2.73554  -1.71803
H     2.04515   1.52855  -1.18745
H     2.48970  -2.08257   1.60510
H     1.97221  -0.43416   1.97706
H     0.57266  -2.53342   2.77338
H    -0.10014  -2.53177   1.15564
H    -1.03595  -1.14233   3.41200
H    -0.21140   0.14549   2.56249
H    -2.31751  -1.64291   1.23647
H    -2.79709  -0.27784   2.24442
