66
Generated by autodE on: 2022-06-15. E = -2510.868624 Ha. Imaginary frequency = -275.1 cm-1
C     0.04257  -6.85116  26.08833
N    -0.82582  -5.89013  25.43418
C    -0.80973  -5.73693  24.09912
O    -0.04478  -6.38151  23.38408
C    -1.84828  -4.72159  23.57369
C    -2.14103  -3.53882  24.48565
O    -3.28477  -3.14214  24.71508
N    -1.06115  -2.98478  25.06589
C    -1.17237  -1.75502  25.82251
C    -0.75377  -4.06514  21.55524
C    -1.08013  -4.99450  20.77687
N    -2.53786  -6.13978  21.89726
C    -2.24876  -7.40548  22.34482
O    -1.70477  -8.27830  21.69834
O    -2.75253  -7.62969  23.58796
C    -2.48077  -8.91654  24.14689
N    -2.83480  -5.19056  22.78280
C    -3.98011  -4.35684  22.37045
C    -1.04032  -5.45503  19.34957
C    -2.42761  -5.97803  18.86359
F    -2.41349  -6.20249  17.53298
F    -3.36664  -5.04616  19.09865
F    -2.83354  -7.11622  19.41806
C     0.04385  -6.54589  19.11076
F     1.17071  -6.24539  19.77715
F     0.35761  -6.62205  17.80294
F    -0.31496  -7.77361  19.47981
C    -0.72156  -4.22190  18.42776
C     0.70754  -3.67153  18.35149
C     1.33525  -3.10282  19.62598
C     0.40090  -2.14594  20.37754
C    -0.11903  -2.73371  21.70983
Cl   -1.49895  -1.54784  22.20296
C     0.99019  -2.69034  22.75377
C     1.72432  -3.84988  23.03625
C     2.78003  -3.81596  23.95388
C     3.12089  -2.62106  24.58972
C     2.40809  -1.45382  24.29090
C     1.35606  -1.48604  23.37574
H    -0.24904  -7.88583  25.84755
H     1.08476  -6.70363  25.76957
H    -0.02589  -6.70424  27.17292
H    -1.50341  -5.39074  25.99937
H    -0.13407  -3.27465  24.77314
H    -0.19229  -1.51581  26.25143
H    -1.90489  -1.86394  26.63542
H    -1.49448  -0.92173  25.17571
H    -1.40017  -9.11885  24.15036
H    -2.86160  -8.88517  25.17493
H    -2.99625  -9.70634  23.58013
H    -3.63787  -3.35750  22.07210
H    -4.68933  -4.26633  23.19779
H    -4.43850  -4.87045  21.52162
H    -1.41735  -3.43127  18.73587
H    -1.00192  -4.50181  17.40565
H     0.64826  -2.85874  17.60814
H     1.38325  -4.42107  17.91537
H     2.25544  -2.57023  19.34192
H     1.65810  -3.91885  20.28646
H    -0.46492  -1.88348  19.75514
H     0.90770  -1.20317  20.62397
H     1.45525  -4.79021  22.55909
H     3.33072  -4.73390  24.17191
H     3.93838  -2.59566  25.31387
H     2.66767  -0.51211  24.77983
H     0.79462  -0.57539  23.16474
