49
Generated by autodE on: 2022-06-21. E = -983.835648 Ha
C     2.73384   0.31968   3.04517
C     2.98175   0.59242   1.58950
O     4.01356   1.11072   1.18959
C     1.89563   0.22229   0.61206
N     0.72004  -0.01245   1.04959
C    -0.20941  -0.24888  -0.07129
C    -1.01965   1.05373  -0.29059
C    -2.06460   1.10462  -1.22885
C    -2.80265   2.27311  -1.42622
C    -2.52609   3.42116  -0.67739
C    -1.50327   3.38032   0.27130
C    -0.76050   2.21040   0.46153
C    -1.22006  -1.33171   0.34990
C    -1.42213  -1.61268   1.70991
C    -2.37920  -2.54570   2.12204
C    -3.16036  -3.21946   1.18116
C    -2.97147  -2.94814  -0.17733
C    -2.01492  -2.01631  -0.58586
C     0.77326  -0.64050  -1.28074
C     0.29443  -0.30691  -2.69288
C     1.06928  -2.14984  -1.21737
C     2.08060   0.17162  -0.89419
C     2.10063   1.60976  -1.45798
C     3.38973  -0.51276  -1.31810
H     1.85331   0.88403   3.38816
H     3.61652   0.60970   3.62931
H     2.50834  -0.74697   3.19923
H    -2.31626   0.22728  -1.82051
H    -3.60271   2.28233  -2.17048
H    -3.10565   4.33467  -0.82979
H    -1.27493   4.26377   0.87263
H     0.03515   2.20760   1.20481
H    -0.82218  -1.09158   2.45363
H    -2.51229  -2.74329   3.18872
H    -3.90826  -3.94887   1.50104
H    -3.57003  -3.46689  -0.93007
H    -1.88861  -1.83727  -1.65252
H     0.00970   0.74408  -2.81663
H    -0.56586  -0.92671  -2.98302
H     1.10462  -0.52259  -3.40774
H     1.83241  -2.42111  -1.95859
H     1.42835  -2.46193  -0.22535
H     0.17470  -2.73899  -1.44806
H     2.29925   1.58805  -2.53973
H     1.15842   2.14477  -1.29073
H     2.90754   2.18173  -0.97830
H     3.58464  -1.44026  -0.76277
H     4.23977   0.16123  -1.15097
H     3.35623  -0.75355  -2.39177
