18
Generated by autodE on: 2022-06-21. E = -235.968092 Ha
C    -1.51075   0.21627  -1.24702
C    -0.67703   0.00244  -0.00649
C    -1.53601  -0.20583   1.21762
C     0.67697  -0.00230   0.00659
C     1.51094  -0.19531   1.25034
C     1.53584   0.18480  -1.22100
H    -2.12924  -0.67522  -1.45673
H    -0.92903   0.44194  -2.14884
H    -2.22145   1.04711  -1.08933
H    -2.15361   0.68916   1.41456
H    -2.24800  -1.03295   1.04668
H    -0.97326  -0.43395   2.13077
H     2.12612  -1.10951   1.16641
H     0.92984  -0.26472   2.17775
H     2.22472   0.64019   1.36316
H     2.24524  -0.65607  -1.32079
H     2.15624   1.09427  -1.12494
H     0.97281   0.25905  -2.15910
