49
Generated by autodE on: 2022-06-21. E = -983.751077 Ha. Imaginary frequency = -387.2 cm-1
C     3.04639  -0.12594   2.98892
C     2.60405   0.89026   1.97577
O     3.07645   2.01982   1.88199
C     1.59384   0.44452   1.00681
N     0.38239   0.31911   1.11453
C    -0.69316   0.05022   0.35696
C    -1.35833   1.22110  -0.24531
C    -2.68962   1.18997  -0.71235
C    -3.27089   2.30915  -1.31189
C    -2.55154   3.49880  -1.44990
C    -1.24213   3.55971  -0.95838
C    -0.65829   2.44582  -0.36067
C    -1.31264  -1.26734   0.56573
C    -0.97897  -2.02543   1.71010
C    -1.48183  -3.31280   1.89612
C    -2.33389  -3.88478   0.94569
C    -2.66266  -3.15336  -0.20012
C    -2.15948  -1.86665  -0.39273
C     1.09951  -0.62373  -1.57266
C     0.32913   0.08336  -2.65486
C     0.90802  -2.11558  -1.50879
C     2.23928  -0.05330  -0.98121
C     2.72153   1.30909  -1.44542
C     3.37240  -0.96983  -0.54676
H     3.85597   0.28876   3.60462
H     3.38486  -1.04250   2.48113
H     2.18957  -0.40535   3.62444
H    -3.29361   0.29388  -0.59095
H    -4.30354   2.24862  -1.66406
H    -3.00902   4.37278  -1.91890
H    -0.66938   4.48698  -1.03636
H     0.35574   2.53052   0.02890
H    -0.32604  -1.58787   2.46720
H    -1.21070  -3.87052   2.79595
H    -2.73218  -4.89116   1.09313
H    -3.30837  -3.59344  -0.96397
H    -2.38846  -1.34738  -1.32143
H     0.26458   1.16885  -2.50811
H    -0.69749  -0.30515  -2.74065
H     0.81573  -0.07788  -3.63851
H     1.63732  -2.63459  -2.16162
H     1.04827  -2.51956  -0.49415
H    -0.09350  -2.41005  -1.84877
H     3.24769   1.21132  -2.41340
H     1.90300   2.02538  -1.58817
H     3.43181   1.74663  -0.72898
H     3.03182  -1.81800   0.06235
H     4.13004  -0.41921   0.03145
H     3.87981  -1.38709  -1.43634
