20
Generated by autodE on: 2022-06-22. E = -457.715311 Ha
C     3.06706   0.81054  -0.18397
N     1.82836   0.06069  -0.05571
C     1.86476  -1.33927  -0.07770
C     0.75534  -2.09386  -0.03431
C    -0.63481  -1.51255   0.04514
C    -0.57629   0.00625   0.03258
C    -1.80135   0.82025   0.07954
N    -2.97104   0.13549   0.14399
O    -1.79921   2.06794   0.06056
C     0.61171   0.67253  -0.01756
H     3.53002   0.65678  -1.17332
H     2.85947   1.88049  -0.05762
H     3.78988   0.50118   0.58707
H     2.86566  -1.77148  -0.13154
H     0.86524  -3.18060  -0.05096
H    -1.25494  -1.89155  -0.79290
H    -1.14907  -1.88214   0.95648
H    -3.01414  -0.87492   0.17759
H    -3.83827   0.65958   0.18512
H     0.62342   1.76357  -0.02548
