29
Generated by autodE on: 2022-06-22. E = -704.905737 Ha
C    -5.02066   1.32303   0.47952
N    -4.03879   0.47695  -0.16894
C    -2.73164   0.56636   0.13164
O    -2.30349   1.37644   0.98148
C    -1.78373  -0.32503  -0.57670
C    -2.12056  -1.29793  -1.64977
N    -0.54505  -0.13025  -0.14956
C     0.66828  -0.67581  -0.41319
C     0.78842  -1.84347  -1.19760
N     0.97609  -2.82159  -1.81161
C     1.87281  -0.07062   0.16608
C     1.84122   1.18373   0.81654
C     2.99744   1.72919   1.37449
C     4.21980   1.05448   1.28962
C     4.26797  -0.18119   0.63544
C     3.11523  -0.73780   0.08362
H    -5.02665   1.16504   1.56990
H    -6.01339   1.08178   0.08137
H    -4.81296   2.38892   0.29462
H    -4.35488  -0.20334  -0.84948
H    -3.14760  -1.16711  -2.01179
H    -2.01503  -2.34086  -1.30678
H    -1.44646  -1.16632  -2.51156
H    -0.54860   0.62347   0.55792
H     0.91753   1.76366   0.88139
H     2.94088   2.70066   1.87146
H     5.12349   1.48903   1.72232
H     5.21363  -0.72295   0.55584
H     3.17470  -1.70716  -0.41489
