49
Generated by autodE on: 2022-06-22. E = -1162.603718 Ha. Imaginary frequency = -364.9 cm-1
C    -2.51584   4.48929   0.03919
N    -1.43256   3.62439  -0.38735
C    -0.90328   2.70857   0.43996
O    -1.27693   2.59277   1.61971
C     0.12226   1.76093  -0.12892
C     0.95314   2.19424  -1.30334
N     0.66997   0.99783   0.86353
C     1.43131  -0.14786   0.63794
C     1.01521  -1.28168   1.35675
N     0.61708  -2.23760   1.90826
C     2.78742  -0.09661   0.08031
C     3.53959   1.09863   0.10663
C     4.83615   1.14173  -0.40634
C     5.42972  -0.00728  -0.94037
C     4.70551  -1.20583  -0.94648
C     3.40461  -1.25208  -0.44729
C    -0.27735  -0.74232  -1.39492
C    -1.13819   0.32207  -1.08349
C    -2.31504   0.06542  -0.15235
C    -2.60383  -1.40859   0.02511
C    -3.81681  -1.87948   0.71916
N    -4.65319  -0.91845   1.18235
O    -4.07586  -3.08628   0.89314
C    -1.71310  -2.34721  -0.38555
N    -0.56504  -2.04690  -1.07290
C     0.37105  -3.11281  -1.40607
H    -2.23809   5.04416   0.94780
H    -2.73404   5.20519  -0.76222
H    -3.42885   3.91200   0.25971
H    -1.14285   3.65016  -1.35782
H     0.32546   2.58096  -2.11680
H     1.53907   1.36302  -1.70833
H     1.65374   2.99010  -1.00225
H     0.05202   0.97051   1.67715
H     3.10398   1.99352   0.55221
H     5.39390   2.08128  -0.37440
H     6.44586   0.02816  -1.33953
H     5.15601  -2.11502  -1.35281
H     2.85065  -2.19096  -0.47410
H     0.51827  -0.62228  -2.13036
H    -1.28489   1.04885  -1.88435
H    -2.12702   0.51509   0.84136
H    -3.20196   0.59458  -0.53941
H    -5.48709  -1.20243   1.68483
H    -4.45627   0.06991   1.09025
H    -1.89585  -3.40759  -0.21195
H    -0.18647  -4.00839  -1.71365
H     1.01011  -2.79080  -2.23810
H     1.00428  -3.37077  -0.54502
