29
Generated by autodE on: 2022-10-06. E = -1064.944881 Ha
C     4.07408  -1.55981  -0.30178
O     3.01420  -0.99986  -1.08268
C     1.77574  -1.12335  -0.58525
O     1.49267  -1.83519   0.35382
C     0.78162  -0.35176  -1.44409
O    -0.47768  -1.00696  -1.38662
C    -1.49555  -0.10580  -0.97687
C    -2.50611  -0.85451  -0.13233
O    -2.57223  -2.05893  -0.01196
O    -3.40895  -0.00281   0.37408
C    -4.39760  -0.56356   1.24544
C    -0.80878   1.07214  -0.27665
C    -0.66960   0.90123   1.25519
O    -0.78575  -0.25977   1.72996
O    -0.46151   1.95322   1.90817
C     0.54736   1.12319  -1.03294
C     1.67091   1.82050  -0.23220
O     2.26967   1.13419   0.63777
O     1.87398   3.03164  -0.49081
H     4.99892  -1.37352  -0.86064
H     3.92897  -2.64067  -0.16069
H     4.11973  -1.06410   0.67935
H     1.16676  -0.38756  -2.47536
H    -2.04669   0.26643  -1.86252
H    -3.91305  -1.00543   2.12889
H    -5.04504   0.26778   1.54820
H    -4.98690  -1.33342   0.72665
H    -1.35531   2.00734  -0.45081
H     0.39060   1.69997  -1.95388
