19
Generated by autodE on: 2022-10-06. E = -609.785391 Ha
C    -4.22463  -0.44638   0.55339
O    -2.79410  -0.36626   0.56561
C    -2.21345   0.08665  -0.55785
O    -2.83461   0.42250  -1.55735
C    -0.76531   0.14542  -0.49153
O    -0.19767  -0.23024   0.61660
C     1.04774  -0.30474   1.00495
C     2.14388   0.06428   0.14392
O     2.03255   0.47709  -1.00664
O     3.32674  -0.10110   0.76512
C     4.49540   0.23882   0.01078
H    -4.51426  -0.83424   1.53706
H    -4.66818   0.54762   0.39368
H    -4.56902  -1.12836  -0.23815
H    -0.16612   0.48909  -1.33119
H     1.17564  -0.66938   2.02209
H     4.47778   1.30113  -0.27538
H     5.34936   0.04024   0.66887
H     4.56599  -0.37921  -0.89678
