16
Generated by autodE on: 2022-07-26. E = -417.364962 Ha
C    -3.37184  -1.06053  -1.06228
C    -2.29450  -0.04731  -1.07188
N    -1.17743  -0.22084  -0.44742
N    -0.15249   0.65417  -0.40813
C     0.85448   0.14379   0.33177
O     0.88920  -0.95375   0.90658
O     1.89462   1.01450   0.38432
C     3.02780   0.59820   1.14311
H    -4.29581  -0.62269  -0.64765
H    -3.60584  -1.37047  -2.09497
H    -3.09449  -1.94606  -0.47261
H    -2.40776   0.89583  -1.61457
H    -1.02954  -1.10112   0.07885
H     3.46237  -0.32814   0.73657
H     2.76240   0.43367   2.19898
H     3.76010   1.41235   1.06948
