16
Generated by autodE on: 2022-05-29. E = -417.365057 Ha
C    -3.34929   0.36944   0.09792
C    -2.44256  -0.32793  -0.83746
N    -1.15453  -0.36332  -0.71406
N    -0.42541   0.21266   0.26089
C     0.88558  -0.04321   0.05920
O     1.39230  -0.70003  -0.86076
O     1.63862   0.53057   1.03100
C     3.04833   0.33778   0.93112
H    -4.07896  -0.34878   0.50943
H    -2.80189   0.84921   0.91716
H    -3.93400   1.12759  -0.45092
H    -2.83558  -0.86252  -1.70533
H    -0.60700  -0.87922  -1.42338
H     3.30876  -0.73096   0.97674
H     3.44327   0.76124  -0.00529
H     3.48950   0.86214   1.78832
