37
Generated by autodE on: 2022-05-29. E = -1025.289797 Ha. Imaginary frequency = -258.8 cm-1
C     0.88131   3.75339  -0.78623
N     0.30919   2.42560  -0.68862
C     0.35008   1.71670   0.45155
O     0.79607   2.15976   1.51939
C    -0.22790   0.34386   0.41204
C     0.09639  -0.63569   1.56910
C    -0.76064  -0.20584   2.76758
C    -2.01254  -0.54423   2.43705
C    -1.90180  -1.16477   1.03677
O    -0.61776  -1.79671   1.11237
C    -1.55007   0.00044   0.05438
C    -2.52910   0.90289  -0.41417
N    -3.36696   1.60126  -0.83113
C    -1.17869  -1.07856  -1.95648
C    -2.23406  -2.10011  -2.16946
N     0.04869  -1.42883  -1.60694
N     0.88646  -0.45856  -1.21787
C     2.07449  -0.95504  -0.72228
O     2.42006  -2.12817  -0.70837
O     2.81018   0.05019  -0.22854
C     4.03364  -0.31088   0.42125
H     1.98435   3.72337  -0.81111
H     0.57585   4.36112   0.07666
H     0.52162   4.23403  -1.70487
H     0.10781   1.91087  -1.54052
H     1.15452  -0.84352   1.75387
H    -0.38700   0.32287   3.64262
H    -2.94476  -0.36999   2.97321
H    -2.68737  -1.85353   0.71131
H    -1.26890  -0.10227  -2.43515
H    -2.28380  -2.37471  -3.23737
H    -2.04679  -3.00686  -1.57687
H    -3.21411  -1.68130  -1.89714
H     0.19589  -2.36159  -1.20074
H     3.84008  -0.99329   1.26184
H     4.72313  -0.79073  -0.28847
H     4.46486   0.62681   0.79058
