38
Generated by autodE on: 2022-06-18. E = -938.163373 Ha
C     4.43645  -0.49447   0.26138
O     3.03038  -0.65076   0.00382
C     2.25135   0.39045   0.27356
O     2.64788   1.45126   0.70584
C     0.80218   0.09576  -0.01655
N    -0.08631   1.24643   0.16360
C    -1.25543   0.58774  -0.34080
C    -2.48769   1.43810  -0.62777
C    -2.60096   2.75957   0.06455
O    -3.32415   1.00699  -1.39830
O    -0.81521  -0.00141  -1.63757
C     0.48138  -0.32202  -1.46233
O     1.16436  -0.84175  -2.30767
C    -1.44351  -0.60959   0.65191
C    -2.18012  -0.13683   1.91193
C    -2.26936  -1.73512   0.02250
C     0.09983  -0.98542   0.91466
C     0.46252  -2.42296   0.53582
C     0.55500  -0.74033   2.35856
H     4.84495   0.32494  -0.34647
H     4.90011  -1.44670  -0.01874
H     4.60500  -0.28415   1.32691
H     0.19682   2.03173  -0.42828
H    -2.43662   2.65251   1.14681
H    -3.58537   3.20087  -0.13594
H    -1.81081   3.43117  -0.31269
H    -3.22009   0.12550   1.66362
H    -1.70842   0.73494   2.38049
H    -2.21726  -0.94763   2.65249
H    -2.36497  -2.56912   0.73208
H    -3.28157  -1.37098  -0.20599
H    -1.83542  -2.12236  -0.90606
H    -0.07649  -3.12388   1.18918
H     0.21939  -2.67970  -0.50277
H     1.53913  -2.58822   0.67883
H    -0.02425  -1.36220   3.05473
H     1.61252  -1.02536   2.46845
H     0.44931   0.30915   2.65787
