18
Generated by autodE on: 2022-06-18. E = -235.968073 Ha
C     1.35220   0.04434  -1.43383
C     0.66485   0.09137  -0.09026
C     1.64215   0.36650   1.02728
C    -0.66492  -0.09095   0.09027
C    -1.64248  -0.36398  -1.02762
C    -1.35183  -0.04709   1.43417
H     0.68365  -0.16399  -2.27762
H     2.14356  -0.72664  -1.43238
H     1.86381   1.00234  -1.63711
H     2.42277  -0.41492   1.05584
H     2.17345   1.31807   0.84580
H     1.18708   0.42216   2.02331
H    -2.15871  -1.32635  -0.85970
H    -1.19098  -0.39600  -2.02634
H    -2.43482   0.40588  -1.04024
H    -1.87574  -1.00038   1.62779
H    -0.68053   0.14343   2.27999
H    -2.13319   0.73406   1.44064
