23
Generated by autodE on: 2022-06-22. E = -351.521385 Ha
C     3.37302  -0.66323  -1.57507
C     2.48248  -0.42086  -0.58815
C     2.91909  -0.30606   0.85005
C     1.06475  -0.26367  -0.90662
C     0.07581  -0.01572  -0.01142
C    -1.31693   0.13335  -0.38113
C    -2.35953   0.38650   0.44990
C    -2.23581   0.55961   1.93713
C    -3.75695   0.51566  -0.08664
H     3.05290  -0.74605  -2.61830
H     4.43930  -0.78477  -1.36488
H     2.65494   0.67958   1.26804
H     2.41623  -1.05920   1.47929
H     4.00517  -0.44324   0.94851
H     0.79867  -0.35733  -1.96644
H     0.33312   0.07966   1.04696
H    -1.53682   0.02862  -1.45053
H    -2.61547   1.55181   2.23895
H    -1.20806   0.45945   2.30909
H    -2.86529  -0.18084   2.46169
H    -4.18157   1.50513   0.16128
H    -3.79738   0.38274  -1.17770
H    -4.42616  -0.22877   0.38124
