28
Generated by autodE on: 2022-06-22. E = -795.253742 Ha
C    -1.27605   3.41760   0.19373
N    -0.91956   2.08009  -0.24237
C    -1.26625   0.99396   0.46254
O    -2.05817   1.01972   1.41465
C    -0.69782  -0.30626  -0.00591
N     0.57201  -0.52167  -0.25085
C     1.74459   0.14752  -0.10786
C     1.84772   1.40652   0.51594
N     1.98687   2.43965   1.04222
C     2.91486  -0.60067  -0.57124
C     4.26508   0.03740  -0.41544
O     2.75868  -1.72120  -1.06508
C    -1.54857  -1.51565  -0.23794
O    -1.04506  -2.51466  -0.77255
N    -2.82718  -1.43450   0.15173
C    -3.73224  -2.55804   0.01448
H    -2.34768   3.46956   0.43136
H    -0.70407   3.70389   1.09150
H    -1.05090   4.12504  -0.61298
H    -0.27129   1.98533  -1.01805
H     0.74218  -1.47686  -0.63590
H     5.03643  -0.62453  -0.82818
H     4.47305   0.23063   0.64939
H     4.29163   1.00993  -0.93237
H    -3.09829  -0.62634   0.70974
H    -3.70345  -2.95041  -1.01221
H    -4.75142  -2.22278   0.24091
H    -3.46710  -3.37946   0.70097
