28
Generated by autodE on: 2022-07-27. E = -795.247278 Ha
C     0.24071   3.15303   3.23955
N     0.38264   2.38565   2.01837
C    -0.09132   1.14118   1.91567
O    -0.65710   0.52749   2.83356
C     0.08028   0.45716   0.58916
N    -0.53309  -0.70242   0.55768
C    -0.81165  -1.60001  -0.43980
C    -1.26647  -2.87190  -0.02017
N    -1.63097  -3.93040   0.31176
C    -0.89660  -1.19500  -1.83460
C    -1.32712  -2.24506  -2.82693
O    -0.66950  -0.03109  -2.17768
C     0.99756   1.00437  -0.45862
O     0.99896   2.21530  -0.71676
N     1.89719   0.14360  -0.95775
C     2.78909   0.53588  -2.03363
H     0.65895   2.60194   4.09494
H    -0.81823   3.36794   3.45807
H     0.77978   4.10086   3.12638
H     0.73475   2.82090   1.16509
H    -0.91620  -0.91738   1.49901
H    -1.32309  -1.81088  -3.83459
H    -0.64556  -3.10980  -2.79145
H    -2.33769  -2.61482  -2.59130
H     1.78832  -0.84866  -0.76825
H     3.51878  -0.26567  -2.19924
H     3.32371   1.45910  -1.76986
H     2.23088   0.71285  -2.96769
