51
Generated by autodE on: 2022-06-22. E = -1146.750468 Ha. Imaginary frequency = -329.2 cm-1
C    -3.74973  -1.79654  -0.00244
C    -2.73857  -1.03152   0.46711
C    -2.72181  -0.53728   1.88808
C    -1.63535  -0.68522  -0.42489
C    -0.77687   0.43231  -0.23718
C    -0.19071   1.03022  -1.43762
C     0.16602   2.32244  -1.61325
C     0.78050   2.77352  -2.90808
C    -0.00513   3.40180  -0.58314
C     0.94266  -0.32186   0.93344
C     0.75314   0.18524   2.36430
O     0.35856  -0.61201   3.23675
N     0.95265   1.48035   2.60837
C     0.74870   2.04754   3.92574
C     2.04681   0.33231   0.14478
O     2.36492   1.51467   0.37466
N     2.68322  -0.39932  -0.77525
C     3.64040   0.22765  -1.66642
N     0.67911  -1.67922   0.95215
C    -0.10677  -2.43477   0.10472
C    -0.91930  -3.38988   0.78551
N    -1.62777  -4.13251   1.33691
C     0.11716  -2.69897  -1.32459
C    -0.84835  -3.63434  -2.00309
O     1.04714  -2.19623  -1.95868
H    -3.75303  -2.16313  -1.03280
H    -4.59983  -2.06312   0.63103
H    -3.62672  -0.85537   2.42416
H    -2.66389   0.56275   1.93206
H    -1.84329  -0.91846   2.42888
H    -1.75025  -1.03425  -1.45317
H    -1.01817   1.09881   0.59065
H    -0.03024   0.33795  -2.27000
H     0.19811   3.59695  -3.35812
H     0.85480   1.95537  -3.63911
H     1.79453   3.17404  -2.73060
H     0.96743   3.87041  -0.35862
H    -0.43556   3.04490   0.36042
H    -0.65379   4.20308  -0.97911
H     1.41246   2.00049   1.85557
H    -0.26421   1.82366   4.29311
H     0.87219   3.13577   3.86511
H     1.47032   1.64810   4.65771
H     2.20327  -1.24207  -1.11790
H     4.08890  -0.54545  -2.30315
H     4.43910   0.72241  -1.09542
H     3.16457   0.98626  -2.31095
H     0.44163  -1.88400   1.93779
H    -0.76339  -3.50612  -3.08963
H    -0.57863  -4.67236  -1.74538
H    -1.88684  -3.47488  -1.68054
