25
Generated by autodE on: 2022-07-27. E = -685.381390 Ha
C    -0.39866   2.57410   2.38459
N    -0.55573   1.58524   1.33357
C     0.50605   1.01706   0.74896
O     1.67795   1.27890   1.04075
C     0.23536  -0.00423  -0.32123
O     0.81140   0.13624  -1.47708
C     1.46822   1.14419  -2.06005
C     1.49222   2.44293  -1.56007
N     1.50691   3.55304  -1.17602
C    -0.48408  -1.24118  -0.10404
C    -0.73461  -2.12488  -1.18134
C    -1.41610  -3.31831  -0.96924
C    -1.86746  -3.66023   0.31284
C    -1.62618  -2.79487   1.38497
C    -0.94194  -1.59765   1.18588
H     0.19508   3.42818   2.02338
H     0.11382   2.14461   3.25959
H    -1.39035   2.92844   2.68880
H    -1.48709   1.30798   1.03647
H     1.85229   0.89017  -3.04534
H    -0.39559  -1.85909  -2.18329
H    -1.60417  -3.98829  -1.81126
H    -2.40537  -4.59708   0.47362
H    -1.96941  -3.05639   2.38831
H    -0.75145  -0.94270   2.03623
