13
Generated by autodE on: 2022-05-29. E = -406.788331 Ha
F     2.10009  -0.70403   0.68460
C     1.01061  -0.08058   0.24581
C     0.55625   1.14435   0.50265
C    -0.80484   1.15435  -0.23421
C    -1.76206   0.19067   0.51160
C    -1.28077  -1.03196   0.27180
C    -0.04050  -0.79354  -0.62509
O    -0.49005   0.33900  -1.39008
H     0.95580   1.92895   1.14127
H    -1.20169   2.13439  -0.52032
H    -2.60119   0.49932   1.13440
H    -1.61156  -2.00223   0.64013
H     0.31427  -1.62186  -1.24824
