34
Generated by autodE on: 2022-05-29. E = -993.913307 Ha. Imaginary frequency = -324.0 cm-1
C     3.81342   1.02228   1.84741
N     2.80642   0.88643   0.81090
C     2.44922  -0.32588   0.34433
O     2.94544  -1.37673   0.77238
C     1.42906  -0.38913  -0.74001
C     1.53435  -1.51609  -1.59736
N     1.57943  -2.45749  -2.28362
N     0.66018   0.64041  -1.18347
C     0.05311   1.55148  -0.40971
C    -1.01800   2.32859  -1.04133
C    -1.64489   3.40666  -0.20788
O    -1.39231   2.05372  -2.18210
C    -1.07920   0.07530   0.99917
F    -1.09676   0.90318   2.06232
C    -2.37471  -0.21024   0.21122
C    -3.13764  -1.31083   0.98004
C    -2.38768  -2.40943   0.84037
C    -1.17402  -1.96854  -0.00507
O    -1.79473  -0.97368  -0.85521
C    -0.31353  -1.06258   0.89101
H     3.56343   0.38675   2.70903
H     3.84454   2.06894   2.17360
H     4.81381   0.73086   1.48692
H     2.51071   1.72204   0.31854
H     0.15669   0.48440  -2.06391
H     0.51542   1.89298   0.51049
H    -2.57341   3.75869  -0.67513
H    -0.93634   4.24799  -0.11974
H    -1.83787   3.04176   0.81262
H    -2.95224   0.64593  -0.15089
H    -4.06187  -1.16139   1.53691
H    -2.52700  -3.40468   1.26149
H    -0.66197  -2.73861  -0.59028
H     0.41522  -1.42421   1.61288
