33
Generated by autodE on: 2022-06-17. E = -839.639494 Ha
C     4.09748  -0.17557  -0.77241
N     2.72004   0.06483  -0.38974
C     1.72289  -0.70967  -0.83305
O     1.88313  -1.65510  -1.61133
C     0.33848  -0.38904  -0.28630
N    -0.72889  -1.19001  -0.89498
C    -1.77698  -0.75599  -0.01326
C    -3.05981  -1.53195  -0.04983
O    -1.16864  -0.93640   1.35947
C     0.14475  -0.71368   1.21262
O     0.94761  -0.76614   2.11216
C    -1.81241   0.78783  -0.24891
C    -2.38102   1.54267   0.95780
C    -2.62404   1.13581  -1.49826
C    -0.26459   1.03486  -0.49686
C     0.30311   2.18628   0.27506
O     1.29259   2.14965   0.98247
H     4.72456   0.62462  -0.36083
H     4.46012  -1.14351  -0.38908
H     4.20530  -0.18406  -1.86775
H     2.49492   0.79200   0.28995
H    -0.53456  -2.18872  -0.79285
H    -2.86713  -2.58209   0.21388
H    -3.49259  -1.49441  -1.05802
H    -3.78396  -1.11433   0.66298
H    -2.48322   2.61264   0.72684
H    -3.38378   1.15948   1.20028
H    -1.75467   1.44282   1.85521
H    -3.69833   0.96976  -1.32736
H    -2.30703   0.53780  -2.36389
H    -2.48248   2.19927  -1.74439
H    -0.12048   1.30075  -1.55722
H    -0.24748   3.14243   0.13448
