19
Generated by autodE on: 2022-06-17. E = -568.927558 Ha
C    -2.90965   0.17327   0.87729
N    -2.52788   0.26968  -0.52422
C    -1.31975  -0.06362  -1.04978
O    -1.21304  -0.39846  -2.24793
C    -0.12459  -0.03781  -0.21817
N     1.02607  -0.65174  -0.73850
C     2.05140  -0.47985   0.05268
C     3.42709  -0.98022  -0.11043
O     1.68678   0.24497   1.09999
C     0.27268   0.59925   0.97327
O    -0.20896   1.32318   1.82915
H    -2.37337   0.90162   1.49620
H    -2.71868  -0.83355   1.28717
H    -3.98537   0.37607   0.95246
H    -3.27856   0.15896  -1.20084
H     1.03574  -1.15050  -1.62790
H     4.13183  -0.13392  -0.12311
H     3.51470  -1.54789  -1.04525
H     3.69145  -1.62685   0.74122
