33
Generated by autodE on: 2022-10-06. E = -952.095830 Ha
C     3.15387  -1.10834   0.42696
C     1.69960  -0.71620   0.41465
O     1.07220  -0.65497   1.46200
C     0.94134  -0.57391  -0.93222
C     1.84967  -0.82870  -2.13675
C     0.26700   0.80766  -1.04463
C     1.11969   2.02272  -0.64245
O     0.64822   3.15088  -0.93560
O     2.24729   1.80637  -0.11707
C    -1.13038   0.68295  -0.39773
C    -1.43490   1.38530   0.95014
O    -0.50799   1.90790   1.61118
O    -2.65532   1.36336   1.27614
C    -1.40048  -0.86243  -0.33777
C    -2.69919  -1.23115  -1.07771
C    -1.59115  -1.35838   1.05636
N    -1.80522  -1.87642   2.07397
N    -0.22482  -1.47687  -0.96768
C     0.00757  -2.88383  -0.70301
H     3.23487  -2.15258   0.07938
H     3.53714  -1.04673   1.45442
H     3.76063  -0.48793  -0.24296
H     1.25249  -0.78018  -3.05836
H     2.34300  -1.80994  -2.09747
H     2.63052  -0.05771  -2.19090
H     0.08300   0.95145  -2.12042
H    -1.87456   1.10213  -1.08646
H    -2.88252  -2.31566  -1.06283
H    -3.54679  -0.72249  -0.59630
H    -2.62149  -0.89292  -2.12079
H     0.79509  -3.26270  -1.36986
H    -0.90443  -3.46181  -0.91291
H     0.30874  -3.10163   0.34131
