23
Generated by autodE on: 2022-10-06. E = -496.985320 Ha
C     2.92753   0.80803  -0.11185
C     1.41364   0.70970  -0.05005
O     0.73372   1.73988  -0.24088
C     0.86810  -0.57356   0.31091
C     1.76540  -1.74362   0.61141
N    -0.47258  -0.68015   0.60732
C    -0.88756  -1.52466   1.74499
C    -1.44813  -0.01366  -0.03350
C    -2.83085   0.12411   0.53141
C    -1.21626   0.45581  -1.34447
N    -1.11794   0.80215  -2.45591
H     3.20309   1.85723  -0.28110
H     3.32198   0.19796  -0.94106
H     3.40769   0.44873   0.81145
H     1.21506  -2.69345   0.56598
H     2.56638  -1.80456  -0.13905
H     2.25768  -1.68348   1.59916
H    -1.45331  -0.91027   2.45658
H    -1.52521  -2.34724   1.39396
H    -0.00695  -1.92107   2.25290
H    -3.43311   0.76836  -0.12144
H    -2.81112   0.57282   1.53795
H    -3.33933  -0.85165   0.61002
