10
Generated by autodE on: 2022-10-06. E = -455.046468 Ha
O     2.82660  -0.00928  -0.15756
C     1.57905  -0.14381  -0.00146
O     0.98542  -1.22770   0.25954
C     0.75624   1.11521  -0.14506
C    -0.58528   1.18677  -0.14354
C    -1.57725   0.04946   0.01409
O    -1.89345  -0.58397  -1.02538
O    -2.06643  -0.10137   1.16419
H     1.34153   2.03300  -0.27489
H    -1.05316   2.17445  -0.25865
