49
Generated by autodE on: 2022-06-03. E = -1738.118571 Ha
C    -3.86516   2.34812   0.12501
N    -2.83338   1.57646  -0.54150
C    -2.31181   0.48460   0.01879
O    -2.69461   0.00978   1.09187
C    -1.12048  -0.15967  -0.72517
C    -1.32723  -1.63496  -1.06008
C    -2.52407  -2.31593  -0.81420
C    -2.65937  -3.65590  -1.19151
C    -1.60706  -4.32219  -1.82302
C    -0.41531  -3.63757  -2.08882
C    -0.27991  -2.30233  -1.71311
O    -0.94164   0.50328  -2.01032
O     0.29813   1.24444  -1.99002
C     0.89082   0.97866  -0.79078
C     0.18485   0.17884   0.02265
C     0.43130  -0.19668   1.46125
Cl    0.00269  -1.97018   1.71864
C    -0.43151   0.70966   2.40035
C    -0.98050   0.14678   3.67518
O    -0.52393   1.88331   2.09936
C     1.86877  -0.01912   1.99469
C     2.98348  -0.86700   1.38267
C     3.18871  -0.77630  -0.12673
C     3.46229   0.60519  -0.71326
C     2.26246   1.65036  -0.72428
C     2.46051   2.49505  -1.92525
N     2.69346   3.15944  -2.84494
C     2.32695   2.61427   0.39441
N     2.41634   3.42744   1.21500
H    -4.15819   3.18297  -0.52221
H    -4.74999   1.72719   0.33139
H    -3.49656   2.74786   1.08296
H    -2.43609   1.89778  -1.41869
H    -3.35009  -1.81798  -0.30887
H    -3.59635  -4.17948  -0.98779
H    -1.71491  -5.37016  -2.11233
H     0.41137  -4.14691  -2.58931
H     0.64944  -1.77032  -1.92523
H    -1.78317  -0.56556   3.44100
H    -0.20666  -0.40320   4.23081
H    -1.37574   0.96857   4.28586
H     1.83153  -0.23801   3.07187
H     2.11313   1.04706   1.93840
H     3.91431  -0.56652   1.89146
H     2.81189  -1.92217   1.64302
H     4.07341  -1.38183  -0.38163
H     2.35021  -1.24716  -0.65902
H     3.74138   0.47563  -1.76680
H     4.30622   1.09738  -0.20901
