27
Generated by autodE on: 2022-06-03. E = -1109.032826 Ha
C     3.25949   0.06155   1.39652
C     2.88509   0.33665  -0.02729
O     3.58314   0.95169  -0.80462
C     1.51537  -0.20855  -0.50663
Cl    1.89634  -1.99197  -0.87882
C     0.44727  -0.17656   0.47109
C    -0.66632  -0.05576   0.92843
C    -2.10085   0.25456   0.87286
C    -2.91435  -0.64776   1.71148
N    -3.55979  -1.37610   2.33969
C    -2.32548   1.64730   1.31788
N    -2.49712   2.75094   1.62527
C    -2.53196   0.09970  -0.64128
C    -1.63384   0.83744  -1.65020
C    -0.41304   0.08144  -2.24618
C     0.99767   0.48420  -1.77861
H     2.66819   0.73296   2.04267
H     3.00635  -0.96998   1.68099
H     4.32776   0.25894   1.55111
H    -3.56722   0.46432  -0.70535
H    -2.54292  -0.98054  -0.84708
H    -1.31718   1.80806  -1.23242
H    -2.29928   1.08873  -2.48922
H    -0.54477  -1.00645  -2.12603
H    -0.42689   0.25948  -3.33141
H     1.73352   0.28712  -2.57049
H     1.03251   1.56755  -1.57751
