22
Generated by autodE on: 2022-07-27. E = -628.978461 Ha
C    -0.50067   3.86216   1.03280
N    -0.01672   2.75002   0.24261
C    -0.20996   1.48910   0.63811
O    -0.81173   1.15418   1.66295
C     0.35785   0.42489  -0.28517
O     1.21680   0.66017  -1.20822
O     1.72930   1.90479  -1.47835
C    -0.01001  -0.97944  -0.15755
C    -1.27486  -1.36380   0.33860
C    -1.61635  -2.71276   0.39726
C    -0.70816  -3.69076  -0.02088
C     0.54924  -3.31788  -0.51264
C     0.89721  -1.97397  -0.58850
H    -0.31414   4.79474   0.48730
H    -1.58027   3.76313   1.22227
H     0.00877   3.91057   2.00966
H     0.64170   2.85721  -0.54694
H    -1.98713  -0.60628   0.65754
H    -2.60042  -3.00295   0.77081
H    -0.97919  -4.74735   0.03714
H     1.26120  -4.08101  -0.83326
H     1.87963  -1.68248  -0.96133
