29
Generated by autodE on: 2022-06-17. E = -800.027910 Ha
C    -3.11503  -0.59323   0.89641
C    -1.73070  -0.82400   0.36662
O    -1.00894  -1.69924   0.81254
C    -1.24084   0.07476  -0.79210
C    -2.13657  -0.11558  -2.01266
N    -1.27100   1.47208  -0.32977
C    -0.08808   1.60062   0.53051
C     0.32699   2.98912   0.69963
N     0.66995   4.08971   0.82925
C     1.02676   0.68917  -0.07672
C     1.83493  -0.01898   0.98464
O     2.08282   0.52082   2.05423
C     2.34303  -1.36936   0.67088
C     1.80637  -2.11523  -0.31148
C     0.69300  -1.64465  -1.17110
O     0.18256  -2.40789  -1.98227
C     0.27000  -0.19537  -1.08876
H    -3.33752   0.47890   0.97079
H    -3.22858  -1.08972   1.86860
H    -3.83696  -1.03265   0.18750
H    -1.78127   0.53275  -2.82840
H    -2.09377  -1.15759  -2.35553
H    -3.17895   0.14728  -1.78614
H    -1.14749   2.06743  -1.15228
H    -0.33325   1.22529   1.53757
H     1.76148   1.30725  -0.61724
H     3.12136  -1.76035   1.33141
H     2.14072  -3.13919  -0.49868
H     0.44343   0.20385  -2.09881
