17
Generated by autodE on: 2022-07-27. E = -418.336766 Ha
C    -1.56644  -2.68794   0.15035
C    -0.68144  -1.48970   0.39283
O    -0.00624  -1.40087   1.43313
C    -0.66371  -0.46583  -0.63317
C    -1.48331  -0.57680  -1.88331
N     0.09923   0.63027  -0.48679
C     0.93456   1.03371   0.48552
C     1.60321   2.25949   0.35484
N     2.17607   3.27802   0.27568
H    -1.27739  -3.20876  -0.77677
H    -1.48170  -3.37803   0.99976
H    -2.61788  -2.38071   0.02979
H    -2.55879  -0.65444  -1.65464
H    -1.21322  -1.47356  -2.46471
H    -1.33896   0.30092  -2.53070
H     0.02514   1.28400  -1.27248
H     1.07315   0.39918   1.35512
