12
Generated by autodE on: 2022-06-17. E = -381.636096 Ha
O    -2.62960   0.44029  -0.03621
C    -1.41977   0.23780  -0.01960
C    -0.45369   1.36244   0.01528
C     0.87213   1.14039   0.03392
C     1.41977  -0.23780   0.01966
O     2.62960  -0.44029   0.03617
C     0.45369  -1.36244  -0.01529
C    -0.87213  -1.14039  -0.03393
H    -0.88022   2.36822   0.02536
H     1.60252   1.95259   0.06030
H     0.88022  -2.36822  -0.02540
H    -1.60251  -1.95259  -0.06034
