29
Generated by autodE on: 2022-06-17. E = -799.979651 Ha. Imaginary frequency = -261.6 cm-1
C    -2.60128  -1.89622   0.38351
C    -1.77190  -0.66964   0.64115
O    -1.17878  -0.51768   1.70908
C    -1.74480   0.36343  -0.42911
C    -2.70534   0.27712  -1.57265
N    -1.16429   1.55635  -0.19090
C    -0.01349   1.70120   0.53965
C     0.59215   2.99099   0.57685
N     1.13884   4.01846   0.60009
C     1.26043   0.48179  -0.65951
C     2.14858  -0.01291   0.42221
O     3.00735   0.70224   0.93375
C     1.94474  -1.40801   0.88004
C     1.12525  -2.24807   0.22222
C     0.37763  -1.82621  -0.99285
O    -0.22186  -2.67093  -1.67501
C     0.40475  -0.41417  -1.33034
H    -3.66219  -1.61881   0.27504
H    -2.48714  -2.58603   1.22907
H    -2.29686  -2.39467  -0.54823
H    -3.74955   0.31101  -1.22048
H    -2.56858  -0.67449  -2.10562
H    -2.54498   1.09831  -2.28524
H    -1.31899   2.26323  -0.91261
H     0.05034   1.11158   1.45157
H     1.64416   1.34753  -1.20320
H     2.51820  -1.71852   1.75695
H     0.99269  -3.28774   0.53209
H    -0.01014  -0.14847  -2.30336
