40
Generated by autodE on: 2022-10-21. E = -993.516331 Ha
C    -2.56998   2.73562  -1.72901
N    -2.37985   1.47030  -1.04762
C    -1.23491   1.17304  -0.42385
O    -0.27307   1.95097  -0.38673
C    -1.08721  -0.23421   0.23096
C    -2.39949  -0.95972   0.60861
C    -2.32822  -1.97063   1.71455
O    -3.43188  -0.78754  -0.02413
C    -0.36915  -1.14731  -0.76693
C    -0.98589  -1.64015  -2.03162
C     0.88883  -1.34483  -0.33205
O     1.81623  -2.05391  -1.01232
C     2.98483  -2.48645  -0.31853
C     1.17607  -0.57976   0.93999
C     2.09480   0.63517   0.72574
O     2.43494   1.37104   1.62983
O     2.47290   0.80131  -0.54092
C     3.23556   1.97840  -0.84223
N    -0.17049  -0.20676   1.35739
C    -0.37915   0.75731   2.41399
H    -2.48936   3.58440  -1.03086
H    -1.81603   2.87817  -2.51942
H    -3.56736   2.74748  -2.18541
H    -3.12332   0.77394  -1.00010
H    -1.44986  -2.61925   1.58997
H    -2.21457  -1.45753   2.68223
H    -3.25165  -2.56418   1.72059
H    -1.91259  -2.20809  -1.84764
H    -1.25271  -0.80393  -2.69998
H    -0.28388  -2.29285  -2.56894
H     3.56789  -3.07823  -1.03571
H     3.59569  -1.63346   0.01648
H     2.72548  -3.11822   0.54595
H     1.66829  -1.18715   1.72084
H     2.63637   2.87619  -0.63230
H     4.16027   2.00394  -0.24850
H     3.47099   1.92091  -1.91108
H     0.21787   0.47566   3.29475
H    -0.11914   1.79574   2.14204
H    -1.44037   0.74374   2.70894
