11
Generated by autodE on: 2022-10-21. E = -231.273297 Ha
C    -2.61367  -0.16318  -0.07882
C    -1.16296  -0.13260   0.09844
C     0.04118  -0.11079   0.24895
O     1.33086  -0.10712   0.45035
C     2.13197   0.44681  -0.61613
H    -2.88628   0.00448  -1.13389
H    -3.11648   0.61393   0.52059
H    -3.03461  -1.13824   0.21778
H     3.17562   0.36863  -0.28862
H     1.86376   1.50145  -0.78147
H     1.97984  -0.12937  -1.54151
