29
Generated by autodE on: 2022-10-21. E = -762.141861 Ha
C    -2.40631   2.59025   0.72102
N    -2.07563   1.19317   0.55523
C    -0.95602   0.80259  -0.08138
O    -0.13635   1.63986  -0.52092
C    -0.77758  -0.65751  -0.26434
C    -1.68281  -1.64749   0.24123
C    -1.32422  -3.11978   0.17015
O    -2.76096  -1.34904   0.81110
N     0.31762  -1.01765  -1.06259
C     0.14353  -1.96834  -2.18623
C     1.47073  -0.40520  -0.98526
C     1.94539   0.32778   0.21082
O     1.57861   0.13988   1.35370
O     2.93187   1.15755  -0.13391
C     3.52736   1.91815   0.92796
H    -2.70234   3.06693  -0.22984
H    -1.54699   3.15111   1.11944
H    -3.24310   2.67780   1.42609
H    -2.72282   0.44138   0.81170
H    -1.74643  -3.57084  -0.74189
H    -0.24393  -3.31268   0.18458
H    -1.79235  -3.61641   1.03126
H     0.59872  -2.93314  -1.93183
H    -0.92227  -2.08799  -2.39659
H     0.64595  -1.55679  -3.07055
H     2.16754  -0.51458  -1.81785
H     2.76821   2.54760   1.41453
H     3.98157   1.24882   1.67266
H     4.29574   2.54233   0.45816
