29
Generated by autodE on: 2022-10-26. E = -762.141034 Ha
C    -2.36389   2.25859  -1.39913
N    -2.00893   1.04540  -0.69871
C    -0.81591   0.90311  -0.09289
O     0.04638   1.80875  -0.14188
C    -0.60381  -0.35556   0.65945
C    -1.55796  -1.42427   0.71891
C    -1.18566  -2.75614   1.34286
O    -2.70232  -1.33504   0.21007
N     0.59169  -0.41208   1.39046
C     0.56755  -0.82661   2.81491
C     1.72955   0.05850   0.94614
C     2.09796   0.33070  -0.46128
O     3.00853   1.08982  -0.73341
O     1.43980  -0.40288  -1.35548
C     1.72150  -0.13613  -2.73638
H    -3.29172   2.08752  -1.96018
H    -2.52517   3.10728  -0.71182
H    -1.57147   2.55036  -2.10565
H    -2.67649   0.28352  -0.54412
H    -1.49945  -2.78196   2.39849
H    -0.11414  -2.98680   1.29361
H    -1.74793  -3.53715   0.81252
H     0.99830  -1.82959   2.91782
H     1.17073  -0.11513   3.39236
H    -0.46289  -0.80933   3.17813
H     2.51868   0.25108   1.67493
H     1.48373   0.91146  -2.97156
H     1.07580  -0.81029  -3.31029
H     2.77882  -0.33498  -2.96253
