40
Generated by autodE on: 2022-10-21. E = -993.393778 Ha. Imaginary frequency = -374.3 cm-1
C    -2.46741   2.77745  -1.99485
N    -2.24058   1.62413  -1.15607
C    -1.25804   1.59997  -0.23068
O    -0.48185   2.57289  -0.08119
C    -1.14825   0.38711   0.59534
C    -2.07531  -0.69083   0.56278
C    -1.92264  -1.88754   1.48379
O    -3.04775  -0.72718  -0.24888
C     0.81555  -1.97037  -0.57855
C     0.02455  -2.21289  -1.76310
C     1.47548  -1.63205   0.43402
O     2.22388  -2.06302   1.44543
C     2.38875  -3.49098   1.49026
C     1.23053   0.22589   0.88388
C     1.64283   0.98363  -0.36559
O     2.52596   1.81305  -0.29725
O     1.03347   0.62630  -1.48152
C     1.32415   1.39558  -2.65707
N    -0.00231   0.31648   1.42223
C    -0.10983   0.10926   2.87395
H    -3.37738   2.61474  -2.58709
H    -2.59693   3.69808  -1.40197
H    -1.62873   2.94921  -2.69165
H    -2.85290   0.80224  -1.16034
H    -0.88559  -2.13619   1.73428
H    -2.46616  -1.70436   2.42541
H    -2.39002  -2.75205   0.99232
H    -1.01231  -1.85309  -1.66171
H     0.48386  -1.75696  -2.65484
H    -0.01746  -3.30435  -1.94015
H     3.01335  -3.70379   2.36641
H     2.88611  -3.84155   0.57264
H     1.40709  -3.97895   1.59338
H     2.03938   0.28555   1.61877
H     1.10352   2.45551  -2.46957
H     2.37933   1.27683  -2.94094
H     0.67019   1.00091  -3.44251
H     0.32224  -0.85618   3.17236
H     0.42851   0.91573   3.39414
H    -1.16319   0.14932   3.16445
