40
Generated by autodE on: 2022-10-21. E = -1146.914052 Ha
C     3.50071   1.81926  -2.12499
N     2.58730   1.53818  -1.03721
C     2.22332   0.27125  -0.74571
O     2.74105  -0.73436  -1.24401
N     1.22665   0.15832   0.21941
N     0.66603   1.31646   0.81622
C     1.19283   1.52928   2.17056
C    -0.77184   1.06107   0.76989
C    -1.41942   1.54096  -0.51933
O    -2.62651   1.59144  -0.65491
O    -0.55330   1.89825  -1.45903
C    -1.09443   2.27643  -2.73310
C    -0.91754  -0.48628   0.99416
O    -1.10298  -0.80431   2.34357
C    -2.41381  -0.56626   2.84031
C    -1.86723  -1.23481  -0.00231
C    -1.80142  -2.71813   0.32314
C    -0.61317  -3.13562  -0.12849
C     0.05218  -1.90111  -0.71869
O    -1.06913  -1.14282  -1.19516
C     0.48065  -1.02242   0.49672
F     1.11541  -1.79656   1.45831
H     3.85771   2.85374  -2.03668
H     3.02760   1.69520  -3.11499
H     4.36673   1.14504  -2.07491
H     1.94939   2.25943  -0.71045
H     0.99001   0.68601   2.85162
H     2.27776   1.68746   2.10253
H     0.73476   2.43949   2.58225
H    -1.27840   1.59724   1.58122
H    -0.23313   2.53759  -3.35833
H    -1.76699   3.13922  -2.62756
H    -1.64327   1.43120  -3.17294
H    -3.14611  -1.26930   2.40899
H    -2.37488  -0.71723   3.92731
H    -2.75082   0.46405   2.63424
H    -2.85083  -0.78168  -0.14449
H    -2.56005  -3.27391   0.87313
H    -0.14886  -4.11675  -0.03798
H     0.81348  -2.03069  -1.48906
