17
Generated by autodE on: 2022-10-21. E = -521.358668 Ha
C     2.78646  -1.04825  -0.26092
O     1.92611  -0.24018   0.54454
C     0.70678   0.03662   0.04201
C    -0.14154   1.01648   0.38191
F    -0.00733   1.98218   1.29969
C    -1.48050   0.67634  -0.28222
C    -2.03738  -0.60753   0.39077
C    -1.19986  -1.57895   0.01876
C    -0.14996  -0.87454  -0.88015
O    -0.98065   0.11561  -1.51439
H     3.75116  -1.09001   0.26083
H     2.39002  -2.07095  -0.36691
H     2.92977  -0.60341  -1.25909
H    -2.17557   1.50806  -0.44378
H    -2.90263  -0.64345   1.05175
H    -1.18365  -2.63367   0.29046
H     0.38624  -1.49245  -1.60740
