20
Generated by autodE on: 2022-06-26. E = -457.715343 Ha
C    -3.07770   0.77817   0.10459
N    -1.83148   0.03593   0.00518
C    -1.84808  -1.28059  -0.47265
C    -0.72732  -1.98418  -0.69838
C     0.65609  -1.42972  -0.46308
C     0.57567   0.00733   0.02545
C     1.79129   0.78336   0.31956
N     2.96987   0.14325   0.11433
O     1.77375   1.95996   0.73483
C    -0.62238   0.62819   0.21626
H    -2.89611   1.72522   0.62848
H    -3.49738   1.00185  -0.89118
H    -3.82403   0.20211   0.67258
H    -2.84365  -1.69407  -0.64401
H    -0.82222  -3.00959  -1.06297
H     1.25700  -1.49901  -1.39280
H     1.20190  -2.06448   0.26503
H     3.02393  -0.80788  -0.22683
H     3.83265   0.64265   0.30003
H    -0.65068   1.66192   0.56445
