35
Generated by autodE on: 2022-07-27. E = -878.731780 Ha
C     0.87414  -2.88245   2.51185
N     1.06672  -1.73244   1.64985
C     0.18551  -1.43901   0.68316
O    -0.74926  -2.17511   0.35995
C     0.45313  -0.17394  -0.09745
N    -0.55752   0.57048  -0.48896
C    -1.88419   0.63529  -0.05322
C    -2.14509   0.40204   1.34996
C    -3.54698   0.54127   1.89200
O    -1.22256   0.11756   2.13564
C    -2.85165   1.09764  -1.02757
C    -2.35679   1.40147  -2.43277
O    -4.05731   1.24413  -0.77236
C     1.79443   0.15596  -0.58059
C     2.75229  -0.85619  -0.80738
C     4.01067  -0.53264  -1.30962
C     4.34068   0.79862  -1.58699
C     3.40235   1.81065  -1.35956
C     2.14107   1.49611  -0.85805
H     1.73006  -2.96359   3.19259
H     0.80051  -3.80548   1.91805
H    -0.04952  -2.78058   3.10542
H     1.76725  -1.04043   1.89704
H    -0.31197   1.24946  -1.21435
H    -3.51525   0.34499   2.97239
H    -4.22504  -0.17312   1.40182
H    -3.95771   1.54271   1.70085
H    -1.88148   0.52325  -2.89705
H    -1.61538   2.22035  -2.43022
H    -3.21311   1.71496  -3.04298
H     2.50291  -1.89968  -0.61481
H     4.73821  -1.32664  -1.49042
H     5.33131   1.04766  -1.97381
H     3.65934   2.85314  -1.55860
H     1.43337   2.29987  -0.64516
