35
Generated by autodE on: 2022-06-26. E = -878.734270 Ha
C     1.62157   3.62424  -0.19869
N     1.47582   2.21603   0.11431
C     0.59681   1.44770  -0.54382
O    -0.04149   1.82291  -1.53046
C     0.49538   0.01016  -0.09286
N    -0.67751  -0.56958  -0.02773
C    -1.99384  -0.11685  -0.01781
C    -2.28195   1.18436   0.54177
C    -3.69370   1.72105   0.60228
O    -1.36550   1.88267   1.01157
C    -2.89096  -1.21732  -0.33579
C    -4.38984  -1.06647  -0.36664
O    -2.39785  -2.33590  -0.59137
C     1.69273  -0.81249   0.09845
C     1.64286  -1.96521   0.91278
C     2.77039  -2.76851   1.06952
C     3.96680  -2.43689   0.42460
C     4.02955  -1.29427  -0.38008
C     2.90704  -0.48468  -0.54166
H     0.69070   4.17499   0.01575
H     2.43272   4.04244   0.40932
H     1.86438   3.76292  -1.26275
H     1.92473   1.84163   0.94450
H    -0.68274  -1.60250  -0.04136
H    -3.64109   2.75711   0.96107
H    -4.18041   1.70146  -0.38268
H    -4.31728   1.13911   1.29683
H    -4.81942  -2.01901  -0.70234
H    -4.70183  -0.26598  -1.05196
H    -4.78975  -0.82616   0.62927
H     0.72704  -2.21792   1.45139
H     2.71912  -3.65091   1.71092
H     4.85111  -3.06474   0.55428
H     4.95910  -1.03370  -0.89065
H     2.96704   0.39162  -1.18732
