55
Generated by autodE on: 2022-06-26. E = -1336.420158 Ha. Imaginary frequency = -228.6 cm-1
C     1.42988  -1.06786   4.17909
N     1.48215  -0.45027   2.86831
C     0.62843  -0.80499   1.89784
O    -0.12915  -1.77330   2.01603
C     0.70971   0.10244   0.64625
C     2.10456   0.33846   0.15406
C     3.05172  -0.70239   0.22885
C     4.33786  -0.54456  -0.28200
C     4.71480   0.66118  -0.88122
C     3.79137   1.70584  -0.95813
C     2.50129   1.54798  -0.44667
N    -0.10364   1.21063   0.69733
C    -1.51755   1.16021   0.84248
C    -2.06276   0.74254   2.11275
C    -3.55364   0.55461   2.29257
O    -1.32477   0.56021   3.10250
C    -2.29567   1.89157  -0.13007
C    -1.59875   2.93977  -0.98943
O    -3.52617   1.74272  -0.26998
C    -1.47984  -1.32517  -0.53134
N    -2.54866  -1.07564  -1.28071
C    -3.88651  -1.49044  -0.86031
C    -2.43448  -0.36659  -2.48919
C    -1.24946   0.09045  -2.91209
C     0.01631  -0.09674  -2.13856
C    -0.12447  -1.02884  -0.93628
C     0.76652  -2.25593  -1.05273
N     0.58288  -3.27409  -0.18242
O     1.60666  -2.32980  -1.95727
H     1.52557  -2.16031   4.09573
H     2.25801  -0.68299   4.78664
H     0.47574  -0.84208   4.68238
H     2.03233   0.39362   2.74614
H     2.78316  -1.65186   0.69114
H     5.04855  -1.37095  -0.21276
H     5.72369   0.78690  -1.28053
H     4.07276   2.65682  -1.41549
H     1.82475   2.40101  -0.51914
H     0.20591   1.96351   0.09415
H    -4.11961   1.44807   1.99456
H    -3.92486  -0.27369   1.67263
H    -3.73871   0.32517   3.35125
H    -0.89843   2.49831  -1.71130
H    -1.03062   3.65360  -0.36966
H    -2.36770   3.48704  -1.54937
H    -1.66271  -1.93690   0.34885
H    -3.81504  -2.05533   0.07561
H    -4.52003  -0.60757  -0.71098
H    -4.33153  -2.12930  -1.63717
H    -3.36900  -0.23186  -3.03252
H    -1.20267   0.63072  -3.86020
H     0.39823   0.89591  -1.83585
H     0.80208  -0.49286  -2.79755
H     1.27788  -4.01427  -0.21144
H     0.14309  -3.06784   0.71475
