33
Generated by autodE on: 2022-06-17. E = -578.155531 Ha
C     3.24368  -1.63641   0.47717
N     2.05252  -1.05311  -0.09451
C     1.60858   0.18359   0.16594
O     2.18736   0.99135   0.91125
C     0.28611   0.55721  -0.52410
C     0.53363   1.79895  -1.38600
N    -0.22240  -0.55344  -1.36631
C    -1.53404  -1.00835  -0.85106
C    -1.39478  -2.28531  -0.02364
C    -2.07486   0.20430  -0.06526
C    -3.21949  -0.06836   0.90207
C    -0.80169   0.76639   0.58659
C    -0.93173   2.17920   1.13984
H     3.96209  -1.92578  -0.30655
H     3.72035  -0.89862   1.13505
H     3.00330  -2.53373   1.06976
H     1.44256  -1.57652  -0.72458
H     1.00499   2.60410  -0.80809
H    -0.41107   2.17229  -1.80833
H     1.20699   1.54186  -2.21984
H    -0.34208  -0.20687  -2.31467
H    -2.18439  -1.22900  -1.71177
H    -0.77832  -2.12548   0.87451
H    -0.91388  -3.07153  -0.62613
H    -2.37722  -2.66178   0.30027
H    -2.41612   0.94247  -0.81337
H    -4.06743  -0.55270   0.39088
H    -2.90393  -0.72403   1.72907
H    -3.59260   0.86821   1.34536
H    -0.54294   0.10077   1.42819
H    -1.66627   2.20267   1.96007
H     0.02803   2.53564   1.54170
H    -1.26946   2.89077   0.37071
