12
Generated by autodE on: 2022-06-17. E = -157.300303 Ha
C     1.92794  -0.13647   0.34923
C     0.56229   0.36384  -0.01221
C    -0.56229  -0.36383   0.01225
C    -1.92793   0.13646  -0.34926
H     2.36084   0.44676   1.18138
H     2.63007  -0.03067  -0.49688
H     1.90859  -1.19650   0.64760
H     0.49734   1.41668  -0.32087
H    -0.49735  -1.41667   0.32092
H    -2.36066  -0.44657  -1.18164
H    -1.90863   1.19657  -0.64734
H    -2.63019   0.03036   0.49671
