21
Generated by autodE on: 2022-07-27. E = -420.768059 Ha
C    -2.29135  -0.97067  -0.15211
C    -1.72298  -0.45756  -1.41403
N    -0.74515   0.43094  -1.47325
C     0.09963   0.94877  -0.51894
C     0.58246   2.34957  -0.76171
C     0.66016   0.19803   0.57262
O     1.30991   0.76773   1.48831
N     0.57499  -1.17822   0.56943
C     1.37232  -1.95795   1.49297
H    -1.74163  -1.82878   0.27684
H    -3.33318  -1.28224  -0.31727
H    -2.25154  -0.18053   0.62179
H    -2.16419  -0.71738  -2.37747
H    -0.63122   0.86113  -2.39644
H     1.61426   2.48449  -0.40444
H    -0.03606   3.11874  -0.25986
H     0.55638   2.58660  -1.84078
H     0.30860  -1.63364  -0.29676
H     1.11220  -3.01942   1.38110
H     2.46007  -1.84576   1.32651
H     1.16616  -1.65833   2.53106
