21
Generated by autodE on: 2022-06-17. E = -420.775810 Ha
C    -3.60768   0.61853  -0.33521
C    -2.12271   0.56516  -0.36668
N    -1.46440  -0.36924   0.28574
C    -0.13154  -0.67114   0.45278
C     0.19075  -1.88249   1.28238
C     0.87051   0.14316  -0.15729
O     0.63042   1.16219  -0.86268
N     2.18236  -0.24704   0.03561
C     3.26869   0.63097  -0.33999
H    -3.96528   1.57143   0.09579
H    -4.03300  -0.20692   0.25814
H    -4.02984   0.56295  -1.35479
H    -1.52812   1.28765  -0.92037
H    -2.07233  -1.02338   0.78648
H    -0.73015  -2.35111   1.66345
H     0.73509  -2.65841   0.71281
H     0.81366  -1.64265   2.16454
H     2.37088  -0.91087   0.77743
H     3.28607   1.57360   0.23937
H     4.22260   0.11110  -0.17767
H     3.20167   0.90254  -1.40389
