46
Generated by autodE on: 2022-06-19. E = -885.747840 Ha
C     0.73360  -1.58729   2.64739
C     0.93085  -1.96873   1.37598
C     1.55979  -3.29376   1.04006
C     0.56794  -1.10996   0.17879
C    -0.75019  -0.29752   0.34306
C    -1.67578  -0.43067  -0.82757
C    -2.96941  -0.80376  -0.81509
C    -3.76109  -0.87886  -2.09423
C    -3.74661  -1.17084   0.42081
C    -0.25241   1.19463   0.53985
C    -0.87487   1.78501   1.78453
C    -2.30239   2.23156   1.67021
O    -0.24005   1.87120   2.82638
N     1.20210   1.18135   0.59978
C     1.64214  -0.00729  -0.13309
C     3.08483  -0.36485   0.22512
C     1.63522   0.27201  -1.65593
O     1.64211  -0.65567  -2.47596
N     1.68121   1.57015  -1.98888
C     1.72608   2.06545  -3.34677
H     1.03549  -2.23354   3.47747
H     0.27643  -0.63144   2.91191
H     2.45210  -3.16090   0.40642
H     1.85256  -3.85209   1.94136
H     0.85712  -3.91357   0.45590
H     0.49331  -1.77057  -0.69412
H    -1.25802  -0.63350   1.25324
H    -1.22738  -0.18681  -1.79899
H    -4.63686  -0.20703  -2.05302
H    -3.15630  -0.60616  -2.97181
H    -4.16108  -1.89667  -2.24916
H    -3.15763  -1.11239   1.34526
H    -4.14333  -2.19746   0.33210
H    -4.62423  -0.51042   0.53147
H    -0.59575   1.78205  -0.32582
H    -2.74089   2.38648   2.66465
H    -2.89631   1.51157   1.08797
H    -2.31963   3.18318   1.11163
H     1.47946   1.09513   1.57982
H     3.17067  -0.59615   1.29642
H     3.74995   0.48032  -0.00560
H     3.42001  -1.23542  -0.35410
H     1.64704   2.21528  -1.20164
H     1.75127   1.21192  -4.03532
H     0.83941   2.67815  -3.57505
H     2.62353   2.68180  -3.51375
