23
Generated by autodE on: 2022-07-27. E = -534.180741 Ha
C    -0.03348   0.63840  -3.45076
N     0.10028   0.43401  -2.02106
C     0.96109  -0.48314  -1.52642
O     1.63348  -1.21776  -2.26605
C     1.13382  -0.58191  -0.05441
C     2.38965  -1.22905   0.43064
N     0.24677  -0.17277   0.83046
C    -1.00922   0.35173   0.80994
C    -1.56109   0.62709   2.09265
C    -2.97255   1.15552   2.16030
O    -0.90482   0.43720   3.14581
H    -0.26108  -0.31202  -3.95488
H     0.89073   1.04468  -3.89542
H    -0.85415   1.34306  -3.63259
H    -0.29520   1.13176  -1.40010
H     2.45436  -1.18827   1.52710
H     3.27739  -0.73748   0.00123
H     2.42650  -2.28512   0.11601
H     0.53587  -0.27286   1.81923
H    -1.56053   0.46504  -0.11696
H    -2.97759   2.11292   2.70642
H    -3.42035   1.30166   1.16759
H    -3.59538   0.45268   2.73808
