23
Generated by autodE on: 2022-06-19. E = -534.192285 Ha
C    -4.19938   0.07863   0.29256
N    -2.97067   0.42337  -0.39369
C    -1.77172   0.03351   0.07801
O    -1.65948  -0.64239   1.11937
C    -0.56567   0.43570  -0.68230
C    -0.51004   1.21216  -1.94942
N     0.55291   0.03348  -0.11374
C     1.84891   0.19047  -0.45463
C     2.80754  -0.40320   0.42043
C     4.26978  -0.24509   0.07961
O     2.46395  -1.03797   1.44386
H    -5.04715   0.47655  -0.27785
H    -4.22500   0.50277   1.30941
H    -4.31207  -1.01348   0.38102
H    -3.02215   0.99839  -1.22591
H     0.00443   2.17743  -1.79266
H     0.07196   0.66118  -2.70924
H    -1.50115   1.41793  -2.37046
H     0.41186  -0.50474   0.75834
H     2.10600   0.74925  -1.35095
H     4.78570   0.25112   0.91807
H     4.72606  -1.24240  -0.03274
H     4.43455   0.33345  -0.83978
