46
Generated by autodE on: 2022-06-19. E = -885.692193 Ha. Imaginary frequency = -358.9 cm-1
C     0.88520  -1.60151   2.68066
C     1.10199  -2.06705   1.43360
C     2.01530  -3.23980   1.18106
C     0.49437  -1.46819   0.22946
C    -0.80266  -0.90636   0.25924
C    -1.56141  -0.75696  -0.97248
C    -2.89994  -0.58895  -1.10642
C    -3.52323  -0.44330  -2.46638
C    -3.86666  -0.55034   0.04305
C    -0.19508   1.33008   0.69605
C    -0.85194   1.68945   1.92543
C    -2.30544   2.08407   1.85606
O    -0.25935   1.64926   3.02144
N     1.15075   1.09592   0.75731
C     1.81270   0.26341  -0.09209
C     3.21463  -0.11148   0.29426
C     1.60695   0.38036  -1.58028
O     1.93417  -0.53973  -2.34381
N     1.10990   1.54125  -2.04717
C     0.84149   1.73772  -3.45845
H     1.36298  -2.07608   3.54284
H     0.24244  -0.74198   2.88185
H     2.82466  -2.96696   0.48479
H     2.46790  -3.61465   2.11067
H     1.46150  -4.06690   0.70401
H     0.81343  -1.90520  -0.71895
H    -1.35292  -0.94631   1.19963
H    -0.96821  -0.79595  -1.89371
H    -4.06764   0.51504  -2.54701
H    -2.77463  -0.48403  -3.27161
H    -4.27280  -1.23532  -2.64510
H    -3.38766  -0.67167   1.02268
H    -4.62213  -1.34829  -0.07121
H    -4.42566   0.40128   0.04919
H    -0.65627   1.56867  -0.25517
H    -2.89254   1.43868   2.52781
H    -2.71305   2.02571   0.83905
H    -2.40882   3.11763   2.22636
H     1.49234   1.08809   1.72262
H     3.26748  -0.38064   1.35922
H     3.90573   0.72907   0.10887
H     3.55221  -0.96119  -0.31153
H     0.91796   2.30026  -1.40340
H     0.11638   0.99514  -3.82808
H     0.42408   2.74180  -3.60173
H     1.75987   1.64446  -4.05941
