63
Generated by autodE on: 2022-06-11. E = -1660.799761 Ha
C    -2.66753   3.88739   1.56330
N    -1.91419   2.99627   0.70514
C    -2.41229   1.84055   0.26191
O    -3.58896   1.50000   0.44490
C    -1.47449   0.98989  -0.63138
C    -1.97445   1.29741  -2.05875
N    -0.06583   1.40666  -0.52844
C     0.79106   0.40312   0.09068
C     0.93767   0.67983   1.62156
O     1.06315  -0.22413   2.44925
N     1.03507   1.98115   1.92222
C     1.08800   2.48860   3.27672
C     2.22307   0.43116  -0.48837
C     3.30190  -0.05652   0.26925
C     4.59690  -0.07305  -0.24994
C     4.84779   0.40100  -1.54006
C     3.78749   0.89697  -2.30016
C     2.49021   0.91190  -1.77976
C     0.02378  -0.97117  -0.18704
C     0.42928  -1.40532  -1.61891
O     0.13642  -0.76617  -2.60627
O     1.18872  -2.48900  -1.66470
C     1.65000  -2.89595  -2.96266
C     0.31581  -2.09288   0.81756
O    -0.55574  -2.65823   1.44860
O     1.59304  -2.42560   0.88911
C     1.95792  -3.39340   1.87892
C    -1.50105  -0.55136  -0.19139
C    -2.31328  -1.50508  -1.08709
C    -3.73546  -1.18028  -1.45183
O    -1.81153  -2.55748  -1.44679
C    -2.08325  -0.65137   1.27169
C    -3.20726  -1.59252   1.59983
O    -1.64961   0.11382   2.10984
H    -3.62860   4.15628   1.09991
H    -2.08452   4.80152   1.72877
H    -2.87839   3.41826   2.53848
H    -0.92653   3.15164   0.54108
H    -3.06548   1.25192  -2.12183
H    -1.52873   0.61882  -2.79066
H    -1.67436   2.32808  -2.30192
H     0.27630   1.65502  -1.44902
H     0.88347   2.63345   1.16047
H     0.09044   2.81539   3.61666
H     1.77536   3.34450   3.33403
H     1.44588   1.69752   3.94680
H     3.13270  -0.43245   1.27596
H     5.41442  -0.45911   0.36322
H     5.86139   0.38816  -1.94718
H     3.96203   1.27709  -3.30916
H     1.69615   1.29064  -2.42249
H     2.26782  -2.10442  -3.41000
H     2.24757  -3.79904  -2.79573
H     0.79505  -3.11525  -3.61765
H     3.04403  -3.51303   1.79433
H     1.69098  -3.02536   2.88012
H     1.45205  -4.35069   1.68931
H    -4.13836  -0.32987  -0.89379
H    -3.75814  -0.94861  -2.52861
H    -4.34856  -2.07961  -1.29917
H    -3.16963  -1.81328   2.67458
H    -4.15390  -1.06958   1.39095
H    -3.18236  -2.52433   1.02534
