35
Generated by autodE on: 2022-06-11. E = -820.745137 Ha
C     5.20213  -1.12482  -1.20623
N     3.76097  -1.26176  -1.24126
C     2.95252  -0.34486  -0.66499
O     3.42169   0.66152  -0.08833
C     1.49911  -0.56711  -0.73866
C     0.84392  -1.65466  -1.52023
N     0.82332   0.36638  -0.07268
C    -0.46305   0.61741   0.22312
C    -0.62369   1.92254   0.88085
O     0.35724   2.68516   1.03533
N    -1.85156   2.26399   1.33406
C    -2.08623   3.51944   2.01513
C    -1.54120  -0.37726   0.08341
C    -2.74480  -0.06654  -0.58044
C    -3.77392  -1.00615  -0.67113
C    -3.62116  -2.27657  -0.10675
C    -2.43284  -2.59722   0.55855
C    -1.40653  -1.65763   0.65892
H     5.65157  -1.96555  -1.74868
H     5.58595  -1.12622  -0.17257
H     5.52604  -0.18533  -1.68161
H     3.36217  -2.09860  -1.64891
H     0.60909  -2.54758  -0.91425
H     1.48766  -1.97319  -2.35256
H    -0.10214  -1.30296  -1.95516
H     1.44790   1.11513   0.28207
H    -2.61556   1.60500   1.23991
H    -1.75386   4.37216   1.40248
H    -1.55117   3.57133   2.97848
H    -3.16142   3.62324   2.20719
H    -2.86426   0.91420  -1.04546
H    -4.69627  -0.74746  -1.19676
H    -4.42479  -3.01267  -0.18279
H    -2.30774  -3.58399   1.01093
H    -0.49103  -1.90911   1.19785
