35
Generated by autodE on: 2022-07-27. E = -820.730321 Ha
C    -4.37238   2.06297   0.72206
N    -3.74760   0.99747  -0.03273
C    -2.39805   0.90409  -0.13530
O    -1.65706   1.70893   0.46229
C    -1.89284  -0.13781  -1.03636
C    -2.75335  -0.75498  -2.09641
N    -0.59982  -0.48551  -1.01988
C     0.38581  -0.36268  -0.09821
C     0.01444  -0.25471   1.33002
O    -1.01851  -0.77194   1.79034
N     0.88030   0.40364   2.13244
C     0.68001   0.47617   3.56444
C     1.75396  -0.53044  -0.57931
C     2.77884  -1.08470   0.22772
C     4.06361  -1.27755  -0.27391
C     4.37414  -0.94033  -1.59792
C     3.37638  -0.39679  -2.41164
C     2.09147  -0.18232  -1.91028
H    -4.19729   3.05107   0.26339
H    -3.97933   2.09847   1.74997
H    -5.45384   1.88341   0.76335
H    -4.33767   0.35390  -0.54659
H    -3.41001  -1.54518  -1.68706
H    -2.13166  -1.22818  -2.87358
H    -3.40342  -0.00984  -2.58108
H    -0.29882  -0.95802  -1.87862
H     1.71020   0.82149   1.72756
H     1.48913   1.07009   4.00723
H     0.68379  -0.52508   4.02613
H    -0.28325   0.95344   3.80570
H     2.55723  -1.38957   1.25084
H     4.82972  -1.71282   0.37270
H     5.38291  -1.09612  -1.98668
H     3.60288  -0.11534  -3.44313
H     1.34576   0.29244  -2.55198
