63
Generated by autodE on: 2022-06-11. E = -1660.744520 Ha. Imaginary frequency = -176.9 cm-1
C    -3.98156   2.78738   1.28064
N    -3.25837   2.23088   0.15470
C    -1.91715   2.09938   0.19695
O    -1.24181   2.60701   1.09626
C    -1.27806   1.40489  -0.97008
C    -1.87882   1.62316  -2.33320
N     0.06201   1.21822  -0.99604
C     0.91932   0.65384  -0.08140
C     0.88956   1.04689   1.40459
O     0.54909   0.27522   2.29722
N     1.45496   2.24551   1.65293
C     1.37866   2.83291   2.97570
C     2.33751   0.51579  -0.53506
C     3.28117  -0.06815   0.33241
C     4.61247  -0.22047  -0.05137
C     5.04068   0.22549  -1.30523
C     4.12388   0.84213  -2.16169
C     2.79043   0.99013  -1.78042
C    -0.19832  -1.28713  -0.21725
C     0.39101  -1.79445  -1.52891
O     0.90514  -1.13296  -2.40519
O     0.31285  -3.12985  -1.57824
C     0.80134  -3.75734  -2.77130
C     0.30694  -2.06408   0.95743
O    -0.35970  -2.44121   1.90288
O     1.59991  -2.36902   0.82067
C     2.21643  -3.09627   1.88765
C    -1.59003  -0.94101  -0.24094
C    -2.39209  -1.16324  -1.46056
C    -3.89373  -0.98848  -1.40883
O    -1.88424  -1.49816  -2.53414
C    -2.36053  -0.98460   1.07336
C    -3.20914  -2.21054   1.34329
O    -2.33833  -0.07061   1.87799
H    -3.59667   3.78558   1.53448
H    -3.88787   2.14624   2.17302
H    -5.04194   2.87359   1.01337
H    -3.78626   1.70782  -0.53312
H    -2.95941   1.44332  -2.35150
H    -1.41774   0.95616  -3.07432
H    -1.71664   2.66860  -2.64696
H     0.37757   0.99264  -1.94176
H     1.54873   2.87864   0.86484
H     1.98778   3.74547   2.99867
H     1.76511   2.12980   3.72649
H     0.33863   3.08732   3.24178
H     2.97230  -0.40654   1.31933
H     5.32035  -0.68422   0.63932
H     6.08450   0.11004  -1.60581
H     4.44806   1.22097  -3.13356
H     2.11429   1.49958  -2.46844
H     0.66053  -4.83462  -2.62601
H     1.86644  -3.52868  -2.91985
H     0.22577  -3.41156  -3.64231
H     1.73765  -4.07824   2.01231
H     2.14188  -2.52981   2.82710
H     3.26718  -3.21908   1.60090
H    -4.24973  -0.36735  -0.57825
H    -4.22632  -0.56063  -2.36474
H    -4.35675  -1.98379  -1.31545
H    -3.08123  -2.48951   2.39777
H    -4.26973  -1.95464   1.19506
H    -2.95215  -3.05969   0.69733
