40
Generated by autodE on: 2022-06-13. E = -1415.997480 Ha
C    -2.48325   3.04710   3.23393
N    -2.50591   1.98425   2.24849
C    -1.39263   1.57695   1.62925
O    -0.27911   2.06286   1.84604
C    -1.55923   0.37721   0.65113
C    -2.87931   0.45417  -0.13781
O    -3.96494   0.47459   0.45984
N    -2.79095   0.46481  -1.47112
C    -3.97263   0.48583  -2.31361
C    -0.36665   0.26485  -0.17766
C     0.70684  -0.12843  -0.57709
C     1.88968  -0.96359  -0.58320
Cl    1.66380  -2.29271  -1.87388
C     3.18766  -0.27629  -1.01864
O     4.28349  -0.62044  -0.63740
O     2.95749   0.71594  -1.86893
C     4.10793   1.40539  -2.38917
C     2.01749  -1.61771   0.80409
C     0.73566  -2.25416   1.37204
C    -0.25561  -1.35611   2.16546
C    -1.58331  -0.96080   1.48922
H    -2.11245   3.98899   2.79900
H    -1.83145   2.78787   4.08314
H    -3.50254   3.20653   3.60613
H    -3.38260   1.54218   1.96988
H    -1.87314   0.42192  -1.90411
H    -4.61091   1.34850  -2.06996
H    -4.57118  -0.42969  -2.18385
H    -3.65782   0.55921  -3.36121
H     3.71600   2.18031  -3.05713
H     4.68128   1.85938  -1.56882
H     4.74762   0.70587  -2.94592
H     2.81791  -2.36772   0.73332
H     2.37945  -0.82930   1.48511
H     0.20413  -2.78446   0.56461
H     1.07997  -3.04042   2.06039
H    -0.54134  -1.91694   3.06827
H     0.26159  -0.45471   2.53218
H    -1.90506  -1.76386   0.80763
H    -2.37276  -0.84585   2.24469
