18
Generated by autodE on: 2022-07-27. E = -585.552881 Ha
N     3.45391   0.33241  -3.01483
C     2.40971  -0.01088  -2.59664
N     1.21938  -0.47701  -2.27042
O     0.91716  -0.00433  -0.99325
C    -0.20804  -0.33640  -0.46589
C    -1.08923  -1.17528  -1.22611
N    -1.83559  -1.85195  -1.80390
C    -0.54234   0.13481   0.85014
C     0.35806   0.96791   1.55751
C     0.02317   1.41459   2.82724
C    -1.19999   1.04250   3.40663
C    -2.09365   0.21872   2.71226
C    -1.77352  -0.23736   1.43866
H     1.30633   1.25206   1.10026
H     0.71437   2.05721   3.37560
H    -1.45566   1.39866   4.40690
H    -3.04314  -0.06792   3.16757
H    -2.46938  -0.88057   0.89716
