39
Generated by autodE on: 2022-06-29. E = -1561.204035 Ha
C     4.53544  -0.06807   0.80914
N     3.14752  -0.42326   0.58555
C     2.54265  -0.23772  -0.58785
O     3.08452   0.14335  -1.62362
C     0.99972  -0.48699  -0.57373
C     0.68374  -1.06606  -1.90621
N     0.49462  -1.63504  -2.89863
N     0.56922  -1.32532   0.52104
C     0.91588  -2.73984   0.49538
C    -0.75097  -0.97674   1.00268
C    -1.89705  -1.77138   0.36846
O    -1.89888  -2.20495  -0.76245
O    -2.91151  -1.88993   1.22203
C    -4.11944  -2.48248   0.71561
C    -0.89943   0.54383   0.70116
C    -2.23629   0.90184   0.25047
N    -3.31357   1.17827  -0.07778
C    -0.44350   1.43932   1.93553
C    -0.70533   2.88425   1.55320
C     0.24149   3.18504   0.65730
C     1.08418   1.92678   0.52250
O     0.97384   1.33518   1.81707
C     0.25948   0.88710  -0.32658
Cl   -0.26692   1.62937  -1.86978
H     5.13051  -0.31840  -0.07915
H     4.91881  -0.62995   1.67036
H     4.64610   1.01080   1.01082
H     2.54453  -0.64025   1.37585
H     1.99568  -2.85675   0.33510
H     0.38237  -3.30095  -0.29116
H     0.66452  -3.17995   1.47114
H    -0.81279  -1.14369   2.08757
H    -4.51460  -1.87663  -0.11260
H    -3.92623  -3.50649   0.36672
H    -4.82557  -2.49067   1.55335
H    -0.80854   1.06758   2.89736
H    -1.55300   3.47964   1.88939
H     0.37626   4.09296   0.07226
H     2.12240   2.05484   0.20498
