25
Generated by autodE on: 2022-07-27. E = -701.700212 Ha
C     4.02306   0.49514  -1.80695
N     2.66462   0.73843  -1.36693
C     2.14938   0.08762  -0.29911
O     2.82211  -0.72004   0.35792
C     0.72924   0.37716   0.00865
C    -0.05516   1.07793  -0.92664
N    -0.64140   1.71570  -1.71158
N     0.17239   0.01473   1.20846
C     1.04440  -0.10563   2.40453
C    -1.12452  -0.18915   1.42054
C    -2.09336  -0.56409   0.39702
O    -1.85273  -0.89976  -0.75221
O    -3.33142  -0.57504   0.92488
C    -4.38608  -1.02622   0.06692
H     4.19936  -0.58057  -1.96038
H     4.76209   0.85608  -1.07227
H     4.18697   1.01965  -2.75618
H     2.11569   1.44471  -1.84547
H     1.44005  -1.12505   2.45987
H     1.86626   0.61215   2.33757
H     0.42797   0.10294   3.28535
H    -1.45643  -0.20771   2.45641
H    -4.44579  -0.39931  -0.83494
H    -4.22358  -2.07321  -0.22956
H    -5.30962  -0.93888   0.65088
