25
Generated by autodE on: 2022-06-29. E = -701.702038 Ha
C    -4.14015   1.42490   0.35768
N    -3.22879   0.29885   0.37320
C    -1.89673   0.48299   0.21676
O    -1.43362   1.62498   0.04908
C    -1.06081  -0.73873   0.26394
C    -1.70548  -1.96554   0.52775
N    -2.32276  -2.93402   0.75069
N     0.30448  -0.73387   0.07147
C     1.01016  -2.03779   0.17291
C     1.00962   0.35615  -0.19876
C     2.45242   0.39701  -0.41152
O     3.26065  -0.51824  -0.38073
O     2.80911   1.67307  -0.66741
C     4.20005   1.91065  -0.90642
H    -3.90985   2.14079   1.16301
H    -4.09242   1.96912  -0.59927
H    -5.16149   1.05161   0.49994
H    -3.60976  -0.63228   0.49716
H     1.76249  -1.97125   0.96478
H     1.50529  -2.24749  -0.78035
H     0.29319  -2.82705   0.40364
H     0.45525   1.28630  -0.26255
H     4.54703   1.34009  -1.78079
H     4.29524   2.98623  -1.09597
H     4.79922   1.62646  -0.02849
