14
Generated by autodE on: 2022-06-29. E = -859.428374 Ha
N     2.99363   1.27467  -0.42240
C     1.91589   0.92496  -0.14708
C     0.61360   0.52260   0.19789
C     0.00948  -0.66944   0.01732
Cl    0.60980  -2.09516  -0.69544
C    -1.44986  -0.47788   0.49458
C    -2.12513   0.45062  -0.53870
C    -1.54769   1.64087  -0.35421
C    -0.52619   1.41941   0.78099
O    -1.21358   0.43830   1.57213
H    -1.97879  -1.38354   0.80723
H    -2.86275   0.13188  -1.27349
H    -1.68504   2.57634  -0.89471
H    -0.20146   2.28532   1.36542
