39
Generated by autodE on: 2022-06-29. E = -1561.120249 Ha. Imaginary frequency = -261.2 cm-1
C     4.39249  -0.58740  -2.11428
N     3.00094  -0.88870  -1.83891
C     2.50506  -0.79772  -0.59186
O     3.21372  -0.50563   0.37705
C     1.01505  -0.98623  -0.46377
C     0.27695  -0.88367  -1.67570
N    -0.20753  -0.70166  -2.71953
N     0.45965  -1.53695   0.66122
C     1.33436  -1.95864   1.78165
C    -0.86173  -1.47712   0.92754
C    -1.93780  -1.91076   0.01841
O    -1.79774  -2.52489  -1.02214
O    -3.12836  -1.61584   0.55456
C    -4.28566  -1.99486  -0.20178
C    -1.00799   0.94107   0.62516
C    -2.21291   1.11291  -0.09187
N    -3.20966   1.25619  -0.67893
C    -0.85777   1.25497   2.14988
C    -0.71548   2.78194   2.27595
C     0.49226   3.06591   1.77531
C     1.07401   1.70172   1.34993
O     0.49840   0.83751   2.33386
C     0.25008   1.28202   0.11238
Cl    0.52797   2.13389  -1.37045
H     5.06514  -1.31608  -1.63409
H     4.65423   0.41438  -1.74077
H     4.55196  -0.61801  -3.19860
H     2.40570  -1.18981  -2.60355
H     2.07683  -2.66577   1.39423
H     1.83613  -1.10407   2.23546
H     0.70369  -2.46814   2.51563
H    -1.11629  -1.61311   1.97879
H    -4.26731  -1.51952  -1.19233
H    -4.32930  -3.08759  -0.31779
H    -5.14950  -1.63992   0.37164
H    -1.55145   0.74070   2.82068
H    -1.49180   3.45228   2.64266
H     0.97311   4.02949   1.61280
H     2.15876   1.58906   1.27113
