40
Generated by autodE on: 2022-06-20. E = -1159.848082 Ha
C    -2.16719   2.36146   2.19205
N    -1.98584   1.76527   0.88190
C    -1.92887   0.42339   0.75578
O    -2.26649  -0.36326   1.64595
N    -1.51747  -0.05059  -0.49704
C    -0.97489  -1.41979  -0.62514
C    -1.47310  -2.42157   0.41198
O    -2.54970  -2.97986   0.26519
C    -0.55083  -2.81391   1.49739
C     0.76634  -2.54232   1.46991
C     1.41323  -1.76858   0.39087
O     2.62762  -1.62164   0.36319
C     0.55178  -1.20251  -0.72096
C     0.69987   0.33817  -0.91792
C     1.73576   0.69249  -2.02133
C     1.91519   2.12104  -2.45816
O     2.39590  -0.19960  -2.51280
C     1.02428   1.03695   0.42450
O     0.87663   0.49856   1.50168
O     1.40601   2.29123   0.27489
C     1.62726   3.06295   1.47070
N    -0.68621   0.79992  -1.26055
C    -1.02874   0.72946  -2.68692
H    -2.16535   3.45300   2.08496
H    -3.12713   2.05466   2.63186
H    -1.36211   2.06997   2.88711
H    -1.51991   2.30137   0.15505
H    -1.33894  -1.81731  -1.58149
H    -0.99251  -3.41072   2.29962
H     1.43672  -2.89824   2.25656
H     0.93029  -1.67844  -1.63492
H     2.09743   2.12940  -3.54213
H     2.81792   2.51141  -1.96128
H     1.07646   2.77274  -2.19493
H     2.36232   2.56226   2.11508
H     0.67939   3.19065   2.01126
H     2.00824   4.03202   1.13094
H    -2.10368   0.92655  -2.78306
H    -0.49102   1.51191  -3.23493
H    -0.79896  -0.24721  -3.14724
