12
Generated by autodE on: 2022-06-20. E = -381.636091 Ha
O     1.82115  -1.94490  -0.11065
C     0.98305  -1.05041  -0.06062
C    -0.46778  -1.35315  -0.11373
C    -1.38544  -0.37227  -0.05533
C    -0.98307   1.05037   0.06127
O    -1.82114   1.94492   0.11032
C     0.46778   1.35315   0.11366
C     1.38544   0.37228   0.05527
H    -0.74067  -2.40746  -0.20098
H    -2.45911  -0.57110  -0.09264
H     0.74068   2.40750   0.20050
H     2.45912   0.57114   0.09216
