40
Generated by autodE on: 2022-06-20. E = -1159.793177 Ha. Imaginary frequency = -372.4 cm-1
C    -4.40543   1.71300   1.22400
N    -3.03662   1.42240   0.84114
C    -2.69576   0.24572   0.28483
O    -3.47319  -0.67679   0.06189
N    -1.29384   0.13974   0.04255
C    -0.62721  -1.67090  -0.29127
C    -0.64142  -2.15647   1.12702
O    -1.67974  -2.50583   1.67431
C     0.64856  -2.19898   1.84830
C     1.81524  -2.03074   1.20259
C     1.87079  -1.76279  -0.26020
O     2.95445  -1.79047  -0.85259
C     0.60954  -1.49273  -0.93905
C     0.58568   0.95502  -0.81888
C     1.44394   1.19050  -2.02185
C     2.88961   1.55219  -1.82471
O     0.98725   1.04714  -3.14914
C     1.07925   1.26018   0.57264
O     0.45890   1.93111   1.37333
O     2.29159   0.77791   0.80848
C     2.88754   1.08592   2.07691
N    -0.76723   0.88509  -0.91267
C    -1.53525   1.12103  -2.14351
H    -5.09408   1.44693   0.40937
H    -4.49574   2.78698   1.42857
H    -4.70588   1.15365   2.12568
H    -2.29165   2.05848   1.11064
H    -1.50152  -1.96126  -0.87742
H     0.59773  -2.42226   2.91667
H     2.77757  -2.10235   1.71488
H     0.65244  -1.43458  -2.02730
H     3.29875   1.85873  -2.79581
H     3.43498   0.66537  -1.46526
H     3.02491   2.34888  -1.08017
H     2.27211   0.68169   2.89233
H     3.87248   0.60673   2.06653
H     2.99051   2.17389   2.19337
H    -1.14150   1.99442  -2.66762
H    -1.47879   0.23518  -2.79176
H    -2.57779   1.30375  -1.86004
