38
Generated by autodE on: 2022-06-20. E = -1158.696151 Ha
C    -2.46485   3.33237  -0.28557
N    -2.17833   1.92061  -0.46552
C    -1.24474   1.29252   0.25357
O    -0.58012   1.82732   1.14266
C    -0.98270  -0.19127  -0.13135
C    -2.33476  -0.88660  -0.38714
O    -2.85040  -0.86841  -1.50935
N    -2.92174  -1.42676   0.68646
C    -4.24890  -2.00682   0.60225
N    -0.19901  -0.12149  -1.37520
C     1.02843  -0.35367  -1.11344
C     2.06661  -0.27602  -2.19417
O     1.93132   0.34014  -3.22859
O     3.14569  -0.98113  -1.86572
C     4.23578  -0.97347  -2.80111
C     1.35316  -0.69447   0.31712
C     2.21114   0.35362   1.00641
O     3.00812   1.04713   0.39659
C     2.06173   0.44999   2.47463
C     0.93719   0.05153   3.09581
C    -0.22389  -0.49346   2.36116
O    -1.28916  -0.68049   2.94077
C    -0.05284  -0.89303   0.91026
H    -2.62760   3.55741   0.77821
H    -1.63400   3.95982  -0.64697
H    -3.37161   3.58409  -0.84822
H    -2.63443   1.40840  -1.21698
H    -2.48321  -1.30279   1.60458
H    -5.00204  -1.24932   0.32974
H    -4.28123  -2.80412  -0.15536
H    -4.51108  -2.43391   1.57776
H     5.01381  -1.60768  -2.36209
H     4.60795   0.05216  -2.93668
H     3.91065  -1.37881  -3.76974
H     1.94416  -1.62377   0.37438
H     2.87544   0.94074   3.01491
H     0.79730   0.18073   4.17199
H    -0.28712  -1.96663   0.87722
