12
Generated by autodE on: 2022-06-20. E = -381.636100 Ha
O    -2.29414  -1.35835   0.04350
C    -1.23836  -0.73362   0.02384
C     0.06846  -1.43265   0.07567
C     1.22492  -0.74718   0.05427
C     1.23836   0.73363  -0.02366
O     2.29414   1.35834  -0.04359
C    -0.06846   1.43265  -0.07569
C    -1.22492   0.74718  -0.05429
H     0.03291  -2.52301   0.13291
H     2.19959  -1.23905   0.09219
H    -0.03292   2.52300  -0.13304
H    -2.19959   1.23906  -0.09232
