38
Generated by autodE on: 2022-06-20. E = -1158.619450 Ha. Imaginary frequency = -275.6 cm-1
C    -1.32765   3.70268   0.89708
N    -1.02002   2.51554   0.12030
C    -1.84810   1.45718   0.12665
O    -2.96056   1.49157   0.67507
C    -1.33401   0.20128  -0.49394
C    -2.13950  -1.05880  -0.69257
O    -1.63911  -2.02460  -1.27939
N    -3.37384  -1.04634  -0.17462
C    -4.22035  -2.22006  -0.21696
N    -0.17709   0.20679  -1.11511
C     0.94297  -0.23751  -1.13560
C     2.14014  -0.26177  -1.99292
O     2.80144   0.73418  -2.17852
O     2.40090  -1.48718  -2.40466
C     3.62913  -1.67422  -3.14095
C     1.17537  -1.17066   0.83996
C     2.34324  -0.29201   1.11392
O     3.47221  -0.57618   0.72053
C     2.07865   0.96070   1.85647
C     0.87659   1.20123   2.41019
C    -0.23608   0.21682   2.33371
O    -1.27398   0.40627   2.97524
C    -0.03248  -0.95648   1.48393
H    -2.22108   4.21273   0.50554
H    -1.51561   3.44199   1.95050
H    -0.47450   4.38875   0.84150
H    -0.08295   2.41425  -0.25642
H    -3.65219  -0.19661   0.32238
H    -3.79489  -3.04666   0.37616
H    -5.20446  -1.96217   0.19257
H    -4.34707  -2.57794  -1.25032
H     3.66382  -2.73962  -3.39094
H     4.48194  -1.39588  -2.50638
H     3.62030  -1.06200  -4.05283
H     1.40593  -2.14114   0.39361
H     2.91394   1.65947   1.94399
H     0.67159   2.11503   2.97315
H    -0.80818  -1.72152   1.50392
