43
Generated by autodE on: 2022-05-30. E = -1127.957475 Ha
C    -1.76559   2.49445  -0.99681
C    -0.94170   1.73249   0.04203
C    -1.06339   2.48224   1.38106
N     0.47754   1.75135  -0.35123
C     1.09504   0.62238   0.33657
C     2.49300   0.30114  -0.13600
C     2.88839   0.45462  -1.47468
C     4.18056   0.11144  -1.88300
C     5.10041  -0.39689  -0.96077
C     4.71921  -0.55337   0.37527
C     3.42877  -0.20287   0.78115
C     0.07740  -0.57140   0.26672
C     0.29371  -1.54651   1.41892
C     0.13193  -1.29308  -1.13322
C    -0.84969  -2.44946  -1.12525
C    -2.05736  -1.88069  -1.20829
C    -1.79419  -0.38232  -1.27765
O    -0.54669  -0.34693  -1.98282
C    -1.31841   0.16762   0.13532
C    -2.35303  -0.11863   1.21513
F    -2.78420  -1.39760   1.24880
F    -1.92145   0.13696   2.46615
F    -3.46392   0.63376   1.02212
H    -1.48717   3.55846  -0.97293
H    -2.84029   2.41824  -0.78014
H    -1.58621   2.12803  -2.01731
H    -2.10542   2.56563   1.71566
H    -0.67414   3.49889   1.22753
H    -0.48204   2.01478   2.18518
H     0.49929   1.54218  -1.34841
H     1.17266   0.87860   1.40353
H     2.18610   0.84083  -2.21630
H     4.46851   0.24120  -2.92910
H     6.11004  -0.66531  -1.28083
H     5.43113  -0.94305   1.10702
H     3.14055  -0.31497   1.82913
H     1.26114  -2.05646   1.28917
H    -0.48653  -2.31646   1.46724
H     0.31816  -1.02191   2.38391
H     1.14318  -1.49962  -1.49570
H    -0.59356  -3.50033  -0.99415
H    -3.04101  -2.34556  -1.16818
H    -2.55817   0.22198  -1.77220
