43
Generated by autodE on: 2022-05-30. E = -1127.881756 Ha. Imaginary frequency = -145.9 cm-1
C    -1.63784   2.85994  -0.95013
C    -0.73343   2.26990   0.08209
C    -0.94817   2.60249   1.52239
N     0.44725   1.80115  -0.31290
C     1.36160   1.12176   0.42873
C     2.58093   0.60425  -0.13221
C     2.87768   0.58827  -1.51990
C     4.05033   0.00542  -1.99819
C     4.97377  -0.58027  -1.12272
C     4.70263  -0.56557   0.25206
C     3.53491   0.01676   0.73935
C    -0.17710  -0.90678   0.46722
C     0.36311  -1.51486   1.71788
C     0.25138  -1.45348  -0.91787
C    -0.67304  -2.64879  -1.21753
C    -1.87196  -2.10306  -1.45820
C    -1.65432  -0.58317  -1.29362
O    -0.31278  -0.45898  -1.79442
C    -1.40247  -0.32765   0.21487
C    -2.54501  -0.25098   1.13608
F    -3.28600  -1.40532   1.14506
F    -2.20132  -0.03669   2.42463
F    -3.44123   0.71742   0.80569
H    -1.61545   3.96591  -0.91539
H    -2.67867   2.55540  -0.76422
H    -1.35729   2.54405  -1.96588
H    -2.00704   2.82128   1.71022
H    -0.36211   3.50383   1.79080
H    -0.63888   1.79795   2.20103
H     0.52400   1.66273  -1.32016
H     1.29218   1.23129   1.50782
H     2.18464   1.02953  -2.23987
H     4.24658   0.00956  -3.07378
H     5.89034  -1.03516  -1.50466
H     5.41360  -1.01022   0.95367
H     3.34149   0.02768   1.81486
H     1.46243  -1.56525   1.69564
H    -0.00626  -2.55437   1.81429
H     0.05331  -0.96827   2.61743
H     1.32432  -1.58797  -1.08682
H    -0.38679  -3.69855  -1.15656
H    -2.82949  -2.58607  -1.65131
H    -2.34993   0.08747  -1.80924
