20
Generated by autodE on: 2022-06-24. E = -457.715344 Ha
C     2.94883  -0.97832   0.66474
N     1.79669  -0.16268   0.31718
C     1.90566   1.23323   0.35034
C     0.85858   2.04773   0.14484
C    -0.53464   1.54340  -0.13979
C    -0.56282   0.02367  -0.12086
C    -1.81249  -0.71909  -0.35081
N    -2.92138   0.03436  -0.55971
O    -1.88187  -1.96487  -0.36127
C     0.56569  -0.70688   0.10309
H     2.72889  -2.03106   0.44713
H     3.20334  -0.88622   1.73450
H     3.82650  -0.67566   0.07345
H     2.90999   1.61007   0.55201
H     1.02533   3.12678   0.17920
H    -0.88932   1.93309  -1.11618
H    -1.24848   1.96214   0.59888
H    -2.90665   1.04584  -0.53481
H    -3.80790  -0.43535  -0.70688
H     0.51608  -1.79698   0.11371
