52
Generated by autodE on: 2022-06-24. E = -1242.874098 Ha. Imaginary frequency = -347.2 cm-1
C     2.00624   3.68491   3.23997
O     1.45128   3.43467   1.94747
C     0.54095   2.42563   1.86674
O     0.19975   1.79738   2.86643
C     0.16283   2.21961   0.49204
C     1.88598   0.54401   0.51036
C     1.10434  -0.53958   0.93900
C     1.20107  -1.86296   0.20613
C     1.59300  -1.65660  -1.23926
C     1.39364  -2.69597  -2.25983
N     0.99843  -3.91319  -1.80883
O     1.57910  -2.50103  -3.47870
C     2.13878  -0.47540  -1.63578
N     2.39521   0.56887  -0.79043
C     2.87882   1.82946  -1.32672
C    -1.01212   0.12083   0.56798
C    -1.49307   0.10398   2.01502
C    -2.52556   1.13885   2.38420
O    -1.24685  -0.83266   2.76004
C    -1.67902  -0.93386  -0.25487
C    -2.61963  -1.82928   0.30169
C    -3.18831  -2.85282  -0.45844
C    -2.83546  -3.02284  -1.79947
C    -1.90576  -2.14980  -2.36967
C    -1.33902  -1.12678  -1.61189
N    -0.79034   1.36837   0.00054
C    -1.29185   1.77458  -1.32423
H     1.22215   3.97412   3.95591
H     2.71638   4.51084   3.11119
H     2.53097   2.79661   3.62254
H     0.42310   3.04199  -0.17279
H     2.42075   1.17914   1.21384
H     0.97611  -0.62154   2.01548
H     0.24736  -2.40984   0.27987
H     1.94353  -2.50507   0.72376
H     0.74368  -4.61838  -2.49192
H     0.73338  -4.06654  -0.84412
H     2.41985  -0.32088  -2.67865
H     2.04981   2.43420  -1.73554
H     3.36235   2.40718  -0.52736
H     3.61079   1.64393  -2.12418
H    -3.49088   0.77517   1.98817
H    -2.33409   2.12100   1.93773
H    -2.60126   1.21745   3.47681
H    -2.91859  -1.74128   1.34456
H    -3.91498  -3.52238   0.00773
H    -3.27476  -3.82957  -2.39069
H    -1.59283  -2.27460  -3.40864
H    -0.59167  -0.49637  -2.07964
H    -1.55094   2.83987  -1.27454
H    -0.53727   1.63407  -2.11215
H    -2.19507   1.21291  -1.57665
