29
Generated by autodE on: 2022-06-16. E = -667.035035 Ha
C     4.07699   1.36968   0.10395
N     2.68597   1.01584  -0.08913
C     2.10345   0.02308   0.60660
O     2.71744  -0.69612   1.40687
C     0.64609  -0.17547   0.36557
N    -0.05792   0.73803  -0.20625
N    -1.35856   0.33375  -0.24793
C    -2.36547   1.15759  -0.67401
C    -1.97071   2.54033  -1.12043
O    -3.52969   0.75572  -0.66909
C    -1.53848  -1.07371   0.19504
C    -1.90099  -1.96790  -0.98569
C    -0.15797  -1.35904   0.86042
C     0.45253  -2.73174   0.57903
H     4.24809   1.83823   1.08793
H     4.71444   0.47524   0.04155
H     4.37848   2.07586  -0.67914
H     2.09625   1.59154  -0.68203
H    -1.25528   2.49103  -1.95462
H    -2.87584   3.07272  -1.43719
H    -1.48319   3.09017  -0.30179
H    -2.34712  -1.10033   0.93714
H    -2.85183  -1.63638  -1.42453
H    -2.02221  -3.00901  -0.65442
H    -1.12406  -1.93685  -1.76402
H    -0.25458  -1.24330   1.95417
H     1.38996  -2.84534   1.13826
H    -0.23466  -3.53016   0.89533
H     0.67309  -2.86946  -0.48930
