17
Generated by autodE on: 2022-06-16. E = -509.629596 Ha
C     2.40306   1.40976  -0.32097
N     2.79548   0.11473   0.20721
C     1.98261  -0.89927   0.53246
O     2.32448  -1.99101   0.98336
C     0.55298  -0.64481   0.31273
N    -0.60409  -0.60626   0.19015
N    -1.86216  -0.56747   0.05897
C    -2.32603   0.64398  -0.46035
C    -3.81540   0.66773  -0.64301
O    -1.59122   1.58285  -0.75194
H     2.88244   1.58917  -1.29456
H     2.69406   2.21465   0.37043
H     1.31440   1.44967  -0.45929
H     3.78646  -0.06450   0.36290
H    -4.08687   0.00216  -1.47913
H    -4.32257   0.28662   0.25544
H    -4.14974   1.68764  -0.86948
