33
Generated by autodE on: 2022-06-29. E = -876.742537 Ha
C    -1.97904  -3.04564   1.15362
N    -1.80450  -1.65652   0.79530
C    -0.76334  -1.24477   0.03842
O     0.10922  -2.05908  -0.34682
C    -0.71607   0.17302  -0.32116
C    -1.62544   1.14954   0.18912
O    -2.64870   0.91894   0.85049
O    -1.25403   2.43029  -0.07956
C    -2.15394   3.45869   0.33389
N     0.31469   0.57562  -1.19798
C    -0.06976   1.33167  -2.40983
C     1.54957   0.13595  -1.11417
C     2.50370   0.28039  -2.24844
C     2.09100  -0.51356   0.12990
O     3.00441  -1.31221   0.08915
O     1.57263  -0.03176   1.25368
C     1.99879  -0.65188   2.47561
H    -2.26007  -3.67192   0.28877
H    -2.77459  -3.12148   1.90623
H    -1.05243  -3.46313   1.57730
H    -2.50733  -0.95562   1.02766
H    -1.70041   4.40452   0.01252
H    -2.27952   3.45792   1.42696
H    -3.13986   3.33727  -0.13996
H    -1.11788   1.62217  -2.33089
H     0.56337   2.22042  -2.52123
H     0.05696   0.68020  -3.28564
H     2.08610  -0.14910  -3.17326
H     3.44450  -0.22680  -2.01235
H     2.71200   1.34420  -2.45025
H     1.76227  -1.72536   2.45198
H     1.43778  -0.15537   3.27519
H     3.07938  -0.51391   2.62329
