33
Generated by autodE on: 2022-07-27. E = -876.734171 Ha
C    -2.28499  -1.57339  -3.31934
N    -1.53455  -0.81771  -2.33993
C    -1.85064  -0.87015  -1.01038
O    -2.79298  -1.58533  -0.62098
C    -1.01591  -0.05865  -0.12852
C    -0.85417  -0.37922   1.25949
O    -1.36963  -1.32246   1.85860
O    -0.04488   0.50085   1.92477
C     0.28646   0.18339   3.27326
N    -0.29028   1.01673  -0.70509
C    -1.06516   2.04059  -1.43969
C     0.98818   1.22740  -0.51093
C     1.63942   2.51208  -0.88529
C     1.83524   0.12392   0.06779
O     1.76409  -1.03697  -0.27423
O     2.71567   0.60356   0.93609
C     3.57902  -0.35200   1.57677
H    -2.12293  -2.66207  -3.22700
H    -1.97719  -1.26033  -4.32574
H    -3.36366  -1.38746  -3.20813
H    -0.63705  -0.43742  -2.61823
H     1.02711   0.92909   3.58792
H    -0.59931   0.24043   3.92451
H     0.71933  -0.82535   3.34702
H    -0.61741   2.23384  -2.42234
H    -2.09363   1.69088  -1.54990
H    -1.06394   2.96896  -0.85089
H     1.56297   2.68461  -1.97144
H     1.13727   3.35817  -0.38696
H     2.69654   2.50733  -0.60241
H     4.22243  -0.84104   0.83195
H     2.97916  -1.10820   2.10227
H     4.18319   0.22081   2.28851
