41
Generated by autodE on: 2022-05-30. E = -1023.304187 Ha
C    -1.95656  -2.22765  -1.99347
C    -2.21178  -1.71751  -0.60931
O    -3.29138  -1.82702  -0.05327
C    -1.06288  -1.00167   0.12628
C    -0.96841  -1.55565   1.55025
O     0.13650  -1.20425  -0.60643
C     1.02526  -0.07324  -0.53410
C     1.75504  -0.02914  -1.87726
C     2.06808  -0.27132   0.57117
C     2.35805  -1.55446   1.05386
C     3.35856  -1.74799   2.01063
C     4.09425  -0.66079   2.49129
C     3.82354   0.62092   2.00252
C     2.81990   0.81236   1.04869
C     0.10258   1.14316  -0.24985
C    -0.30527   2.00171  -1.48545
C    -1.13967   3.16237  -0.96901
C    -2.32608   2.63711  -0.64057
C    -2.20382   1.15538  -0.96717
O    -1.31177   1.15593  -2.08561
C    -1.27453   0.54581   0.13795
F    -1.71986   0.95479   1.38559
H    -2.86965  -2.68463  -2.39592
H    -1.62504  -1.39562  -2.63353
H    -1.13376  -2.95890  -1.97853
H    -0.69268  -2.61896   1.50391
H    -0.21035  -1.01783   2.13248
H    -1.93826  -1.46123   2.05343
H     2.44767   0.82351  -1.91424
H     2.34006  -0.95237  -1.99937
H     1.04150   0.04504  -2.70892
H     1.78937  -2.40537   0.67933
H     3.56384  -2.75536   2.38140
H     4.87541  -0.81101   3.24030
H     4.39522   1.47878   2.36500
H     2.62735   1.81961   0.67279
H     0.48923   1.76562   0.56163
H     0.49313   2.23627  -2.19416
H    -0.77506   4.17946  -0.82421
H    -3.18178   3.11031  -0.16063
H    -3.12548   0.60492  -1.17762
