28
Generated by autodE on: 2022-05-30. E = -616.391615 Ha
C     2.27595   1.94770  -0.31710
C     1.89718   1.57129  -1.73992
O     2.50295   2.10421  -2.70081
C     0.85898   0.61832  -1.95500
C     0.40748   0.22141  -3.31726
O     0.30653   0.15257  -0.81475
C    -0.60005  -0.70613  -0.47253
C    -1.32716  -1.58171  -1.43615
C    -0.87934  -0.75546   0.95618
C    -0.16808   0.05229   1.87557
C    -0.45183  -0.00213   3.23602
C    -1.45324  -0.85485   3.72010
C    -2.16824  -1.65430   2.82330
C    -1.88799  -1.60980   1.45801
H     1.43355   2.42704   0.20549
H     2.57122   1.06692   0.27279
H     3.11678   2.65272  -0.35793
H     0.67130  -0.81588  -3.58775
H    -0.68057   0.33916  -3.45094
H     0.91683   0.88719  -4.02627
H    -0.86444  -1.60114  -2.42319
H    -1.35505  -2.61150  -1.04995
H    -2.37512  -1.25193  -1.54523
H     0.61003   0.72080   1.51146
H     0.11175   0.62756   3.92847
H    -1.67424  -0.89325   4.78913
H    -2.95329  -2.32025   3.18884
H    -2.46191  -2.24089   0.77957
