13
Generated by autodE on: 2022-05-30. E = -406.788331 Ha
F     2.30774   0.19680   0.10141
C     1.03114  -0.15771  -0.01204
C     0.39205  -1.23423   0.44127
C    -1.07692  -0.93385   0.05720
C    -1.57183   0.24390   0.93434
C    -0.90360   1.31212   0.49128
C    -0.01686   0.76843  -0.65666
O    -0.88854  -0.23875  -1.20027
H     0.75215  -2.07927   1.02377
H    -1.74382  -1.79646  -0.04753
H    -2.27386   0.15547   1.76298
H    -0.90281   2.34002   0.85169
H     0.34661   1.47655  -1.40946
