41
Generated by autodE on: 2022-05-30. E = -1023.181690 Ha. Imaginary frequency = -209.2 cm-1
C    -2.01790  -2.00780  -2.04919
C    -1.99213  -1.92357  -0.53650
O    -2.99662  -2.25268   0.12925
C    -0.80353  -1.43741   0.10683
C    -0.61137  -1.52239   1.57949
O     0.17959  -1.12913  -0.76280
C     1.27931  -0.43265  -0.64859
C     1.84799   0.01358  -1.95585
C     2.17370  -0.52757   0.51580
C     2.39337  -1.76936   1.14593
C     3.31389  -1.88012   2.18891
C     4.03823  -0.76224   2.61275
C     3.85168   0.46789   1.97018
C     2.93850   0.58329   0.92381
C    -0.22245   1.64379  -0.01707
C    -0.44144   2.23238  -1.42645
C    -1.41375   3.42956  -1.28694
C    -2.60092   2.88880  -0.99332
C    -2.33660   1.36349  -0.95606
O    -1.34309   1.24814  -1.98668
C    -1.43889   1.11538   0.26438
F    -1.98563   0.91569   1.46938
H    -3.02026  -2.32457  -2.36669
H    -1.77105  -1.03977  -2.50697
H    -1.27592  -2.73726  -2.41191
H    -0.05889  -2.43089   1.87785
H    -0.07523  -0.65871   1.99133
H    -1.60670  -1.56914   2.03695
H     2.37179   0.97293  -1.83947
H     2.59670  -0.71756  -2.31244
H     1.06111   0.11506  -2.71312
H     1.86200  -2.65406   0.79450
H     3.47274  -2.85007   2.66591
H     4.75486  -0.85042   3.43247
H     4.42209   1.34374   2.28791
H     2.79804   1.54582   0.42878
H     0.53463   1.97088   0.69063
H     0.43930   2.38276  -2.05720
H    -1.12911   4.47828  -1.36899
H    -3.55319   3.36805  -0.76928
H    -3.18565   0.68707  -1.10080
