56
Generated by autodE on: 2022-06-26. E = -1245.418092 Ha
C    -1.68119  -3.40521   1.77587
N    -1.21130  -2.08392   1.41128
C    -1.94164  -1.25641   0.65807
O    -3.10568  -1.51182   0.31743
C    -1.27385   0.09137   0.28524
C    -2.09977   1.23489   0.94132
O    -1.52816   2.17218   1.51254
N    -3.42680   1.16363   0.81779
C    -4.29680   2.20461   1.32952
O     0.01955   0.14590   0.85597
C     1.09191   0.18344  -0.09367
C     1.73896   1.59869  -0.07225
O     2.72488   1.85599  -0.77284
N     1.21511   2.46788   0.80148
C     1.68170   3.83865   0.84835
C     2.19954  -0.74437   0.41449
C     3.30282  -1.07299  -0.38986
C     4.32531  -1.88631   0.10163
C     4.27400  -2.37680   1.41087
C     3.19515  -2.03276   2.22682
C     2.17150  -1.21570   1.73458
C     0.41239  -0.21518  -1.46629
C     0.42188  -1.74583  -1.63795
C     1.06640   0.37837  -2.72027
C    -1.06511   0.32516  -1.26724
C    -2.08933  -0.38525  -2.15844
C    -1.17139   1.82698  -1.60474
H    -1.71166  -4.07654   0.90143
H    -1.00183  -3.83019   2.52487
H    -2.69427  -3.34929   2.19938
H    -0.24525  -1.82693   1.58502
H    -3.80973   0.30376   0.42335
H    -4.23671   2.27801   2.42751
H    -5.33065   1.97326   1.04596
H    -4.02099   3.18339   0.90791
H     0.30046   2.24499   1.21283
H     2.76617   3.87793   1.02980
H     1.16655   4.36242   1.66354
H     1.47891   4.37029  -0.09735
H     3.36947  -0.69376  -1.40791
H     5.16892  -2.13818  -0.54542
H     5.07433  -3.01521   1.79231
H     3.14701  -2.39235   3.25741
H     1.35498  -0.92637   2.39546
H    -0.03028  -2.28017  -0.79385
H    -0.12147  -2.02335  -2.55039
H     1.44859  -2.11404  -1.74914
H     2.05220  -0.07401  -2.89486
H     1.20048   1.46317  -2.67535
H     0.44086   0.14145  -3.59443
H    -1.81682  -0.22424  -3.21240
H    -2.16243  -1.46224  -1.98131
H    -3.08806   0.04748  -2.00430
H    -2.18651   2.19027  -1.39399
H    -0.99420   1.97936  -2.67682
H    -0.46795   2.45570  -1.04867
