38
Generated by autodE on: 2022-06-26. E = -1009.357515 Ha
C     2.63101  -3.60100  -1.48186
N     2.58762  -2.24595  -0.97718
C     1.40796  -1.63361  -0.72232
O     0.31771  -2.24331  -0.75523
C     1.46089  -0.20306  -0.44488
O     0.31574   0.45266  -0.16046
C    -0.79090   0.09026   0.40743
C    -0.80225  -1.14811   1.26485
O     0.15689  -1.35366   2.01431
N    -1.90725  -1.90550   1.23577
C    -1.98004  -3.14895   1.97999
C    -1.84951   1.07908   0.35824
C    -2.96947   1.01945   1.22011
C    -3.95789   1.99863   1.15681
C    -3.85438   3.05218   0.24234
C    -2.74820   3.12420  -0.61489
C    -1.75715   2.15078  -0.56438
C     2.54852   0.68917  -0.83075
O     3.66938   0.25300  -1.18615
N     2.31286   2.02165  -0.76418
C     3.32851   2.98667  -1.12746
H     3.66794  -3.96010  -1.45582
H     2.01364  -4.26326  -0.85763
H     2.26100  -3.67871  -2.51993
H     3.38079  -1.61311  -1.11030
H    -2.60514  -1.71587   0.52258
H    -1.75990  -2.97601   3.04321
H    -1.25470  -3.88345   1.59200
H    -2.99217  -3.56061   1.88687
H    -3.05600   0.21775   1.95200
H    -4.81347   1.94233   1.83309
H    -4.63450   3.81517   0.19487
H    -2.66574   3.94198  -1.33409
H    -0.90664   2.19956  -1.24537
H     1.40012   2.34661  -0.46690
H     2.92105   3.99588  -0.99026
H     4.22764   2.88253  -0.49857
H     3.64150   2.87455  -2.17849
