38
Generated by autodE on: 2022-07-27. E = -1009.351193 Ha
C    -0.92848  -3.59487   0.28427
N    -0.83775  -2.19641  -0.08487
C    -1.70518  -1.27806   0.39267
O    -2.73151  -1.62489   1.01806
C    -1.43853   0.13383   0.10494
O    -0.25956   0.62709  -0.23700
C     1.02151   0.51500  -0.33321
C     1.64213   1.73291  -0.94717
O     2.86644   1.81481  -1.11971
N     0.77795   2.70749  -1.28695
C     1.25150   3.95532  -1.84717
C     1.79713  -0.59513   0.19964
C     2.93020  -1.08302  -0.48686
C     3.65879  -2.14859   0.03647
C     3.28348  -2.73251   1.25244
C     2.17281  -2.24469   1.94904
C     1.42895  -1.18886   1.42753
C    -2.47428   1.17954  -0.02896
O    -2.18821   2.30790  -0.48120
N    -3.71938   0.85466   0.36477
C    -4.80985   1.80209   0.29303
H    -0.03336  -4.11159  -0.08245
H    -0.98174  -3.70793   1.37833
H    -1.81968  -4.07403  -0.15194
H    -0.03928  -1.90320  -0.63327
H    -0.21709   2.59280  -1.07057
H     0.38739   4.59040  -2.07740
H     1.82255   3.78411  -2.77347
H     1.90903   4.49331  -1.14400
H     3.21710  -0.63255  -1.43569
H     4.52333  -2.53139  -0.51018
H     3.85804  -3.56874   1.65720
H     1.88241  -2.69064   2.90255
H     0.57332  -0.80575   1.98503
H    -3.83903  -0.07282   0.77396
H    -4.64910   2.66348   0.96328
H    -4.93157   2.19368  -0.72925
H    -5.73810   1.29782   0.58885
