56
Generated by autodE on: 2022-06-26. E = -1245.317923 Ha. Imaginary frequency = -253.3 cm-1
C    -1.35631  -3.56647   1.13376
N    -0.88823  -2.19660   1.16372
C    -1.74736  -1.15765   1.16814
O    -2.98090  -1.36207   1.24117
C    -1.20097   0.20167   1.01566
C    -2.02982   1.41806   1.16705
O    -1.50557   2.55125   1.25650
N    -3.36465   1.26578   1.16424
C    -4.25518   2.40347   1.22352
O     0.10304   0.43692   1.17125
C     1.28449   0.37839   0.57249
C     1.91572   1.70469   0.26628
O     3.08278   1.77729  -0.15320
N     1.14104   2.78192   0.45684
C     1.60246   4.10101   0.08466
C     2.15167  -0.76510   0.87417
C     3.24160  -1.12304   0.05089
C     4.04813  -2.21025   0.38026
C     3.80203  -2.95702   1.53855
C     2.74844  -2.59267   2.38113
C     1.93787  -1.50346   2.06006
C     0.29289  -0.07690  -1.81419
C     0.71422  -1.51300  -1.99586
C     1.18971   0.92899  -2.49553
C    -1.05114   0.23052  -1.60707
C    -2.11365  -0.82711  -1.74578
C    -1.54235   1.63886  -1.81917
H    -1.90331  -3.78881   0.20180
H    -0.48764  -4.23337   1.20256
H    -2.02975  -3.77284   1.97917
H     0.09759  -2.03317   1.00131
H    -3.70132   0.29910   1.15681
H    -4.15097   2.95667   2.17197
H    -5.28980   2.04889   1.13637
H    -4.05238   3.10906   0.40192
H     0.16706   2.66243   0.78134
H     1.85683   4.15198  -0.98740
H     2.50023   4.39383   0.65364
H     0.80386   4.82478   0.29201
H     3.44420  -0.55234  -0.85124
H     4.87700  -2.48083  -0.27787
H     4.43782  -3.80913   1.78912
H     2.56408  -3.14637   3.30450
H     1.15060  -1.19369   2.74739
H     0.29782  -2.18576  -1.23540
H     0.36768  -1.87957  -2.98039
H     1.80606  -1.61529  -1.98361
H     2.25297   0.72353  -2.32206
H     0.98699   1.96609  -2.20526
H     1.01698   0.85961  -3.58682
H    -2.38695  -0.89549  -2.81644
H    -1.78865  -1.82533  -1.43272
H    -3.02689  -0.56858  -1.19473
H    -2.57153   1.76030  -1.45585
H    -1.54914   1.86897  -2.90096
H    -0.90920   2.38769  -1.32837
