44
Generated by autodE on: 2022-06-21. E = -1183.075174 Ha
C     3.79477   1.95646   0.18024
O     3.09158   0.78515  -0.28249
C     1.84662   0.63105   0.12732
O     1.25116   1.40267   0.85056
C     1.23066  -0.72130  -0.30041
C     1.91619  -1.23907  -1.49247
N     2.46751  -1.66368  -2.41897
N     1.28113  -1.67115   0.80805
C     2.58152  -1.89795   1.41952
C     0.22641  -1.29488   1.74949
C    -0.91085  -0.68772   0.91048
O    -2.02080  -1.56703   0.99163
C    -3.25151  -1.18849   0.38248
C    -1.37796   0.66500   1.48645
O    -1.41772   0.80863   2.69702
C    -1.92395   1.69753   0.57091
C    -2.80211   2.75134   1.16675
C    -1.56563   1.72839  -0.74362
C    -2.02720   2.81810  -1.65989
C    -0.59901   0.75386  -1.28180
O    -0.00887   0.94292  -2.33416
C    -0.32032  -0.56936  -0.54221
O    -0.83160  -1.51849  -1.44121
C    -0.67611  -2.92414  -1.22069
H     3.85516   1.94559   1.27718
H     3.27419   2.86291  -0.15762
H     4.79472   1.89704  -0.26221
H     3.31709  -2.18018   0.65275
H     2.49608  -2.72914   2.13440
H     2.96195  -1.01511   1.97095
H    -0.13788  -2.18081   2.28746
H     0.58515  -0.56830   2.49730
H    -3.12183  -0.88658  -0.66676
H    -3.89211  -2.08017   0.41929
H    -3.75150  -0.37590   0.93728
H    -2.33095   3.74441   1.07396
H    -2.99854   2.55463   2.22677
H    -3.75902   2.80634   0.62343
H    -1.69040   2.64368  -2.68835
H    -3.12549   2.89642  -1.64496
H    -1.63573   3.79419  -1.32627
H    -1.37600  -3.40394  -1.91876
H    -0.93432  -3.21546  -0.19680
H     0.34314  -3.25879  -1.46123
