26
Generated by autodE on: 2022-06-21. E = -689.456762 Ha
C    -2.07392  -2.74064   0.41243
O    -2.00919  -1.39301  -0.07524
C    -0.84603  -0.70984  -0.03710
C    -0.86963   0.61441   0.29130
O    -2.03626   1.16849   0.67941
C    -2.37453   2.50508   0.28332
C     0.39768   1.38260   0.38292
O     0.39578   2.51525   0.85612
C     1.66819   0.74286  -0.06833
C     2.91186   1.57554  -0.03564
C     1.68327  -0.56015  -0.44192
C     2.94307  -1.25445  -0.85624
C     0.41239  -1.33968  -0.50839
O     0.39304  -2.47490  -0.97568
H    -3.09801  -2.87949   0.78626
H    -1.87406  -3.46329  -0.38980
H    -1.36438  -2.89925   1.23810
H    -3.47142   2.53422   0.22204
H    -1.95156   2.74680  -0.70311
H    -2.02741   3.23829   1.02317
H     2.69431   2.60294   0.27897
H     3.38996   1.59927  -1.02850
H     3.65174   1.14410   0.65920
H     2.75818  -2.31045  -1.08547
H     3.37769  -0.77267  -1.74833
H     3.70371  -1.18800  -0.06156
