26
Generated by autodE on: 2022-06-16. E = -482.196159 Ha
C     2.64806   1.06264  -0.14462
C     1.19507   0.78827   0.04643
N     0.37099   1.59721   0.59550
C    -0.96500   0.97826   0.64042
C    -2.07156   2.00302   0.44810
C    -0.93336  -0.20921  -0.37510
C    -1.83629  -1.36701   0.05553
C    -1.31096   0.23325  -1.79439
C     0.59408  -0.54877  -0.37416
C     0.96616  -1.60768   0.63230
O     1.45371  -2.68165   0.34171
H     2.90759   1.00230  -1.21483
H     3.25031   0.29339   0.36845
H     2.92115   2.05385   0.24163
H    -1.08212   0.55044   1.65205
H    -2.05200   2.74029   1.26546
H    -1.96176   2.54904  -0.50086
H    -3.05922   1.51655   0.45526
H    -1.61780  -1.70663   1.07978
H    -2.89225  -1.05496   0.02779
H    -1.72348  -2.22893  -0.62106
H    -1.16471  -0.60076  -2.49827
H    -2.36717   0.53618  -1.84869
H    -0.69246   1.07701  -2.13746
H     0.95546  -0.89136  -1.35517
H     0.76947  -1.34662   1.69965
