12
Generated by autodE on: 2022-06-16. E = -211.410652 Ha
C    -2.29417  -0.27926   0.29519
C    -0.95475  -0.03372   0.92179
N     0.03002   0.27722   0.24370
C     1.10803   0.57393  -0.37170
C     2.07497  -0.45333  -0.87428
H    -2.31297  -0.15450  -0.80297
H    -2.62577  -1.29909   0.55107
H    -3.03367   0.39933   0.75123
H     1.33314   1.63901  -0.51132
H     3.06606  -0.31783  -0.40663
H     1.72065  -1.47158  -0.65860
H     2.22078  -0.35533  -1.96378
