14
Generated by autodE on: 2022-06-16. E = -270.687344 Ha
C    -0.77494   2.22161   0.15087
C    -0.64095   0.73959  -0.02564
C    -1.91570   0.03079  -0.37354
C     0.56807   0.13859   0.13064
C     0.83366  -1.28229  -0.00951
O     1.94637  -1.78188   0.13929
H    -1.17352   2.67856  -0.77148
H    -1.50949   2.44300   0.94453
H     0.18030   2.70177   0.40396
H    -2.33318   0.46000  -1.30014
H    -1.80950  -1.05179  -0.50704
H    -2.66494   0.21580   0.41491
H     1.44130   0.74864   0.38532
H    -0.03004  -1.93605  -0.26546
