26
Generated by autodE on: 2022-06-16. E = -482.101111 Ha. Imaginary frequency = -246.7 cm-1
C     2.61507   0.80589   1.36469
C     1.22233   0.67002   0.94265
N     0.12493   1.14521   1.07123
C    -1.13506   1.27439   0.69139
C    -1.47655   2.36712  -0.27955
C    -1.19776  -0.74722  -0.49073
C    -1.50654  -1.58447   0.73150
C    -2.38457  -0.44532  -1.37266
C     0.07216  -0.74700  -1.05463
C     1.25317  -1.33045  -0.48641
O     2.37825  -1.36790  -1.03935
H     2.91512   1.86333   1.43912
H     3.26941   0.27134   0.65812
H     2.72872   0.33258   2.35450
H    -1.88193   0.99408   1.44092
H    -1.43998   3.36118   0.20058
H    -0.77204   2.37255  -1.12604
H    -2.49591   2.22611  -0.66292
H    -0.74995  -1.47778   1.52162
H    -2.48508  -1.31410   1.15453
H    -1.54967  -2.65404   0.45956
H    -2.76535  -1.38780  -1.80731
H    -3.21646   0.00078  -0.80691
H    -2.12165   0.22296  -2.20520
H     0.21753  -0.24685  -2.01989
H     1.10027  -1.89881   0.45981
