57
Generated by autodE on: 2022-10-08. E = -1317.016028 Ha
C     4.61612  -2.55901   0.86369
N     3.52853  -1.59489   0.92360
C     2.90760  -1.17771  -0.17472
O     3.20730  -1.50582  -1.32416
C     1.69168  -0.20667   0.01219
C     2.01694   0.83953   1.10505
O     1.95810   0.58091   2.28606
O     2.44346   1.98228   0.59408
C     2.80180   3.03073   1.51808
N     1.49527   0.45383  -1.30450
C     0.04764   0.23277  -1.78629
N     0.16251  -0.83961  -2.73727
N    -0.37111   1.44107  -2.43119
C    -1.80072   1.65145  -2.65205
C    -0.65941  -0.16983  -0.40801
C    -1.86547  -1.07571  -0.68921
C    -3.16686  -0.55375  -0.70496
C    -4.26218  -1.35989  -1.02329
C    -4.07819  -2.71136  -1.32521
C    -2.78830  -3.24745  -1.30154
C    -1.69471  -2.43734  -0.98759
C    -1.01667   0.97615   0.55940
C    -1.70183   0.63924   1.74424
C    -1.93338   1.58592   2.74082
C    -1.49207   2.90338   2.57880
C    -0.83222   3.25807   1.40287
C    -0.59922   2.30584   0.40394
N     0.46469  -0.96120   0.17155
C     0.26983  -1.71942   1.40017
H     5.03684  -2.67432   1.86905
H     4.25645  -3.53695   0.50819
H     5.40176  -2.20738   0.17941
H     3.19468  -1.27915   1.83130
H     3.64732   2.70296   2.13789
H     3.08251   3.88871   0.89870
H     1.93901   3.27393   2.15205
H     1.72503   1.45591  -1.26206
H     2.13938  -0.01982  -1.96923
H     0.42636  -1.71510  -2.28482
H    -0.74128  -0.98957  -3.18582
H     0.10206   1.45901  -3.33522
H    -1.90755   2.48252  -3.36246
H    -2.32554   0.77600  -3.07361
H    -2.30366   1.94751  -1.72325
H    -3.33626   0.49459  -0.46497
H    -5.26440  -0.92546  -1.03146
H    -4.93447  -3.34365  -1.57113
H    -2.62728  -4.30452  -1.52494
H    -0.69977  -2.88074  -0.96199
H    -2.07318  -0.37462   1.88810
H    -2.46609   1.29225   3.64824
H    -1.67149   3.64631   3.35927
H    -0.49453   4.28531   1.24853
H    -0.10456   2.61679  -0.51226
H    -0.65493  -2.30079   1.31431
H     1.09481  -2.43386   1.52090
H     0.20915  -1.09700   2.30432
