44
Generated by autodE on: 2022-10-14. E = -1071.755555 Ha
C     5.06123  -0.24716  -0.51296
N     3.83733  -0.36329   0.24789
C     2.66379  -0.68756  -0.35586
O     2.65540  -1.02254  -1.56810
C     1.42905  -0.63180   0.40628
C     1.17208  -0.08395   1.69824
O     0.06851  -0.01565   2.25491
O     2.28771   0.39194   2.33525
C     2.09816   0.93654   3.64087
N     0.26714  -1.14825  -0.25071
C     0.25985  -2.59403  -0.51411
C    -0.78210  -0.38062  -0.45211
C    -2.13136  -0.94525  -0.62447
C    -2.62497  -1.89546   0.28843
C    -3.92469  -2.38137   0.15336
C    -4.73532  -1.93604  -0.89655
C    -4.25174  -0.98518  -1.80215
C    -2.96167  -0.47639  -1.65857
C    -0.63478   1.08604  -0.50416
C    -1.56056   1.90857   0.15636
C    -1.44148   3.29809   0.07837
C    -0.41571   3.87073  -0.67787
C     0.49701   3.05184  -1.35726
C     0.39830   1.66634  -1.26484
H     5.88330  -0.00445   0.17284
H     5.30624  -1.18937  -1.02789
H     5.00545   0.54349  -1.28227
H     3.79277   0.00072   1.19339
H     1.70591   0.17772   4.33472
H     3.08825   1.26975   3.97623
H     1.40529   1.79089   3.61603
H    -0.53199  -2.85471  -1.22448
H     1.23446  -2.84680  -0.94598
H     0.12488  -3.14568   0.42609
H    -1.99912  -2.22216   1.11985
H    -4.30881  -3.10707   0.87337
H    -5.75088  -2.32396  -1.00366
H    -4.88584  -0.63307  -2.61855
H    -2.58417   0.27441  -2.35483
H    -2.36058   1.45644   0.74448
H    -2.15549   3.93388   0.60630
H    -0.32869   4.95757  -0.74652
H     1.28870   3.49866  -1.96266
H     1.10398   1.02272  -1.79210
