13
Generated by autodE on: 2022-10-08. E = -245.298490 Ha
C     1.41589  -1.35580   0.25940
N     0.85059  -0.18093  -0.38190
C    -0.34061   0.33559  -0.07038
N    -1.09311  -0.23022   0.87557
N    -0.78278   1.42359  -0.70817
H     2.38791  -1.56367  -0.20168
H     1.57021  -1.19164   1.33791
H     0.77186  -2.23915   0.12235
H     1.38451   0.28242  -1.11103
H    -1.99767   0.16333   1.11062
H    -0.77819  -1.05354   1.37445
H    -0.22037   1.86231  -1.42876
H    -1.68341   1.82762  -0.47547
