43
Generated by autodE on: 2022-06-05. E = -1782.439986 Ha
C     0.23947   4.57254  -1.24508
O     0.72911   3.34096  -0.68151
C     0.16869   2.94038   0.44633
O    -0.67942   3.54075   1.06776
C     0.73864   1.62093   0.91535
O     0.94316   0.66668  -0.13417
C     1.57084  -0.32535   0.64666
C     2.10978  -1.46421  -0.15147
C     2.40077  -2.67902   0.48289
C     2.88205  -3.75479  -0.26443
C     3.06446  -3.62204  -1.64474
C     2.77304  -2.40911  -2.27648
C     2.30087  -1.32695  -1.53177
O     2.67804   0.45523   1.27169
C     2.18404   1.69527   1.45931
O     2.77456   2.60815   1.96754
C     0.58986  -0.58114   1.81147
C    -0.70053  -1.45152   1.60945
O    -1.59938  -0.75814   2.48603
C    -1.55389   0.50885   1.81529
C    -1.85844   0.07924   0.37899
C    -2.52272   0.93241  -0.65525
F    -3.17605   0.19977  -1.56819
F    -1.62771   1.69095  -1.32744
F    -3.40562   1.77434  -0.09736
C    -1.33325  -1.14684   0.25336
C    -1.31549  -2.05660  -0.94007
F    -0.87882  -1.43420  -2.05030
F    -2.54205  -2.53405  -1.20998
F    -0.51629  -3.11523  -0.73166
C    -0.03367   0.83184   1.99090
H     0.81766   4.73303  -2.16136
H     0.39510   5.40057  -0.53986
H    -0.83061   4.47602  -1.47653
H     2.24417  -2.78815   1.55768
H     3.10741  -4.70174   0.23072
H     3.43226  -4.46787  -2.23025
H     2.91267  -2.30519  -3.35473
H     2.06298  -0.38168  -2.01988
H     1.12540  -0.94014   2.69577
H    -0.59694  -2.50580   1.87885
H    -2.23710   1.23624   2.26102
H     0.11873   1.25994   2.98736
