24
Generated by autodE on: 2022-06-05. E = -800.464884 Ha
C     4.19027   0.75677   1.82002
O     2.89107   0.52038   1.26400
C     2.86023  -0.00752   0.02643
O     3.86155  -0.28589  -0.61985
C     1.52212  -0.20812  -0.45655
O     0.41300   0.12689   0.33086
C    -0.66433  -0.14989  -0.33991
C    -1.98612   0.08293   0.18328
C    -3.10978  -0.24471  -0.60121
C    -4.38569  -0.01387  -0.09618
C    -4.54485   0.53946   1.18013
C    -3.42720   0.86479   1.95957
C    -2.14544   0.63959   1.46874
O    -0.41510  -0.64292  -1.51053
C     1.08525  -0.71932  -1.67909
O     1.53093  -1.15381  -2.70947
H     4.01905   1.18814   2.81331
H     4.75294  -0.18418   1.90930
H     4.75891   1.46135   1.19544
H    -2.97196  -0.67470  -1.59416
H    -5.26116  -0.26503  -0.69781
H    -5.54873   0.71918   1.57122
H    -3.55943   1.29644   2.95340
H    -1.26783   0.89042   2.06610
