27
Generated by autodE on: 2022-06-16. E = -706.783961 Ha
C     3.64423  -0.71796  -1.03778
O     2.46703  -0.23688  -0.36834
C     1.30371  -0.42186  -0.98761
O     1.18649  -0.95564  -2.06982
C     0.17655   0.17168  -0.18340
C     0.23393   1.73070  -0.10420
C    -1.20822   2.05920   0.34034
C    -1.83504   0.66384   0.41994
C    -3.32345   0.56033   0.56358
O    -1.19638   0.03940   1.64902
C     0.05819  -0.27117   1.29396
O     0.87277  -0.75660   2.04117
N    -1.19434  -0.04448  -0.67233
C    -1.59536  -1.44168  -0.84491
H     3.57305  -1.80239  -1.20258
H     3.76974  -0.20638  -2.00265
H     4.48346  -0.48764  -0.37207
H     1.00890   2.06533   0.59606
H     0.46205   2.12370  -1.10308
H    -1.26073   2.55997   1.31536
H    -1.74503   2.66570  -0.40054
H    -3.63816  -0.47542   0.74972
H    -3.80543   0.92408  -0.35502
H    -3.65523   1.18546   1.40439
H    -1.46348  -2.05645   0.06505
H    -1.00453  -1.88553  -1.65313
H    -2.65259  -1.48004  -1.13684
