21
Generated by autodE on: 2022-06-16. E = -628.122763 Ha
C     3.69258  -0.25641  -0.43893
O     2.40202  -0.02736   0.13287
C     1.33827  -0.28698  -0.66055
O     1.46328  -0.70373  -1.80783
C     0.09659  -0.01156   0.00946
C    -0.11266   0.47427   1.31687
O     0.56568   0.79481   2.27464
O    -1.55475   0.57398   1.41975
C    -2.10405   0.17904   0.27920
C    -3.57247   0.17408   0.11023
N    -1.17868  -0.17761  -0.58310
C    -1.43739  -0.67792  -1.93009
H     3.81417  -1.31131  -0.72707
H     4.41801   0.00403   0.34126
H     3.84915   0.37891  -1.32358
H    -3.86598   0.77685  -0.76255
H    -4.03506   0.59131   1.01251
H    -3.94034  -0.85287  -0.04237
H    -2.51925  -0.71778  -2.09279
H    -0.97423  -0.01036  -2.66615
H    -1.00905  -1.68139  -2.03573
