35
Generated by autodE on: 2022-06-18. E = -953.011356 Ha
C    -4.56257  -0.72239  -0.63113
N    -3.20088  -0.58680  -0.14968
C    -2.19948  -0.24208  -0.97274
O    -2.35645   0.00526  -2.17051
C    -0.82582  -0.11935  -0.33261
N     0.29235  -0.36590  -1.25810
C     1.31807  -0.25673  -0.25555
C     2.72562  -0.64226  -0.70341
C     3.29643  -1.92679  -0.19897
O     3.29900   0.11350  -1.46315
O     0.85840  -1.14340   0.84523
C    -0.48542  -1.07498   0.81929
O    -1.19773  -1.64620   1.60998
C     1.11673   1.18458   0.23058
C     1.85487   1.51117   1.49605
O     2.74116   0.81598   1.94968
C    -0.45162   1.33057   0.22666
C    -0.89621   2.41211  -0.75803
C    -1.05279   1.60291   1.60743
H    -5.22631  -0.89609   0.22437
H    -4.66102  -1.56486  -1.33540
H    -4.88139   0.19308  -1.15101
H    -2.96290  -0.89683   0.79045
H     0.24833  -1.31283  -1.64492
H     3.40058  -1.86635   0.89598
H     4.27289  -2.11021  -0.66423
H     2.60210  -2.75604  -0.40858
H     1.54662   1.85440  -0.53212
H     1.58457   2.47727   1.97766
H    -1.99056   2.52524  -0.75101
H    -0.57336   2.18074  -1.78133
H    -0.45298   3.37462  -0.46041
H    -0.84075   2.63817   1.91044
H    -0.65662   0.93752   2.38899
H    -2.14511   1.47954   1.57552
