21
Generated by autodE on: 2022-06-18. E = -682.309833 Ha
C    -4.37654  -0.25006  -0.11738
N    -3.00702   0.18070   0.07365
C    -1.96616  -0.61171  -0.25164
O    -2.09175  -1.75515  -0.71775
C    -0.64180  -0.03716  -0.01772
N     0.50494  -0.73030  -0.28530
C     1.56771  -0.00560   0.00688
C     2.96569  -0.43237  -0.15727
C     4.02370   0.54833   0.23911
O     3.18011  -1.55242  -0.60304
O     1.18183   1.18460   0.47369
C    -0.25005   1.23256   0.48468
O    -0.84136   2.22336   0.87273
H    -5.04848   0.52037   0.27939
H    -4.57274  -1.19648   0.41050
H    -4.60786  -0.40524  -1.18405
H    -2.81457   1.11058   0.43770
H     0.54137  -1.68054  -0.66296
H     5.01473   0.11755   0.05105
H     3.90063   1.48515  -0.32826
H     3.91654   0.80188   1.30665
