39
Generated by autodE on: 2022-06-18. E = -823.824186 Ha
C     3.52410  -0.23617  -3.49661
C     2.98618  -0.57440  -2.30749
C     3.43297  -1.79517  -1.54845
C     1.93109   0.26309  -1.72767
C     1.31421   0.04289  -0.55440
C     0.25187   0.94730  -0.00417
N    -0.93176   0.15046   0.42262
C    -1.71511  -0.64124  -0.42725
C    -1.65023  -0.45043  -1.81983
C    -2.43992  -1.23086  -2.66650
C    -3.30211  -2.20208  -2.15022
C    -3.36749  -2.38488  -0.76399
C    -2.58370  -1.61753   0.09636
N    -1.02137   0.03232   1.74712
C    -0.15339   0.81890   2.31130
C    -0.04403   0.90685   3.71999
N     0.09424   1.01334   4.87332
C     0.62314   1.68853   1.32908
C     2.12166   1.74177   1.62642
C     0.02389   3.10431   1.33566
H     4.31147  -0.83815  -3.95884
H     3.18812   0.65419  -4.03675
H     4.22256  -2.33460  -2.09011
H     2.59049  -2.48680  -1.38146
H     3.81822  -1.52278  -0.55177
H     1.63369   1.13772  -2.31825
H     1.57277  -0.82105   0.06483
H    -0.04497   1.68118  -0.76455
H    -0.99175   0.30462  -2.24574
H    -2.37754  -1.07026  -3.74549
H    -3.91650  -2.80912  -2.81841
H    -4.03625  -3.13927  -0.34218
H    -2.63553  -1.76583   1.17390
H     2.29305   2.26634   2.57922
H     2.56284   0.73846   1.70284
H     2.64946   2.29239   0.83378
H     0.53249   3.72957   0.58488
H    -1.05082   3.08192   1.09979
H     0.15258   3.57341   2.32336
