37
Generated by autodE on: 2022-05-30. E = -1410.698254 Ha
C     3.66008   2.80040  -0.29875
N     2.79229   1.63814  -0.34044
C     2.14046   1.21034   0.74380
O     2.23786   1.72421   1.86136
C     1.24623  -0.02948   0.57505
C     1.80328  -1.13199   1.47510
O     1.28638  -0.44393  -0.80406
C     0.11087  -1.12056  -1.16606
C     0.27075  -2.58315  -0.93591
N     0.48849  -3.71397  -0.81204
C    -0.07622  -0.94519  -2.62263
N    -0.20605  -0.82402  -3.76640
C    -1.06401  -0.46949  -0.31338
Cl   -2.17678  -1.75773   0.26799
C    -1.81723   0.65138  -1.06442
C    -2.92828   1.22933  -0.16402
C    -2.14044   2.03326   0.90751
C    -0.67031   1.80639   0.50580
C    -0.77903   1.78867  -1.02945
C    -0.27221   0.31963   0.82726
C    -0.65616  -0.05407   2.18177
N    -0.95264  -0.31693   3.27145
H     3.08604   3.72172  -0.10937
H     4.17385   2.89380  -1.26279
H     4.40994   2.69495   0.49910
H     2.60778   1.17489  -1.22461
H     1.92085  -0.75165   2.49684
H     2.78949  -1.42717   1.09010
H     1.14973  -2.01370   1.50221
H    -2.17031   0.32065  -2.04766
H    -3.57092   0.45066   0.26365
H    -3.56303   1.88631  -0.77383
H    -2.36205   3.10741   0.84470
H    -2.35776   1.71355   1.93514
H     0.02684   2.51899   0.95574
H    -1.19613   2.72743  -1.41867
H     0.15853   1.58376  -1.55789
