19
Generated by autodE on: 2022-05-30. E = -585.842791 Ha
C    -3.82544   0.39215  -0.27020
N    -2.38333   0.28970  -0.16734
C    -1.78467  -0.89651   0.01733
O    -2.38857  -1.96899   0.11872
C    -0.28512  -0.88321   0.10053
C     0.48175  -2.12132   0.29658
O     0.24045   0.27803  -0.00788
C     1.51774   0.73519   0.00075
C     1.62426   2.13289  -0.10993
N     1.73389   3.29347  -0.19787
C     2.66022  -0.07838   0.08433
N     3.66033  -0.68166   0.14374
H    -4.09869   1.44836  -0.37571
H    -4.31343  -0.01741   0.62793
H    -4.20167  -0.16430  -1.14364
H    -1.81514   1.12650  -0.25305
H     1.10065  -2.04644   1.20692
H    -0.21140  -2.96400   0.38601
H     1.16493  -2.29191  -0.55301
