37
Generated by autodE on: 2022-05-30. E = -1410.623099 Ha. Imaginary frequency = -276.0 cm-1
C     3.22551   3.08269  -0.17726
N     2.67613   1.75123  -0.34352
C     2.33486   0.99885   0.71226
O     2.53704   1.31854   1.88780
C     1.63924  -0.30413   0.41659
C     1.79596  -1.42801   1.37244
O     1.38120  -0.48428  -0.85510
C     0.50563  -1.35616  -1.41226
C     0.37748  -2.70292  -0.99729
N     0.20199  -3.81687  -0.70004
C     0.13669  -1.03179  -2.74014
N    -0.22235  -0.76193  -3.81643
C    -1.39337  -0.29748  -0.02554
Cl   -2.26748  -1.73105   0.39602
C    -1.95794   0.67461  -1.03553
C    -3.03355   1.48070  -0.22918
C    -2.17934   2.32122   0.76140
C    -0.72033   1.89506   0.41564
C    -0.82849   1.71848  -1.10982
C    -0.60919   0.43146   0.88432
C    -0.55253   0.11541   2.26878
N    -0.51003  -0.11558   3.40898
H     2.46559   3.78493   0.20438
H     3.58551   3.44230  -1.14851
H     4.06402   3.06602   0.53380
H     2.41791   1.43430  -1.27283
H     2.00927  -1.02583   2.36748
H     2.66614  -2.02259   1.03822
H     0.92890  -2.09479   1.42202
H    -2.31569   0.22781  -1.96917
H    -3.75184   0.81623   0.26953
H    -3.58977   2.11843  -0.93058
H    -2.29696   3.39905   0.57999
H    -2.42428   2.12647   1.81487
H     0.05966   2.55981   0.80302
H    -1.15725   2.64087  -1.60785
H     0.08765   1.36519  -1.59039
