13
Generated by autodE on: 2022-05-29. E = -490.078122 Ha
C    -3.37089  -0.39908   0.36108
O    -1.97528  -0.05786   0.45838
C    -1.17105  -0.59906  -0.44212
O    -1.49565  -1.35525  -1.33437
C     0.24533  -0.19166  -0.28245
O     0.53805   0.62284   0.64514
N     1.77564   1.13255   0.94937
C     2.72845   0.68230   0.14562
N     3.64828   0.35002  -0.50451
H    -3.50146  -1.48640   0.45537
H    -3.77501  -0.05879  -0.60292
H    -3.86329   0.12097   1.18961
H     1.00815  -0.58631  -0.96349
