32
Generated by autodE on: 2022-05-29. E = -1485.219699 Ha. Imaginary frequency = -156.1 cm-1
C     4.33296   0.55613   1.38453
O     3.17659   0.86250   0.59379
C     2.61037  -0.15801  -0.06634
O     3.02223  -1.30233  -0.02437
C     1.46784   0.29932  -0.86188
C     0.65025  -0.39942  -1.67230
Cl    0.56522  -2.07309  -1.98888
C    -0.33950   0.62118  -2.26232
O     0.52949   1.76304  -2.35532
C     0.93199   1.73994  -0.96627
C    -0.45799   1.79684  -0.29386
C    -1.27245   1.08193  -1.11568
C    -1.81847  -0.76661   0.37341
C    -2.99802  -0.02171   0.90300
O    -3.04036   0.63023   1.92122
O    -4.02428  -0.21856   0.07569
C    -5.25825   0.43567   0.41765
O    -0.70651  -0.91313   0.99940
N    -0.30678   0.09016   1.86546
C     0.79340  -0.31211   2.48164
N     1.74019  -0.54613   3.13447
H     5.12522   0.12654   0.75439
H     4.66422   1.50879   1.81375
H     4.06642  -0.14875   2.18356
H    -0.80781   0.35570  -3.21439
H     1.63266   2.54084  -0.71813
H    -0.71429   2.40538   0.56891
H    -2.35501   1.11194  -1.20908
H    -1.98146  -1.53233  -0.38844
H    -5.62574   0.06916   1.38653
H    -5.96326   0.18096  -0.38095
H    -5.10702   1.52356   0.46644
