43
Generated by autodE on: 2022-06-29. E = -959.374051 Ha
C    -2.04177   4.27944  -0.60499
N    -1.61323   2.90493  -0.74937
C    -1.35124   2.09458   0.27434
O    -1.45251   2.42425   1.43807
C    -0.93753   0.65878  -0.13463
C    -2.10148  -0.32699   0.08245
C    -2.09618  -1.53920  -0.62517
C    -3.09802  -2.48889  -0.41873
C    -4.12355  -2.24338   0.50076
C    -4.13030  -1.04296   1.21384
C    -3.12383  -0.09199   1.01132
N    -0.52078   0.65413  -1.53933
C     0.70682   0.25044  -1.58582
C     1.46477   0.12422  -2.86409
C     1.25719  -0.08841  -0.25054
C     2.59699  -0.65372   0.00554
C     2.73820  -1.82728   0.76980
C     4.00059  -2.37136   1.01709
C     5.14527  -1.75497   0.50206
C     5.01814  -0.58958  -0.26094
C     3.75665  -0.04396  -0.50823
C     0.27792   0.17281   0.65420
C     0.28185  -0.01131   2.12796
H    -1.29686   4.97235  -1.02730
H    -2.99994   4.44520  -1.12121
H    -2.16888   4.50416   0.46059
H    -1.45648   2.50733  -1.67293
H    -1.30100  -1.74091  -1.34409
H    -3.07765  -3.42540  -0.98135
H    -4.91021  -2.98458   0.66016
H    -4.92301  -0.83888   1.93769
H    -3.13480   0.83282   1.58695
H     1.97361  -0.85056  -2.91912
H     2.24804   0.89684  -2.92610
H     0.79149   0.23770  -3.72389
H     1.84630  -2.32305   1.15824
H     4.08942  -3.28515   1.60962
H     6.13271  -2.18178   0.69311
H     5.90763  -0.09919  -0.66378
H     3.67053   0.87464  -1.09145
H    -0.08706   0.89863   2.62301
H    -0.40599  -0.82507   2.41604
H     1.28326  -0.25809   2.50486
