26
Generated by autodE on: 2022-06-29. E = -611.369370 Ha
C    -1.65853   3.64089   1.66625
C    -0.97996   2.47891   1.14054
N    -0.43883   1.50205   0.74489
C     0.21667   0.40906   0.29738
C     1.66038   0.50887   0.47500
O     2.17423   1.42741   1.15178
N     2.45524  -0.42073  -0.13567
C     3.89592  -0.27588  -0.13698
C    -0.59078  -0.64436  -0.32174
C    -1.87469  -0.34638  -0.84264
C    -2.66636  -1.32917  -1.43409
C    -2.21122  -2.64925  -1.53579
C    -0.95386  -2.96699  -1.01370
C    -0.15962  -1.99015  -0.40984
H    -2.52293   3.87934   1.02618
H    -0.96641   4.49771   1.64154
H    -2.00047   3.47820   2.70102
H     2.04243  -1.01306  -0.84640
H     4.27740  -0.17302   0.88950
H     4.23489   0.60721  -0.70823
H     4.34340  -1.17281  -0.58522
H    -2.25171   0.67732  -0.78959
H    -3.64928  -1.05749  -1.82820
H    -2.82916  -3.41665  -2.00723
H    -0.58508  -3.99501  -1.06201
H     0.79186  -2.28817   0.02947
