43
Generated by autodE on: 2022-06-29. E = -959.244970 Ha. Imaginary frequency = -368.6 cm-1
C    -0.95281   4.20994  -1.06041
N    -0.93017   2.76831  -1.18793
C    -1.65154   1.97796  -0.35428
O    -2.39894   2.48817   0.50275
C    -1.46379   0.51629  -0.48965
C    -2.37026  -0.50991   0.04738
C    -2.13270  -1.87207  -0.25070
C    -2.93925  -2.87839   0.27712
C    -4.01340  -2.56245   1.11717
C    -4.26416  -1.22042   1.41639
C    -3.45934  -0.20583   0.89379
N    -0.54920   0.12266  -1.38587
C     0.60404  -0.18701  -1.54257
C     1.56742  -0.57640  -2.57097
C     1.34653   0.02117   0.60734
C     2.71061  -0.39086   0.35968
C     3.06930  -1.75294   0.41103
C     4.38361  -2.14968   0.15948
C     5.36245  -1.20020  -0.15403
C     5.01460   0.15365  -0.21215
C     3.70213   0.55775   0.03887
C     0.38367   0.39887   1.29555
C    -0.43190   0.77601   2.44929
H    -0.56439   4.53960  -0.08237
H    -0.32649   4.64415  -1.84952
H    -1.97500   4.60766  -1.16446
H    -0.33471   2.35093  -1.89200
H    -1.30543  -2.14577  -0.90723
H    -2.72744  -3.92100   0.02671
H    -4.64638  -3.35171   1.52918
H    -5.09998  -0.95291   2.06818
H    -3.66128   0.83330   1.13895
H     1.10482  -0.62364  -3.56861
H     1.99984  -1.55372  -2.30781
H     2.39754   0.14673  -2.57345
H     2.30439  -2.49665   0.64422
H     4.64466  -3.20985   0.20630
H     6.38961  -1.51375  -0.35391
H     5.77148   0.90295  -0.45700
H     3.43124   1.61421  -0.01634
H     0.18806   0.85679   3.35896
H    -1.21425   0.02310   2.63869
H    -0.94656   1.73593   2.29212
