23
Generated by autodE on: 2022-06-24. E = -351.521385 Ha
C     3.57838   0.04937  -1.22195
C     2.56363   0.05499  -0.32976
C     2.82525   0.11278   1.15367
C     1.17984   0.00427  -0.79746
C     0.07785   0.00209  -0.00601
C    -1.27553  -0.04881  -0.51997
C    -2.42314  -0.05556   0.20442
C    -2.47905  -0.01026   1.70510
C    -3.76206  -0.11098  -0.47527
H     3.38510   0.00746  -2.29833
H     4.62267   0.08653  -0.89957
H     3.90291   0.14820   1.36692
H     2.35323   1.00067   1.60626
H     2.39947  -0.76543   1.66693
H     1.04275  -0.03472  -1.88487
H     0.20734   0.04042   1.07892
H    -1.36655  -0.08514  -1.61237
H    -3.05763   0.86914   2.03915
H    -3.01507  -0.89407   2.09397
H    -1.49171   0.02849   2.18297
H    -4.33148  -0.99894  -0.14647
H    -4.37732   0.76450  -0.19992
H    -3.67177  -0.14185  -1.57102
