36
Generated by autodE on: 2022-07-27. E = -899.771567 Ha
C     1.40568  -1.96115  -2.64291
O     0.89088  -1.64609  -1.34886
C    -0.14417  -0.78365  -1.30382
O    -0.73080  -0.43454  -2.31982
C    -0.54982  -0.40189   0.04914
C    -1.88731   0.16467   0.25724
C    -3.01513  -0.30846  -0.44782
C    -4.27349   0.25563  -0.24384
C    -4.44417   1.30119   0.67140
C    -3.33667   1.78231   1.37719
C    -2.07416   1.22758   1.16798
N     0.30658  -0.53427   1.10820
C    -0.25685  -0.94257   2.41458
C     1.64969  -0.36681   1.05251
C     2.51336  -0.93295   2.13832
C     2.21979   0.51605   0.03924
O     1.62262   1.08377  -0.87169
O     3.53912   0.72805   0.24657
C     4.18705   1.62555  -0.65729
H     0.65830  -2.49656  -3.24733
H     2.27916  -2.60263  -2.47414
H     1.70952  -1.04506  -3.17096
H    -2.90193  -1.13257  -1.15271
H    -5.13247  -0.13118  -0.79766
H    -5.43237   1.73900   0.83021
H    -3.45316   2.60543   2.08643
H    -1.21369   1.63182   1.70506
H     0.15962  -1.92353   2.67811
H     0.00664  -0.21792   3.19448
H    -1.34087  -1.03600   2.33053
H     2.23640  -1.97318   2.36697
H     2.43671  -0.36090   3.08006
H     3.56248  -0.92397   1.82757
H     4.08299   1.27671  -1.69572
H     3.76513   2.63827  -0.57451
H     5.24452   1.63585  -0.36715
