59
Generated by autodE on: 2022-06-24. E = -1251.268681 Ha. Imaginary frequency = -276.6 cm-1
C     3.84807   1.93481   0.21380
C     2.62998   1.72175  -0.32909
C     2.37838   1.99644  -1.79134
C     1.51000   1.28024   0.51560
C     0.16559   1.37404   0.10953
C    -0.83457   1.80994   1.06216
C    -2.09208   2.23728   0.78689
C    -2.99644   2.73996   1.87435
C    -2.68365   2.25699  -0.59326
C    -0.44571  -0.92583  -0.18494
C    -0.16376  -1.08022  -1.66433
O    -0.27254  -0.21327  -2.50950
O    -0.01723  -2.37902  -1.97107
C     0.19195  -2.69057  -3.35321
C    -1.89876  -0.99662   0.07690
C    -2.81224  -1.32296  -0.95510
C    -4.18798  -1.31804  -0.74027
C    -4.70796  -0.99312   0.51794
C    -3.82797  -0.67441   1.55419
C    -2.45007  -0.65883   1.33503
N     0.46577  -1.41151   0.74188
C    -0.02272  -2.19880   1.89143
C     1.80275  -1.04187   0.80567
C     2.48991  -1.14445   2.14180
C     2.65959  -1.12703  -0.37670
O     2.30299  -1.16047  -1.54839
O     3.96915  -1.16352  -0.05307
C     4.89426  -1.16606  -1.14350
H     4.68853   2.28308  -0.39266
H     4.03247   1.76675   1.27896
H     1.72066   2.87402  -1.91289
H     1.87641   1.15380  -2.28427
H     3.32027   2.20150  -2.32027
H     1.69906   1.35627   1.58961
H    -0.03888   1.54724  -0.94454
H    -0.52031   1.81482   2.11267
H    -3.93993   2.16589   1.89282
H    -3.28088   3.79319   1.69696
H    -2.52867   2.67143   2.86787
H    -2.87994   3.29449  -0.92027
H    -2.05105   1.77041  -1.34594
H    -3.66073   1.74434  -0.58888
H    -0.66512  -2.36355  -3.96002
H     0.29805  -3.78058  -3.40666
H     1.10681  -2.20290  -3.71884
H    -2.45330  -1.59652  -1.94686
H    -4.85930  -1.57810  -1.56198
H    -5.78705  -0.99374   0.68802
H    -4.21377  -0.41903   2.54349
H    -1.79930  -0.38351   2.15884
H     0.72671  -2.96047   2.13396
H    -0.94737  -2.70865   1.60798
H    -0.20638  -1.59112   2.78646
H     3.38280  -0.50782   2.13067
H     2.82520  -2.16903   2.38022
H     1.83997  -0.79706   2.95468
H     4.78088  -2.07899  -1.74693
H     4.74682  -0.28660  -1.78582
H     5.89325  -1.13729  -0.69215
