37
Generated by autodE on: 2022-06-18. E = -876.093927 Ha
C    -0.96639   1.29788  -1.59647
C    -0.82158   1.33021  -0.10594
O    -0.49552   2.33242   0.50456
C    -1.19200   0.05210   0.71470
C    -1.93618   0.52410   1.90452
N    -2.57748   0.84036   2.81933
C     0.08055  -0.74456   1.24399
C     1.39367   0.02613   1.21606
C     1.83150   0.21095  -0.21250
C     2.56429   1.38154  -0.69715
N     3.01274   2.25617   0.23941
O     2.77546   1.59972  -1.91063
C     1.49589  -0.75375  -1.12515
N     0.76569  -1.86021  -0.86905
C     0.50175  -2.82510  -1.92305
C     0.06743  -2.03449   0.41174
C    -1.43436  -2.26073   0.25016
N    -1.93857  -0.93026  -0.05688
C    -3.37648  -0.78168  -0.14205
H    -0.28913   2.03660  -2.04468
H    -0.80034   0.30055  -2.01338
H    -2.00722   1.58472  -1.83126
H    -0.14673  -1.03876   2.27565
H     2.13480  -0.54175   1.80542
H     1.25274   0.98790   1.72940
H     3.51254   3.08225  -0.06937
H     2.90387   2.09704   1.23252
H     1.83708  -0.64826  -2.15717
H    -0.47750  -2.66414  -2.40478
H     0.52049  -3.84655  -1.51274
H     1.28188  -2.74954  -2.69158
H     0.52988  -2.86414   0.96924
H    -1.70463  -2.96836  -0.54502
H    -1.83526  -2.66365   1.20283
H    -3.76886  -1.47445  -0.90150
H    -3.89444  -0.99598   0.81533
H    -3.63671   0.24216  -0.44980
