40
Generated by autodE on: 2022-05-29. E = -1067.768849 Ha
C     2.56607  -3.03391  -0.14494
C     2.07936  -1.62712  -0.31479
O     2.83612  -0.67214  -0.28125
C     0.56289  -1.35977  -0.60389
C    -0.29558  -2.62619  -0.61665
C     0.10014  -0.30469   0.38802
C    -0.04665   0.88870  -0.19406
C    -0.56275   2.15319   0.41826
F    -0.04277   3.23985  -0.30256
C    -2.08986   2.24984   0.39864
C    -2.83339   1.00081   0.88618
C    -2.43706   0.46496   2.27913
C    -1.55270  -0.78938   2.30422
C    -0.11706  -0.60800   1.84865
F     0.47802   0.37470   2.61392
F     0.58575  -1.75909   2.15312
C     0.34747   0.79335  -1.65356
C    -0.61692   1.42785  -2.57483
N    -1.36720   1.90097  -3.32243
N     0.42618  -0.64137  -1.89239
C     1.28042  -1.03645  -2.99714
H     3.65369  -3.03542   0.00240
H     2.30394  -3.63250  -1.03131
H     2.06914  -3.50465   0.71683
H    -1.34889  -2.34891  -0.76125
H     0.00521  -3.28134  -1.44682
H    -0.20679  -3.19233   0.31856
H    -0.18616   2.24430   1.44500
H    -2.36654   3.12166   1.01350
H    -2.40008   2.46945  -0.63488
H    -2.72910   0.19709   0.13927
H    -3.90319   1.25885   0.89719
H    -3.35265   0.19431   2.82549
H    -1.96101   1.25968   2.87643
H    -1.48863  -1.17283   3.33512
H    -1.99556  -1.58345   1.68379
H     1.31264   1.32150  -1.80491
H     2.33236  -0.71153  -2.87919
H     0.89560  -0.60137  -3.93225
H     1.26319  -2.13009  -3.10866
