20
Generated by autodE on: 2022-05-29. E = -457.654386 Ha
C     2.99600   0.39874  -1.21221
C     1.74368  -0.11976  -0.53335
O     1.78593  -1.24916  -0.00521
C     0.56221   0.72156  -0.53240
C     0.57336   2.07689  -1.18215
N    -0.59716   0.30578   0.05854
C    -1.74389   1.23857   0.00018
C    -0.78959  -0.87325   0.68483
C    -2.01098  -1.23441   1.26858
N    -2.99162  -1.61887   1.78210
H     3.77647  -0.36759  -1.12102
H     2.82103   0.60976  -2.27886
H     3.35160   1.33103  -0.74586
H    -0.16110   2.15501  -2.00094
H     1.55587   2.29109  -1.61048
H     0.34889   2.88588  -0.46745
H    -1.47846   2.17675   0.50050
H    -2.60699   0.79331   0.50046
H    -1.99580   1.44293  -1.04652
H     0.05299  -1.55747   0.72632
