40
Generated by autodE on: 2022-05-29. E = -1067.662351 Ha. Imaginary frequency = -98.1 cm-1
C     2.93352  -2.29286   0.43705
C     2.34759  -1.23660  -0.47370
O     2.99292  -0.19821  -0.67586
C     1.04135  -1.50984  -1.08842
C     0.47863  -2.90394  -1.07726
C     0.10606  -0.15631   0.99606
C     0.14558   1.00199   0.58772
C    -0.31315   2.39275   0.63208
F     0.39635   3.22994  -0.23699
C    -1.82410   2.48262   0.31995
C    -2.63428   1.18864   0.48956
C    -2.59335   0.49109   1.87703
C    -2.06395  -0.95475   1.86922
C    -0.54485  -1.07390   1.94022
F    -0.12527  -0.76408   3.22136
F    -0.18140  -2.38912   1.76890
C     0.76675   0.72314  -1.91028
C     0.02749   1.65528  -2.66271
N    -0.55003   2.46902  -3.27192
N     0.42857  -0.58628  -1.87710
C    -0.83873  -0.98497  -2.51734
H     3.83704  -1.88006   0.90348
H     3.20670  -3.19594  -0.13203
H     2.21694  -2.59128   1.21550
H    -0.58897  -2.92452  -0.82181
H     0.59510  -3.38555  -2.06386
H     0.99824  -3.52649  -0.34613
H    -0.10338   2.76934   1.64653
H    -2.24866   3.28681   0.94098
H    -1.90520   2.80756  -0.72909
H    -2.31784   0.47526  -0.28616
H    -3.67883   1.43963   0.24778
H    -3.61280   0.45843   2.28864
H    -2.00615   1.08208   2.59941
H    -2.44777  -1.51929   2.73377
H    -2.39131  -1.47973   0.95841
H     1.73719   1.00600  -1.51935
H    -0.68038  -1.88135  -3.12622
H    -1.19654  -0.17639  -3.15916
H    -1.58720  -1.19466  -1.74198
