38
Generated by autodE on: 2022-06-17. E = -784.928425 Ha
C    -1.22584  -0.72369   2.28714
C    -0.27400   0.06676   1.77629
C     0.71878   0.80720   2.62811
C    -0.10455   0.28081   0.28680
C     1.17178  -0.42300  -0.29318
C     2.33492   0.49761  -0.47274
C     3.55308   0.40267   0.09040
C     4.61201   1.43336  -0.19542
C     3.97614  -0.67881   1.04608
N     0.71658  -0.97199  -1.59256
N    -0.65765  -1.28244  -1.44947
C    -0.84844  -2.62015  -0.88730
N    -1.15952  -0.28867  -0.55175
C    -2.37513   0.26228  -0.79245
O    -3.19576  -0.15755  -1.59689
O    -2.58797   1.32801   0.00784
C    -3.87148   1.94965  -0.09685
H    -1.31519  -0.86713   3.36788
H    -1.94245  -1.24542   1.64852
H     1.74746   0.46537   2.42859
H     0.70042   1.88644   2.39923
H     0.51129   0.67108   3.69904
H    -0.03926   1.36391   0.09297
H     1.42857  -1.26215   0.36482
H     2.13833   1.34382  -1.14397
H     5.51420   0.95779  -0.61832
H     4.93277   1.92921   0.73768
H     4.26210   2.20482  -0.89690
H     4.88133  -1.18611   0.67022
H     4.25196  -0.23678   2.01929
H     3.20399  -1.43823   1.22299
H     0.77218  -0.22132  -2.28515
H    -0.45866  -3.35381  -1.60577
H    -0.34968  -2.76579   0.08711
H    -1.92678  -2.78916  -0.76320
H    -3.86817   2.77086   0.63000
H    -4.03450   2.34647  -1.10972
H    -4.67227   1.23598   0.14708
