23
Generated by autodE on: 2022-06-17. E = -351.521381 Ha
C     3.45729  -0.68710  -1.36856
C     2.50181  -0.49109  -0.43340
C     2.82692  -0.52474   1.03809
C     1.12142  -0.23898  -0.84212
C     0.07583  -0.02102  -0.00542
C    -1.27547   0.22676  -0.46536
C    -2.36946   0.46302   0.30216
C    -3.71273   0.70400  -0.32646
C    -2.35878   0.50884   1.80377
H     3.21787  -0.66178  -2.43615
H     4.49786  -0.87698  -1.09097
H     3.89510  -0.72234   1.20558
H     2.57125   0.43168   1.52372
H     2.24491  -1.30531   1.55577
H     0.93650  -0.22765  -1.92309
H     0.25224  -0.03015   1.07367
H    -1.41335   0.22107  -1.55343
H    -4.11201   1.69080  -0.03038
H    -4.44903  -0.04048   0.02632
H    -3.67234   0.66020  -1.42472
H    -3.05553  -0.24341   2.21409
H    -1.36871   0.33410   2.24386
H    -2.72435   1.48881   2.15829
