15
Generated by autodE on: 2022-07-27. E = -433.376976 Ha
C    -2.06813   2.20550  -0.49210
O    -1.39265   1.28730   0.37233
C    -0.45445   0.51098  -0.19606
O    -0.18609   0.58246  -1.39714
N     0.09097  -0.30440   0.75885
N     1.04085  -1.14463   0.36712
C     1.54520  -1.96568   1.48591
N     1.55858  -1.34369  -0.76434
H    -2.59663   1.67062  -1.29525
H    -2.78811   2.73966   0.13947
H    -1.35799   2.91789  -0.93793
H     2.31795  -2.63498   1.09797
H     1.94794  -1.28981   2.25019
H     0.70121  -2.52800   1.90363
H     1.09534  -0.69260  -1.42218
