38
Generated by autodE on: 2022-06-17. E = -784.857946 Ha. Imaginary frequency = -482.9 cm-1
C    -0.52047  -1.14299   2.58724
C    -0.63972   0.07759   2.02872
C    -1.64567   1.07327   2.54777
C     0.20428   0.53141   0.89976
C     1.42140  -0.13095   0.54447
C     2.50104   0.66851  -0.04665
C     3.77905   0.27670  -0.25029
C     4.78027   1.19978  -0.88768
C     4.31484  -1.07402   0.13594
N     0.88669  -1.27739  -1.01366
N    -0.43015  -1.21266  -0.98602
C    -1.13911  -2.39461  -0.46753
N    -0.88560   0.03226  -0.80067
C    -2.21404   0.29457  -0.99701
O    -3.03607  -0.42773  -1.54698
O    -2.50127   1.53685  -0.55954
C    -3.86269   1.95471  -0.68515
H     0.19855  -1.88445   2.23320
H    -1.16261  -1.43884   3.42125
H    -2.40648   1.29514   1.78461
H    -2.15085   0.70070   3.45017
H    -1.15535   2.03125   2.79067
H     0.14510   1.59921   0.68040
H     1.72157  -0.96602   1.17686
H     2.21237   1.67006  -0.38738
H     5.63497   1.37883  -0.21076
H     5.20393   0.74843  -1.80258
H     4.33828   2.17175  -1.15238
H     4.74460  -1.57949  -0.74657
H     3.55677  -1.73872   0.56986
H     5.14142  -0.96891   0.86110
H     1.20672  -0.50766  -1.60909
H    -0.41645  -3.02807   0.05951
H    -1.94306  -2.09636   0.21087
H    -1.56636  -2.95859  -1.30951
H    -4.16976   1.97549  -1.74128
H    -3.90803   2.96550  -0.26247
H    -4.53137   1.28398  -0.12533
