17
Generated by autodE on: 2022-06-02. E = -2945.722949 Ha
F     0.90108   1.39070   1.59982
C    -0.01347   1.11902   0.66873
C     0.02853   0.15872  -0.26529
Br    1.37460  -1.13473  -0.50605
C    -1.35171   0.11274  -0.90521
C    -2.31335  -0.48142   0.17324
C    -2.34185   0.62974   1.26405
C    -1.39516   1.72876   0.67364
C    -1.72702   1.61013  -0.82971
H    -1.39663  -0.37045  -1.88851
H    -3.31153  -0.64436  -0.25943
H    -1.94739  -1.44653   0.55144
H    -3.35353   1.04185   1.39224
H    -1.99184   0.28062   2.24575
H    -1.46866   2.71634   1.14559
H    -2.78913   1.79643  -1.04919
H    -1.09237   2.24531  -1.46373
