23
Generated by autodE on: 2022-06-02. E = -629.282156 Ha
C    -0.24381  -2.13873  -1.50580
N    -0.73430  -1.36510  -0.59630
C    -1.99695  -1.76650   0.07059
C    -0.01609  -0.22709  -0.12042
C    -0.72427   1.00625   0.09703
O    -0.30613   2.02669   0.63867
O    -1.98987   0.96458  -0.41602
C    -2.80999   2.10750  -0.18068
C     1.38189  -0.45157   0.15883
O     1.99275  -1.50163  -0.05703
O     2.01005   0.60991   0.71879
C     3.39711   0.44149   1.01287
H    -0.72941  -3.09482  -1.71356
H     0.64109  -1.83065  -2.05988
H    -2.03945  -2.86189   0.10398
H    -2.85109  -1.37922  -0.49476
H    -2.00789  -1.35908   1.08619
H    -2.38335   3.00599  -0.65160
H    -2.93217   2.29441   0.89731
H    -3.78457   1.88012  -0.63069
H     3.55303  -0.35610   1.75507
H     3.96962   0.20052   0.10429
H     3.73590   1.40104   1.42329
