39
Generated by autodE on: 2022-06-18. E = -847.832033 Ha
C    -2.74665  -2.19582   0.05492
C    -2.84347  -0.70351   0.10068
O    -3.89997  -0.09993   0.18954
C    -1.53704   0.09994   0.04428
C    -1.62133   1.16805   1.17051
C    -1.46186   0.65383   2.57210
O    -1.82205   2.33990   0.91880
O    -0.41422  -0.73917   0.30449
C     0.62576  -0.51340  -0.66672
C     1.97953  -0.50019  -0.00572
C     3.04382  -1.21553  -0.56896
C     4.31893  -1.16568   0.00468
C     4.53841  -0.40468   1.15587
C     3.47859   0.31069   1.72677
C     2.20896   0.26671   1.14777
C     0.24090   0.80510  -1.35629
C     0.92039   1.01636  -2.70028
C    -1.30106   0.73864  -1.35005
C    -1.89745  -0.04194  -2.52174
H    -3.75060  -2.63196  -0.02713
H    -2.10933  -2.51852  -0.78178
H    -2.25761  -2.54874   0.97762
H    -0.52025   0.09665   2.67051
H    -1.49554   1.48603   3.28660
H    -2.27674  -0.05659   2.79090
H     0.59653  -1.33438  -1.40407
H     2.86945  -1.81757  -1.46452
H     5.14017  -1.72806  -0.44620
H     5.53185  -0.36861   1.60941
H     3.64453   0.90773   2.62687
H     1.38842   0.83387   1.59196
H     0.53453   1.62332  -0.67837
H     0.72225   0.18582  -3.39442
H     0.57720   1.94913  -3.17386
H     2.01156   1.08737  -2.56882
H    -1.72855   1.74932  -1.33642
H    -1.68222   0.47655  -3.46709
H    -2.99150  -0.11597  -2.43459
H    -1.49170  -1.06233  -2.59678
