27
Generated by autodE on: 2022-07-27. E = -690.454176 Ha
C    -3.93350  -1.14028  -0.77938
C    -2.43228  -0.97097  -0.82152
O    -1.77545  -1.56842  -1.70020
C    -1.79901  -0.12741   0.14983
O    -0.42673   0.04299   0.13140
C     0.48625  -0.42860  -0.62877
C     1.85070  -0.05839  -0.39400
C     2.83344  -0.59615  -1.25454
C     4.17392  -0.26742  -1.07199
C     4.54434   0.59586  -0.03455
C     3.57356   1.13381   0.82499
C     2.23315   0.81330   0.65238
C    -2.41133   0.62376   1.22047
C    -1.49916   1.44289   2.11523
O    -3.63505   0.61883   1.42548
H    -4.44715  -0.17355  -0.88485
H    -4.22142  -1.81020  -1.60124
H    -4.25920  -1.56486   0.18165
H     0.19304  -1.10030  -1.43702
H     2.52909  -1.26829  -2.06002
H     4.93351  -0.68253  -1.73734
H     5.59631   0.85341   0.10801
H     3.87300   1.80603   1.63163
H     1.47185   1.22675   1.31541
H    -0.94552   2.19629   1.53383
H    -0.75324   0.80418   2.61292
H    -2.11527   1.94490   2.87228
