27
Generated by autodE on: 2022-06-18. E = -690.454185 Ha
C    -2.20494  -1.92855  -0.43702
C    -2.69896  -0.49420  -0.38802
O    -3.90833  -0.25303  -0.52616
C    -1.71700   0.54362  -0.17849
O    -0.44390   0.01814  -0.05494
C     0.69592   0.56314   0.13870
C     1.86069  -0.26783   0.22200
C     3.10452   0.36487   0.44063
C     4.26688  -0.39630   0.52945
C     4.19937  -1.78835   0.40161
C     2.96695  -2.42436   0.18443
C     1.80074  -1.67535   0.09423
C    -1.92115   1.96052  -0.09596
C    -3.32164   2.50975  -0.24124
O    -0.97191   2.75037   0.09208
H    -1.70201  -2.20738   0.50177
H    -1.47612  -2.06943  -1.25006
H    -3.06749  -2.58742  -0.60023
H     0.74320   1.64880   0.23562
H     3.14156   1.45207   0.53887
H     5.22823   0.09284   0.69844
H     5.11178  -2.38496   0.47082
H     2.92493  -3.51098   0.08580
H     0.83873  -2.16117  -0.07471
H    -3.76089   2.23045  -1.21003
H    -3.98964   2.10653   0.53401
H    -3.26676   3.60373  -0.15565
