39
Generated by autodE on: 2022-06-18. E = -847.755114 Ha. Imaginary frequency = -302.5 cm-1
C    -3.75560  -1.42152  -0.16677
C    -2.24840  -1.32296  -0.15231
O    -1.58251  -2.13736  -0.82014
C    -1.61509  -0.29332   0.63746
C    -2.27013   0.62595   1.55275
C    -1.37343   1.47185   2.43397
O    -3.49892   0.76943   1.59956
O    -0.25253  -0.28900   0.79782
C     0.60349  -0.47144  -0.19157
C     2.01224  -0.30762   0.15688
C     2.98911  -0.93683  -0.63674
C     4.34402  -0.77642  -0.34263
C     4.73507   0.01030   0.74513
C     3.76673   0.63854   1.54069
C     2.41353   0.48529   1.25039
C     0.14211   1.19724  -1.48075
C     0.84561   0.76071  -2.74281
C    -1.24258   1.27610  -1.41533
C    -2.13937   0.71733  -2.46908
H    -4.21556  -0.48818  -0.51880
H    -4.03409  -2.25136  -0.83057
H    -4.14905  -1.60117   0.84486
H    -0.72662   0.84195   3.06344
H    -2.00324   2.10859   3.06859
H    -0.71133   2.10346   1.82098
H     0.33448  -1.19199  -0.96155
H     2.67648  -1.55833  -1.47847
H     5.09668  -1.27061  -0.96083
H     5.79552   0.13526   0.97606
H     4.07344   1.25332   2.38991
H     1.65751   0.97937   1.86265
H     0.68991   1.88884  -0.83395
H     0.43793  -0.18030  -3.14162
H     0.72782   1.52751  -3.52786
H     1.92272   0.62356  -2.57403
H    -1.68774   1.94790  -0.68019
H    -2.03141   1.30496  -3.40005
H    -3.19494   0.75023  -2.17063
H    -1.87393  -0.32162  -2.72301
