54
Generated by autodE on: 2022-06-23. E = -1003.520152 Ha
C     0.98631   0.51887  -3.26650
C     0.72513  -0.13904  -2.12602
C     0.67151  -1.64381  -2.08180
C     0.45647   0.63285  -0.85267
C    -0.55823  -0.00026   0.10567
C    -1.94604  -0.08316  -0.45062
C    -2.82094  -1.09649  -0.30707
C    -4.19265  -1.02624  -0.92314
C    -2.53907  -2.35955   0.46062
C    -0.37187   0.85790   1.39867
C    -0.79833   0.08031   2.64930
C    -1.16148   2.18861   1.30941
O    -0.58539   3.26796   1.11193
N    -2.49327   2.12855   1.48648
C    -3.33759   3.29428   1.30803
N     1.06726   1.15887   1.41306
C     1.68719   0.92026   0.08487
C     2.42640   2.17934  -0.37646
C     2.63628  -0.28307   0.13220
C     2.51756  -1.25606   1.13523
C     3.31901  -2.40184   1.13336
C     4.26866  -2.59509   0.12644
C     4.41263  -1.62416  -0.86960
C     3.60755  -0.48208  -0.86459
H     1.20560  -0.01492  -4.19651
H     0.98665   1.61242  -3.30575
H     1.29464  -2.05462  -1.27397
H    -0.35907  -1.98615  -1.88862
H     1.00368  -2.08092  -3.03468
H     0.06963   1.62308  -1.14037
H    -0.20701  -1.00560   0.37416
H    -2.26802   0.78753  -1.03340
H    -4.35596  -0.08088  -1.46155
H    -4.97420  -1.12513  -0.14904
H    -4.35010  -1.86151  -1.62833
H    -2.72804  -3.24327  -0.17324
H    -3.22420  -2.44519   1.32222
H    -1.51128  -2.41922   0.84054
H    -0.18833  -0.82967   2.73940
H    -1.85312  -0.22822   2.60404
H    -0.65470   0.68709   3.55657
H    -2.93411   1.21499   1.50098
H    -3.33839   3.64249   0.26108
H    -4.36508   3.03779   1.59495
H    -2.98944   4.12396   1.94026
H     1.16795   2.14664   1.63534
H     3.30038   2.37854   0.26346
H     2.77599   2.08634  -1.41349
H     1.74765   3.04267  -0.32477
H     1.78798  -1.10373   1.92888
H     3.20017  -3.14592   1.92526
H     4.89620  -3.48968   0.12122
H     5.15669  -1.75596  -1.65933
H     3.73092   0.25020  -1.66209
