23
Generated by autodE on: 2022-06-23. E = -351.521384 Ha
C     3.46493   0.77835   1.29891
C     2.52814   0.23264   0.49242
C     2.91144  -0.64551  -0.67128
C     1.11112   0.49010   0.74140
C     0.07809   0.00327   0.00877
C    -1.31164   0.29166   0.29904
C    -2.39821  -0.15561  -0.37987
C    -3.78517   0.23518   0.04591
C    -2.33748  -1.05543  -1.58137
H     4.53181   0.60236   1.13551
H     3.18338   1.41553   2.14298
H     2.54084  -0.22890  -1.62263
H     2.46727  -1.65014  -0.57415
H     4.00254  -0.75608  -0.74439
H     0.88531   1.13530   1.59900
H     0.29553  -0.64092  -0.84757
H    -1.48930   0.94365   1.16288
H    -3.77994   0.89358   0.92696
H    -4.31514   0.75253  -0.77404
H    -4.38895  -0.65963   0.28182
H    -2.82915  -0.57359  -2.44493
H    -1.31663  -1.32870  -1.87762
H    -2.90049  -1.98605  -1.38970
