31
Generated by autodE on: 2022-06-23. E = -651.948375 Ha
C     4.85338   1.34835  -0.04489
N     3.96931   0.20271  -0.02957
C     2.61714   0.35436  -0.07751
O     2.11728   1.50442  -0.22737
C     1.77261  -0.82149   0.03201
C     2.27540  -2.22592   0.13888
N     0.46170  -0.46520   0.03208
C    -0.72909  -1.04442   0.14600
C    -0.88869  -2.52198   0.33826
C    -1.90942  -0.18200   0.04945
C    -3.18414  -0.74722  -0.19249
C    -4.32317   0.05196  -0.29894
C    -4.23511   1.44062  -0.16499
C    -2.98359   2.01907   0.08261
C    -1.84334   1.22723   0.19237
H     5.89102   0.99656  -0.11135
H     4.75411   1.97147   0.86192
H     4.64667   1.99164  -0.91332
H     4.35584  -0.68816   0.25579
H     1.67587  -2.91887  -0.46927
H     2.28508  -2.61699   1.17271
H     3.30370  -2.29388  -0.24365
H     0.44237   0.55700  -0.11363
H    -1.03734  -3.05312  -0.61911
H    -0.02028  -2.96710   0.83430
H    -1.76972  -2.73057   0.96142
H    -3.28481  -1.82569  -0.31783
H    -5.29003  -0.41906  -0.49364
H    -5.12775   2.06479  -0.24594
H    -2.89536   3.10151   0.20473
H    -0.89613   1.72276   0.41911
