23
Generated by autodE on: 2022-06-08. E = -588.326354 Ha
C     2.38492   0.66125  -1.92915
N     2.75937   1.37008  -0.71672
C     1.89893   1.85669   0.19494
O     2.22009   2.53197   1.17899
C     0.46263   1.61486  -0.06258
N    -0.27417   0.76948   0.39986
C    -1.11814  -0.12422   0.77233
C    -1.86891   0.01247   2.06643
C    -1.29286  -1.27044  -0.16263
O    -0.67725  -1.34315  -1.23844
N    -2.16036  -2.22393   0.23335
C    -2.42135  -3.39192  -0.58406
H     3.23755   0.05789  -2.26655
H     2.10159   1.35041  -2.74235
H     1.54474  -0.01987  -1.73954
H     3.72793   1.65783  -0.59646
H    -1.66004  -0.83869   2.73568
H    -1.57834   0.93679   2.58244
H    -2.95701   0.03873   1.88805
H    -2.64712  -2.12821   1.11707
H    -3.14154  -4.03485  -0.06397
H    -2.84019  -3.11034  -1.56355
H    -1.49878  -3.96611  -0.76534
