51
Generated by autodE on: 2022-06-08. E = -6239.702157 Ha. Imaginary frequency = -156.5 cm-1
C    -1.46919  -5.74216   4.29205
N    -2.60302  -4.83817   4.26532
C    -2.69275  -3.84855   3.36192
O    -1.89889  -3.65263   2.44242
C    -3.86286  -2.94261   3.55709
N    -4.79213  -2.72791   2.81026
C    -5.79588  -2.03971   2.35763
C    -7.16821  -2.65083   2.41662
C    -5.40450  -0.88607   1.48797
O    -4.21783  -0.64117   1.23712
N    -6.41478  -0.13618   0.99476
C    -6.14497   1.05974   0.22026
C    -5.27023  -0.53233   4.61574
C    -4.31356  -1.18064   5.05721
C    -3.34441  -1.32130   6.12445
Br   -3.69380  -3.02823   7.13861
Br   -1.48349  -1.44656   5.37367
C    -3.34879  -0.13956   7.10179
C    -4.59487   0.07749   7.97357
C    -5.97401   0.20050   7.30765
C    -6.06718   1.20954   6.14489
C    -6.28723   0.53516   4.74033
C    -7.71868  -0.01900   4.64210
C    -6.01420   1.64224   3.70502
C    -7.14705   2.55751   3.33729
O    -4.89485   1.78924   3.24193
H    -0.56841  -5.24849   4.69487
H    -1.71267  -6.60547   4.92359
H    -1.24297  -6.09540   3.27680
H    -3.20086  -4.77432   5.08484
H    -7.29418  -3.38348   1.60097
H    -7.96537  -1.90641   2.31076
H    -7.31195  -3.17203   3.37367
H    -7.35882  -0.28776   1.32928
H    -5.61119   0.81230  -0.71065
H    -7.09811   1.53723  -0.03689
H    -5.52625   1.77233   0.78748
H    -3.16303   0.74826   6.47685
H    -2.48158  -0.24300   7.76962
H    -4.39068   1.00517   8.53480
H    -4.64583  -0.72552   8.72597
H    -6.68348   0.49456   8.09683
H    -6.30741  -0.79291   6.97256
H    -6.89790   1.91266   6.30675
H    -5.14814   1.81349   6.09506
H    -7.95470  -0.33071   3.61882
H    -8.44909   0.74150   4.95031
H    -7.83556  -0.89073   5.30086
H    -6.76187   3.42570   2.78773
H    -7.86073   2.01073   2.70015
H    -7.69962   2.88374   4.23084
