35
Generated by autodE on: 2022-05-29. E = -1118.529922 Ha
C     3.79824   2.17539   0.05463
N     2.75218   1.31687   0.56883
C     2.08304   0.46491  -0.22186
O     2.38901   0.23417  -1.39625
C     0.92995  -0.31170   0.44982
C     1.46388  -1.75217   0.61340
N     0.58946   0.26320   1.76564
C    -0.83351   0.10629   2.04233
C    -1.15290  -1.17014   2.71759
N    -1.36999  -2.16945   3.26709
C    -1.51227   0.18592   0.66753
C    -1.99342   1.59627   0.18977
C    -0.89329   2.62312   0.39627
C     0.01522   2.36427  -0.55189
C    -0.52698   1.15921  -1.30563
O    -1.93871   1.38973  -1.22861
C    -0.40198  -0.14038  -0.37755
C    -0.77079  -1.36305  -1.21990
F     0.20537  -1.70181  -2.08264
F    -1.87414  -1.16116  -1.96121
F    -1.03050  -2.45203  -0.46601
H     4.47225   1.59927  -0.59382
H     3.38519   3.01099  -0.53797
H     4.37489   2.58970   0.89153
H     2.28709   1.56292   1.43913
H     2.35540  -1.70545   1.25703
H     0.72595  -2.40378   1.09493
H     1.76068  -2.19094  -0.34589
H     1.17068  -0.12817   2.50592
H    -1.19395   0.90703   2.70946
H    -2.36467  -0.49898   0.60459
H    -3.00346   1.86041   0.52064
H    -0.85765   3.36421   1.19404
H     0.96608   2.85808  -0.73838
H    -0.19255   1.01224  -2.33651
