35
Generated by autodE on: 2022-05-29. E = -1118.445632 Ha. Imaginary frequency = -295.4 cm-1
C     4.13441   0.80199  -1.30391
N     3.14463   0.03098  -0.57717
C     2.34616   0.60670   0.33663
O     2.46049   1.80108   0.66274
C     1.28558  -0.24323   0.96181
C     1.37656  -1.73312   1.01267
N     0.55503   0.45303   1.83054
C    -0.65864   0.16140   2.37634
C    -0.99646  -1.12417   2.87175
N    -1.37116  -2.14892   3.28620
C    -1.80673   0.04126   0.39832
C    -2.40729   1.46864   0.22720
C    -1.32708   2.49669   0.57118
C    -0.43127   2.40261  -0.41871
C    -0.97943   1.32317  -1.34961
O    -2.40596   1.56092  -1.21848
C    -0.87654  -0.05002  -0.62461
C    -0.66450  -1.25579  -1.44817
F     0.58250  -1.34614  -1.98018
F    -0.89196  -2.40586  -0.78052
F    -1.49715  -1.28180  -2.52873
H     3.66393   1.50451  -2.01264
H     4.75257   1.38532  -0.60685
H     4.77950   0.11421  -1.86405
H     2.93410  -0.90611  -0.90086
H     0.41139  -2.20490   1.21202
H     1.75869  -2.15721   0.07838
H     2.07266  -2.02058   1.82122
H     0.77439   1.45501   1.77956
H    -1.11980   0.98932   2.91767
H    -2.40419  -0.78925   0.77098
H    -3.40787   1.61475   0.64735
H    -1.28892   3.09273   1.48269
H     0.53564   2.88997  -0.52110
H    -0.65475   1.34027  -2.39515
