45
Generated by autodE on: 2022-06-22. E = -1254.617538 Ha
C    -3.42350   3.88856  -0.21107
N    -2.37437   2.89581  -0.32507
C    -2.40197   1.74480   0.36187
O    -3.32820   1.39775   1.10223
C    -1.19459   0.86604   0.18728
N    -0.03462   1.35599  -0.02483
C     0.94247   0.25295  -0.01976
C     2.08684   0.45112  -1.01559
O     2.77869  -0.46461  -1.40584
O     2.24647   1.71615  -1.38047
C     3.33469   1.99290  -2.27855
C     1.53299   0.24324   1.41595
O     0.84241   0.20349   2.40904
O     2.84863   0.41096   1.42149
C     3.49835   0.39972   2.70320
C     0.10246  -1.02834  -0.33268
C     0.70959  -2.29807   0.25703
N     0.08495  -3.44384  -0.05810
O     1.69683  -2.26172   0.99908
C    -0.10507  -1.14213  -1.87163
C    -1.38818  -1.82406  -2.23432
C    -2.42946  -1.88386  -1.37905
N    -2.44004  -1.31799  -0.12020
C    -3.30530  -1.90107   0.89538
C    -1.25401  -0.64698   0.35721
H    -3.33750   4.46925   0.72282
H    -3.36183   4.57810  -1.06195
H    -4.40680   3.39769  -0.21728
H    -1.52594   3.12005  -0.83619
H     4.29117   1.72119  -1.80960
H     3.29665   3.07052  -2.47312
H     3.20973   1.42944  -3.21392
H     3.10464   1.20504   3.33883
H     4.56378   0.55578   2.50116
H     3.33832  -0.57214   3.19153
H    -0.67539  -3.45929  -0.73465
H     0.46936  -4.31991   0.28392
H     0.75279  -1.67012  -2.30936
H    -0.07863  -0.12518  -2.30160
H    -1.48682  -2.26885  -3.22559
H    -3.35135  -2.40785  -1.64464
H    -2.83306  -2.76502   1.39916
H    -3.55830  -1.14500   1.65008
H    -4.23850  -2.24253   0.42568
H    -1.16891  -0.84127   1.43588
