20
Generated by autodE on: 2022-06-22. E = -457.715333 Ha
C     3.16142  -0.26319  -0.18745
N     1.81625   0.19339   0.12077
C     1.63350   1.44869   0.71429
C     0.41861   1.96275   0.96271
C    -0.86514   1.24218   0.63172
C    -0.56866  -0.09127  -0.03515
C    -1.65253  -0.98176  -0.48007
N    -2.91591  -0.54201  -0.25267
O    -1.45584  -2.08109  -1.03728
C     0.71034  -0.51426  -0.24279
H     3.63377   0.36697  -0.95987
H     3.79527  -0.23933   0.71267
H     3.11876  -1.29562  -0.55610
H     2.55555   1.97811   0.96126
H     0.35691   2.94724   1.43207
H    -1.46849   1.10004   1.55207
H    -1.50068   1.87740  -0.01858
H    -3.69305  -1.12423  -0.54482
H    -3.11498   0.34097   0.19972
H     0.89479  -1.47559  -0.72489
