25
Generated by autodE on: 2022-06-22. E = -796.838590 Ha
C     2.91204   2.48634   0.14357
N     3.56616   1.19648   0.00989
C     2.95865   0.00979  -0.09995
O     3.49491  -1.09121  -0.21871
C     1.49502   0.03866  -0.07033
N     0.33994  -0.11372  -0.03651
C    -0.98493  -0.23405   0.00490
C    -1.56323  -1.57178  -0.07360
O    -2.75431  -1.83262  -0.04710
O    -0.60676  -2.51695  -0.18020
C    -1.05570  -3.87397  -0.25866
C    -1.78458   0.98054   0.12983
O    -3.00205   1.02644   0.18132
O    -1.00826   2.08346   0.18390
C    -1.68715   3.33833   0.30498
H     3.23916   2.98996   1.06476
H     3.14419   3.13140  -0.71675
H     1.82200   2.35762   0.19240
H     4.58414   1.16468  -0.01895
H    -1.68803  -4.02505  -1.14603
H    -1.62388  -4.14915   0.64221
H    -0.14999  -4.48735  -0.33361
H    -2.34832   3.50741  -0.55763
H    -2.28170   3.37136   1.22975
H    -0.90265   4.10360   0.33398
