30
Generated by autodE on: 2022-06-10. E = -1176.493849 Ha
C    -2.96571   1.02224  -0.91799
C    -1.77776   0.76535  -1.79220
O    -1.86166   0.48556  -2.96918
C    -0.36668   0.91551  -1.13124
C    -0.00995   2.42335  -1.25096
C     0.43834   2.91961  -2.59165
O    -0.11359   3.14308  -0.27747
C    -0.38253   0.48331   0.25798
C    -0.22418  -0.20390   1.24371
C     0.28630  -1.37263   1.93817
F    -0.56807  -1.83179   2.90731
Cl    1.84187  -0.91598   2.80571
C     0.55553  -2.48424   0.92248
C     1.34900  -2.07954  -0.33348
C     0.57058  -1.50323  -1.55030
C     0.67887   0.00772  -1.84796
H    -2.80039   1.91652  -0.29753
H    -3.86915   1.13119  -1.53127
H    -3.09005   0.17160  -0.22800
H    -0.19993   2.52525  -3.39551
H     1.46142   2.55811  -2.78583
H     0.43734   4.01702  -2.59743
H    -0.43786  -2.86821   0.63667
H     1.07494  -3.28965   1.46345
H     2.16375  -1.39497  -0.04485
H     1.84801  -2.99830  -0.67518
H    -0.49007  -1.80035  -1.49522
H     0.96654  -2.00652  -2.44523
H     0.55001   0.17075  -2.92584
H     1.68439   0.36632  -1.58001
