30
Generated by autodE on: 2022-07-27. E = -742.299297 Ha
C     0.51730  -0.11244   3.34636
N     0.08245   0.28608   2.02162
C     0.89798   0.15660   0.95564
O     2.11787  -0.05306   1.09409
C     0.31189   0.43326  -0.37337
N    -0.95873   0.19113  -0.73433
C    -1.92567  -0.65805  -0.35586
C    -3.28772  -0.44297  -0.94611
C    -1.60722  -1.85589   0.40745
C    -2.74438  -2.80696   0.68917
O    -0.45093  -2.13016   0.75900
C     1.00653   1.28486  -1.36807
O     0.37604   1.72703  -2.35138
N     2.30760   1.54618  -1.16062
C     3.08273   2.33817  -2.09111
H     1.41584   0.44539   3.64751
H     0.75210  -1.18925   3.38647
H    -0.28625   0.10079   4.06196
H    -0.91624   0.36704   1.86133
H    -1.18741   0.78349  -1.55246
H    -3.63376  -1.32081  -1.51447
H    -4.03586  -0.25328  -0.15865
H    -3.28673   0.42672  -1.61934
H    -3.56727  -2.29129   1.20887
H    -3.15976  -3.21244  -0.24766
H    -2.37608  -3.63485   1.30859
H     2.74820   1.07159  -0.37250
H     2.63765   3.33556  -2.23175
H     4.09802   2.45923  -1.69407
H     3.14677   1.85709  -3.08164
