38
Generated by autodE on: 2022-10-07. E = -1179.852861 Ha
C    -3.47470   1.85350  -2.50280
O    -2.56987   2.02172  -1.40281
C    -1.81445   0.96866  -1.08676
O    -1.76031  -0.04358  -1.75124
C    -0.86225   1.25346   0.09921
C    -1.15114   2.57919   0.67346
N    -1.33349   3.61040   1.17282
C    -0.97206   0.16236   1.20627
C    -2.38705  -0.41709   1.38755
O    -2.50202  -1.36316   2.20147
O    -3.32232   0.15277   0.76220
C     0.21397  -0.80774   0.95685
C    -0.15180  -2.29509   0.74627
O     0.37056  -3.12339   1.53635
O    -0.90443  -2.57164  -0.22468
C     0.92735  -0.22740  -0.28747
C     2.41849  -0.46442  -0.26224
C     3.30134   0.39881   0.40221
C     4.66689   0.10819   0.46421
C     5.16758  -1.05604  -0.12875
C     4.29300  -1.92531  -0.78838
C     2.92915  -1.62696  -0.85755
N     0.54426   1.19043  -0.30602
C     0.88612   1.90437  -1.52588
H    -4.19475   1.05353  -2.27640
H    -2.92472   1.60473  -3.42159
H    -3.99452   2.81157  -2.61755
H    -0.76849   0.66882   2.16045
H     0.89870  -0.75600   1.81154
H     0.51966  -0.74069  -1.17469
H     2.91317   1.30490   0.87004
H     5.34422   0.79371   0.97990
H     6.23527  -1.28321  -0.07873
H     4.67463  -2.83636  -1.25597
H     2.24549  -2.30273  -1.37841
H     0.52825   2.94314  -1.46629
H     1.97898   1.93130  -1.64024
H     0.46068   1.43784  -2.43653
