28
Generated by autodE on: 2022-10-13. E = -724.755122 Ha
C    -4.59740  -0.11928  -0.74961
O    -3.50553   0.78867  -0.59456
C    -2.28638   0.23546  -0.36266
O    -2.13049  -0.98331  -0.29676
C    -1.27227   1.24153  -0.19301
C    -1.60576   2.60485  -0.22449
N    -1.88962   3.74146  -0.25466
N     0.05630   0.86745   0.12621
C     0.78443   1.74283   1.05841
C     0.57067  -0.23687  -0.36213
C     1.77959  -0.93103   0.03794
C     2.36296  -0.88474   1.32415
C     3.51062  -1.62497   1.59909
C     4.10021  -2.41721   0.60726
C     3.52069  -2.48874  -0.66425
C     2.36362  -1.76629  -0.94205
H    -4.76477  -0.69794   0.17154
H    -4.41723  -0.81473  -1.58319
H    -5.47742   0.49955  -0.96383
H     0.50191   1.50885   2.09375
H     1.86256   1.62621   0.91689
H     0.50744   2.78071   0.84159
H     0.00773  -0.68537  -1.17936
H     1.90520  -0.30299   2.12220
H     3.94568  -1.58889   2.60010
H     5.00334  -2.98964   0.83055
H     3.96774  -3.11718  -1.43740
H     1.89952  -1.83216  -1.92869
