10
Generated by autodE on: 2022-10-07. E = -455.046483 Ha
O     2.06045   0.25802   1.12489
C     1.56591   0.16854  -0.02910
O     1.76519   0.94995  -0.99435
C     0.73312  -1.06977  -0.30592
C    -0.60482  -1.18694  -0.26684
C    -1.57980  -0.07874   0.05440
O    -2.80345  -0.34989  -0.11210
O    -1.12444   1.02764   0.45962
H     1.32628  -1.95890  -0.56143
H    -1.06640  -2.15267  -0.50341
