38
Generated by autodE on: 2022-10-07. E = -1179.790499 Ha. Imaginary frequency = -458.2 cm-1
C    -3.92791   0.67921  -2.10338
O    -2.90483   1.39895  -1.40783
C    -1.65941   0.88532  -1.45830
O    -1.37174  -0.07244  -2.16281
C    -0.75211   1.61909  -0.57838
C    -1.18969   2.86748  -0.07547
N    -1.55821   3.88405   0.36722
C    -1.13468   0.25549   1.47039
C    -2.54467  -0.18060   1.16007
O    -3.45101   0.57400   1.61448
O    -2.73699  -1.21840   0.46683
C     0.06937  -0.46329   1.43546
C     0.21833  -1.99647   1.39868
O     0.71407  -2.48025   2.45058
O    -0.10180  -2.64132   0.36887
C     0.92087  -0.00394  -0.34950
C     2.31497  -0.50613  -0.33117
C     3.27515  -0.11250   0.61849
C     4.55502  -0.66992   0.60556
C     4.89432  -1.63597  -0.34702
C     3.94023  -2.05366  -1.28035
C     2.65901  -1.50068  -1.26482
N     0.60703   1.31612  -0.52182
C     1.51051   2.37074  -0.06593
H    -4.01070  -0.33932  -1.69869
H    -3.71559   0.63627  -3.18161
H    -4.85786   1.23193  -1.92484
H    -1.10661   1.20811   2.00535
H     0.84092  -0.01812   2.07322
H     0.23300  -0.67448  -0.85550
H     3.01736   0.61612   1.38738
H     5.28890  -0.35335   1.35028
H     5.89678  -2.07038  -0.35444
H     4.19319  -2.81685  -2.01996
H     1.90968  -1.83573  -1.98504
H     1.46076   2.48998   1.02867
H     2.53744   2.12705  -0.35616
H     1.23155   3.31695  -0.54319
