55
Generated by autodE on: 2022-06-06. E = -1650.624116 Ha
C    -5.32626   0.40707  10.57204
N    -5.78521   1.48864  11.42295
C    -6.78007   1.31088  12.29908
O    -7.44973   0.27009  12.33571
C    -7.16874   2.53568  13.16246
C    -8.25346   3.29789  12.30493
O    -8.42900   4.52259  12.36988
N    -9.04800   2.52663  11.55362
C   -10.17594   3.08409  10.82981
C    -7.99997   2.14307  14.43559
C    -7.55550   0.99031  15.33270
C    -6.19462   1.14729  15.99398
C    -5.00412   0.88271  15.05392
C    -4.05060   2.08332  14.80451
C    -3.45166   2.44317  16.19846
O    -2.49540   1.81436  16.65312
N    -4.10670   3.37572  16.91001
C    -3.58714   3.84451  18.17903
C    -2.90513   1.55309  13.89608
F    -2.37360   0.40148  14.32979
F    -1.89288   2.42137  13.74983
F    -3.36497   1.30257  12.65123
C    -4.70494   3.28003  14.12711
C    -4.08876   4.57038  13.96986
C    -2.77477   5.09545  14.42367
O    -2.06975   4.60874  15.28538
O    -2.44027   6.21526  13.76888
C    -1.21380   6.84173  14.16697
N    -4.89538   5.41434  13.31877
N    -5.97852   4.71727  13.05074
C    -5.95782   3.42618  13.48264
H    -4.94913  -0.43886  11.16850
H    -4.51797   0.78002   9.93194
H    -6.14584   0.04063   9.93631
H    -5.19597   2.30911  11.51452
H    -8.94927   1.51577  11.61299
H   -10.94549   3.47047  11.51772
H   -10.61725   2.29594  10.20809
H    -9.84969   3.91113  10.18272
H    -9.01551   1.90203  14.09369
H    -8.08548   3.06661  15.02911
H    -7.59656   0.04437  14.77391
H    -8.32201   0.91728  16.12175
H    -6.13426   2.14849  16.44022
H    -6.12867   0.44449  16.83786
H    -5.35053   0.50411  14.08339
H    -4.38199   0.08357  15.47447
H    -4.80922   3.93852  16.44243
H    -3.41926   3.00146  18.86482
H    -2.63003   4.37621  18.04455
H    -4.31491   4.53018  18.63055
H    -1.25373   7.13199  15.22708
H    -0.36351   6.16250  14.00857
H    -1.11124   7.73102  13.53430
H    -6.81944   5.12904  12.62795
