44
Generated by autodE on: 2022-06-06. E = -1273.706425 Ha
C     0.62198  -2.21192   4.45330
N     1.20044  -1.28114   3.50351
C     0.63347  -1.03923   2.32042
O    -0.41680  -1.58286   1.95395
C     1.33148   0.03880   1.43406
C     2.86326  -0.03725   1.53167
O     3.43046   0.09193   2.62637
N     3.53321  -0.20982   0.38828
C     4.98361  -0.25227   0.35240
C     0.78186  -0.08762   0.09002
C    -0.03251   0.05693  -0.79197
C    -1.27568   0.44911  -1.44467
C    -2.29136  -0.72831  -1.46541
O    -3.16714  -0.79662  -2.32922
N    -2.17613  -1.59510  -0.45144
C    -3.13872  -2.66395  -0.26665
C    -0.98121   0.91706  -2.87714
F    -0.52830  -0.09460  -3.63773
F    -2.04545   1.44303  -3.49358
F    -0.02570   1.86837  -2.87309
C    -1.91309   1.62038  -0.59172
C    -0.96033   2.43705   0.29865
C    -0.58868   1.82610   1.68109
C     0.88797   1.46848   1.93097
H    -0.39745  -1.90592   4.73542
H     0.56654  -3.22876   4.03325
H     1.24809  -2.23360   5.35332
H     2.08667  -0.81193   3.69643
H     3.01209  -0.30229  -0.47857
H     5.30605  -0.43623  -0.67911
H     5.36909  -1.05700   0.99694
H     5.41712   0.69933   0.69767
H    -1.45650  -1.46208   0.26671
H    -4.15644  -2.26915  -0.11432
H    -2.84791  -3.24479   0.61733
H    -3.16290  -3.33359  -1.14041
H    -2.43637   2.28618  -1.29212
H    -2.69052   1.17309   0.04404
H    -1.47883   3.39064   0.48289
H    -0.05241   2.70037  -0.26552
H    -0.85488   2.56273   2.45433
H    -1.22024   0.94666   1.88532
H     1.53846   2.20205   1.42920
H     1.11551   1.51825   3.00485
