55
Generated by autodE on: 2022-06-06. E = -1650.460537 Ha. Imaginary frequency = -374.3 cm-1
C    -6.37166   0.63884   9.63226
N    -6.36649   1.42744  10.84904
C    -7.21388   1.17473  11.85251
O    -8.02876   0.24575  11.83465
C    -7.17680   2.17577  13.04209
C    -8.15318   3.34196  12.72028
O    -7.87551   4.52130  12.98092
N    -9.32750   2.98181  12.19229
C   -10.37259   3.94907  11.91083
C    -7.74952   1.51202  14.32978
C    -6.89685   0.42412  14.98885
C    -5.81771   0.88331  15.99457
C    -4.36096   0.79083  15.53066
C    -3.75176   2.05711  14.84153
C    -3.40883   3.09650  15.94359
O    -2.36810   2.99304  16.59551
N    -4.34330   4.03136  16.16805
C    -4.15275   5.10868  17.11812
C    -2.44043   1.58442  14.16786
F    -1.71611   0.78213  14.95923
F    -1.62705   2.59267  13.80016
F    -2.71628   0.88575  13.05103
C    -4.68149   2.60370  13.82665
C    -3.57958   4.45302  12.90198
C    -2.25869   5.05898  13.16710
O    -1.37476   5.14984  12.34422
O    -2.16904   5.42356  14.43856
C    -0.88402   5.85854  14.91139
N    -4.44540   4.64440  12.07641
N    -5.51181   4.22643  11.58810
C    -5.79669   2.63577  13.28511
H    -5.51799   0.93753   9.01164
H    -7.30008   0.78821   9.05619
H    -6.28534  -0.43263   9.86497
H    -5.81105   2.28375  10.89671
H    -9.50793   1.99378  12.03202
H   -11.19060   3.44175  11.38585
H   -10.76604   4.39538  12.83804
H    -9.98851   4.76159  11.27632
H    -8.72145   1.08408  14.05298
H    -7.94621   2.31719  15.05512
H    -7.60381  -0.22108  15.53293
H    -6.44764  -0.22118  14.21581
H    -6.04329   1.89846  16.35722
H    -5.89212   0.23471  16.88037
H    -4.26488  -0.05107  14.82827
H    -3.70988   0.56755  16.38698
H    -5.11737   4.09392  15.51231
H    -3.64979   5.97035  16.64895
H    -3.53584   4.75707  17.95485
H    -5.12794   5.43556  17.50301
H    -1.01323   6.05550  15.98102
H    -0.56875   6.77083  14.38590
H    -0.14250   5.06214  14.75581
H    -6.32768   4.73432  11.98249
