44
Generated by autodE on: 2022-06-01. E = -1386.541508 Ha
C    -1.51831  -1.03509  -2.82991
C    -2.11488  -1.05106  -1.46099
O    -3.30218  -1.14758  -1.23948
C    -1.14956  -0.93273  -0.21608
C    -1.70149  -1.91304   0.75869
N    -2.05257  -2.79438   1.42535
N     0.22895  -1.25825  -0.53130
C     0.56340  -2.66407  -0.72188
C     1.15725  -0.46796   0.26966
C     1.35725  -1.11040   1.60205
N     1.46010  -1.65784   2.61947
C     2.51270  -0.29841  -0.42108
C     2.58825  -0.33432  -1.81963
C     3.80721  -0.10432  -2.46107
C     4.95709   0.16883  -1.71355
C     4.88223   0.20854  -0.31857
C     3.66480  -0.02731   0.32583
C     0.41577   0.88420   0.49912
C     0.62640   1.96333  -0.61568
C    -0.02824   3.24066  -0.12419
C    -1.34395   3.03213  -0.24255
C    -1.47656   1.62591  -0.80874
O    -0.30426   1.52450  -1.61701
C    -1.10393   0.56834   0.32567
C    -1.91912   0.72587   1.61094
F    -1.43660  -0.04845   2.60259
F    -3.20329   0.37988   1.41177
F    -1.91763   1.97664   2.08794
H    -0.79034  -0.22092  -2.92941
H    -2.32426  -0.94527  -3.56917
H    -0.97468  -1.97826  -2.99906
H     1.54813  -2.74283  -1.19987
H    -0.17283  -3.14161  -1.38015
H     0.58855  -3.22895   0.22813
H     1.68891  -0.53803  -2.40081
H     3.85715  -0.13831  -3.55177
H     5.90965   0.34818  -2.21737
H     5.77478   0.42068   0.27426
H     3.61645   0.00459   1.41644
H     0.67478   1.29179   1.48161
H     1.64186   2.03402  -1.01162
H     0.49813   4.09139   0.30760
H    -2.17532   3.66665   0.05868
H    -2.38845   1.40308  -1.36948
