28
Generated by autodE on: 2022-06-01. E = -741.767423 Ha
C     3.85014   1.06434   0.79623
C     2.37327   0.85839   0.55198
O     1.54622   1.71190   0.89438
C     1.98377  -0.40251  -0.05951
C     2.95635  -1.38568  -0.33943
N     3.78680  -2.17312  -0.57792
N     0.63970  -0.76676  -0.12673
C     0.28662  -2.16039   0.20132
C    -0.29928   0.13271  -0.42390
C     0.07527   1.26085  -1.21571
N     0.29014   2.15930  -1.92316
C    -1.71195   0.01360  -0.04769
C    -2.71062   0.48106  -0.92597
C    -4.05424   0.39150  -0.57004
C    -4.41868  -0.14535   0.66960
C    -3.43157  -0.58745   1.55754
C    -2.08581  -0.50886   1.20730
H     4.40595   1.00422  -0.15295
H     4.00315   2.05217   1.24859
H     4.25475   0.28720   1.46309
H    -0.73655  -2.37183  -0.11966
H     0.97710  -2.81558  -0.34502
H     0.40346  -2.33476   1.27861
H    -2.43048   0.90218  -1.89327
H    -4.82111   0.74396  -1.26277
H    -5.47271  -0.20970   0.94861
H    -3.71155  -0.98679   2.53452
H    -1.32234  -0.82712   1.91743
