44
Generated by autodE on: 2022-06-01. E = -1386.462006 Ha. Imaginary frequency = -282.7 cm-1
C    -3.33750  -2.25522  -0.75173
C    -2.02317  -1.67226  -1.19717
O    -1.83876  -1.33946  -2.36093
C    -0.96126  -1.48644  -0.16202
C    -1.27807  -2.02204   1.12545
N    -1.60987  -2.52415   2.12233
N     0.37320  -1.40173  -0.53576
C     0.77805  -1.93817  -1.85132
C     1.27966  -0.71852   0.24462
C     1.15525  -0.82874   1.67728
N     1.14953  -0.86269   2.83889
C     2.67521  -0.45869  -0.20822
C     2.96032   0.01920  -1.50494
C     4.27054   0.30267  -1.88562
C     5.32572   0.11856  -0.98724
C     5.05797  -0.35084   0.30117
C     3.74858  -0.63278   0.68844
C     0.18736   1.26736   0.38084
C     0.50431   1.99665  -0.93682
C    -0.27652   3.32204  -0.91088
C    -1.55911   2.97502  -1.05630
C    -1.54432   1.43760  -1.16278
O    -0.29966   1.22201  -1.84439
C    -1.15625   0.90329   0.24339
C    -2.12691   0.98242   1.37328
F    -2.53245   2.26067   1.57704
F    -1.60952   0.55604   2.53543
F    -3.25657   0.27725   1.14939
H    -4.04632  -2.20631  -1.58741
H    -3.18886  -3.30660  -0.45527
H    -3.74708  -1.72697   0.11851
H     0.64543  -1.20938  -2.65512
H     0.16852  -2.82145  -2.06102
H     1.82565  -2.24733  -1.78483
H     2.16212   0.18050  -2.22406
H     4.46502   0.67422  -2.89387
H     6.35113   0.34188  -1.28989
H     5.87219  -0.50140   1.01311
H     3.56318  -0.99901   1.69834
H     0.64857   1.55651   1.32391
H     1.55165   2.04740  -1.24340
H     0.16675   4.30404  -0.74988
H    -2.45596   3.59247  -1.04753
H    -2.38417   0.95940  -1.67191
