57
Generated by autodE on: 2022-06-25. E = -1437.329481 Ha
C     4.67568  -1.02556   1.87800
O     3.87414   0.05318   1.37660
C     2.82672  -0.16913   0.57555
C     2.62554  -1.24461  -0.24612
O     3.61122  -2.15249  -0.43146
C     3.36004  -3.53470  -0.12547
C     1.35420  -1.44418  -0.97448
O     1.22112  -2.43174  -1.68852
C     0.25680  -0.38570  -0.90423
C    -0.35551  -0.27139  -2.30934
C    -0.90738  -0.66392   0.15178
C    -0.42256  -1.32658   1.46689
C    -1.07569  -0.88598   2.74140
O     0.43376  -2.19160   1.44163
C    -2.01480  -1.58024  -0.37657
C    -3.26425  -1.04992  -0.72605
C    -4.26179  -1.87318  -1.25531
C    -4.02569  -3.23848  -1.43743
C    -2.78371  -3.77503  -1.08414
C    -1.78627  -2.95409  -0.55375
N    -1.42467   0.67198   0.45130
C    -0.56142   1.57149   0.15650
C    -0.88370   3.00767   0.29899
C     0.08677   3.97978   0.59949
C    -0.27530   5.32212   0.73006
C    -1.60474   5.71581   0.55318
C    -2.57768   4.75664   0.25049
C    -2.22113   3.41473   0.12710
C     0.75491   1.00781  -0.40198
C     1.43143   1.86482  -1.49055
C     1.76304   0.85496   0.73439
O     1.73926   1.55961   1.73117
H     5.23146  -0.60558   2.72640
H     4.03750  -1.85084   2.22741
H     5.37669  -1.39071   1.11694
H     4.29235  -3.93493   0.29770
H     2.55447  -3.63335   0.61506
H     3.09760  -4.09117  -1.03506
H    -1.14356   0.49311  -2.33336
H     0.41418  -0.00490  -3.04517
H    -0.79069  -1.22904  -2.61311
H    -0.68932   0.11239   3.00407
H    -0.83309  -1.59375   3.54443
H    -2.16306  -0.78886   2.61501
H    -3.44981   0.01452  -0.58712
H    -5.22860  -1.44237  -1.52658
H    -4.80592  -3.88238  -1.85010
H    -2.58815  -4.84144  -1.21886
H    -0.82412  -3.38715  -0.28285
H     1.12099   3.68544   0.76703
H     0.48825   6.06421   0.97391
H    -1.88272   6.76804   0.64906
H    -3.61795   5.05701   0.10559
H    -2.97510   2.66578  -0.11894
H     0.68970   2.22607  -2.21438
H     1.93294   2.73758  -1.05359
H     2.18759   1.27011  -2.02223
