31
Generated by autodE on: 2022-06-25. E = -747.807806 Ha
C    -0.63040  -3.10445  -0.42513
C    -1.72543  -2.06830  -0.23447
O    -2.91624  -2.42943  -0.23658
C    -1.31240  -0.69435  -0.05843
N     0.01876  -0.48751  -0.07374
C     1.17368  -0.32150  -0.08945
C     2.57466  -0.15112  -0.10497
C     3.13131   1.14565  -0.04405
C     4.51580   1.29077  -0.05839
C     5.34728   0.16713  -0.13695
C     4.79073  -1.11623  -0.19957
C     3.40961  -1.28871  -0.18200
C    -2.16231   0.48819   0.13485
C    -1.58398   1.76741   0.31282
C    -2.37605   2.90000   0.49761
C    -3.77141   2.79977   0.51176
C    -4.35784   1.54260   0.33595
C    -3.57377   0.40299   0.15001
H    -0.01812  -2.88127  -1.31385
H    -1.09765  -4.08993  -0.54730
H     0.05155  -3.13234   0.44015
H     2.47530   2.01543   0.01331
H     4.94998   2.29152  -0.00981
H     6.43202   0.29200  -0.14947
H     5.43964  -1.99238  -0.26037
H     2.96502  -2.28408  -0.22754
H    -0.49850   1.88247   0.30789
H    -1.89448   3.87192   0.63260
H    -4.39079   3.68773   0.65725
H    -5.44648   1.44208   0.34267
H    -4.04202  -0.56807   0.01396
