47
Generated by autodE on: 2022-06-21. E = -1056.856242 Ha
C    -3.03166  -3.17549  -0.61733
C    -2.71093  -1.88250  -0.77375
C    -3.77230  -0.82331  -0.89643
C    -1.27360  -1.42308  -0.89857
C    -0.18647  -2.37683  -0.37849
C    -0.46342  -2.88879   0.98759
N    -0.61786  -3.24398   2.08098
O     0.98542  -1.58515  -0.35246
C     0.64240  -0.27679   0.11153
C     0.90082  -0.18502   1.62874
O     0.30223   0.56288   2.37416
O     1.87903  -0.99403   2.01713
C     2.18005  -1.01666   3.42180
C     1.53481   0.74287  -0.58571
C     2.23743   0.39426  -1.74462
C     3.00617   1.34985  -2.41721
C     3.07950   2.66030  -1.93887
C     2.37885   3.01162  -0.78017
C     1.61012   2.06026  -0.10774
C    -0.90711  -0.09710  -0.18308
C    -1.23794   1.12443  -0.98439
C    -1.82428   2.25170  -0.54679
C    -2.05593   3.40741  -1.48205
C    -2.27801   2.48502   0.86719
H    -2.28694  -3.97218  -0.54833
H    -4.07919  -3.48652  -0.56483
H    -4.77609  -1.27167  -0.88594
H    -3.65281  -0.24903  -1.82972
H    -3.70825  -0.09335  -0.07355
H    -1.04893  -1.29152  -1.97137
H    -0.00706  -3.23734  -1.03708
H     2.47286  -0.01560   3.76835
H     3.01103  -1.72106   3.53982
H     1.30299  -1.36318   3.98723
H     2.17934  -0.62569  -2.12291
H     3.54936   1.06476  -3.32139
H     3.67990   3.40578  -2.46554
H     2.42727   4.03379  -0.39771
H     1.05805   2.34763   0.78768
H    -1.42126  -0.06631   0.78364
H    -0.93144   1.07896  -2.03532
H    -1.52083   4.30613  -1.12711
H    -3.12611   3.67760  -1.51704
H    -1.71821   3.18584  -2.50517
H    -3.35484   2.72710   0.88975
H    -2.09782   1.63331   1.53358
H    -1.75518   3.36044   1.29131
