47
Generated by autodE on: 2022-06-21. E = -1056.773456 Ha. Imaginary frequency = -249.6 cm-1
C    -2.93316  -3.50230  -0.59095
C    -2.52774  -2.31534  -0.09621
C    -2.88155  -1.88753   1.30251
C    -1.73051  -1.41032  -0.93047
C     0.52780  -2.29326  -0.62957
C     0.23156  -3.24513   0.37298
N    -0.07635  -4.14581   1.05131
O     1.15464  -1.13697  -0.46420
C     0.95885  -0.07140   0.31772
C     0.53989  -0.22466   1.71721
O     0.04515   0.65356   2.40969
O     0.78405  -1.45867   2.17048
C     0.36500  -1.78370   3.50005
C     1.53630   1.15560  -0.20441
C     1.96676   1.20418  -1.55231
C     2.50979   2.36668  -2.09012
C     2.62414   3.52235  -1.30857
C     2.19768   3.49186   0.02338
C     1.66363   2.32794   0.57326
C    -1.53593  -0.06263  -0.63835
C    -1.20816   0.89469  -1.66104
C    -1.21292   2.24785  -1.52239
C    -0.89435   3.14401  -2.67906
C    -1.56987   2.94806  -0.24024
H    -2.66269  -3.81681  -1.60357
H    -3.54065  -4.18936   0.00417
H    -3.41943  -2.68372   1.83558
H    -3.51514  -0.98519   1.29758
H    -1.97983  -1.63536   1.87855
H    -1.60452  -1.71809  -1.97200
H     0.72241  -2.71664  -1.61798
H     1.00095  -1.26547   4.23248
H     0.48107  -2.86942   3.59375
H    -0.68382  -1.49841   3.65949
H     1.87325   0.31515  -2.17493
H     2.83456   2.37618  -3.13303
H     3.04236   4.43738  -1.73378
H     2.28149   4.38621   0.64514
H     1.33414   2.32621   1.60976
H    -1.84345   0.31020   0.33887
H    -0.95121   0.48265  -2.64299
H    -0.00519   3.75933  -2.45140
H    -0.69759   2.58042  -3.60253
H    -1.72058   3.85360  -2.86543
H    -2.62225   3.28608  -0.27203
H    -1.44130   2.31643   0.64745
H    -0.95346   3.85030  -0.10961
