29
Generated by autodE on: 2022-06-19. E = -691.648371 Ha
C    -3.04173   1.08112   2.15923
O    -2.14503   0.52195   1.20226
C    -2.68741  -0.36255   0.31333
O    -3.89180  -0.64148   0.34664
C    -1.75410  -0.90948  -0.62367
C    -2.16642  -1.89208  -1.66246
O    -0.49840  -0.46835  -0.46094
C     0.66850  -0.62016  -0.99701
C     0.94524  -1.48481  -2.17963
C     1.72641   0.13278  -0.33696
C     1.45066   0.95052   0.78556
C     2.46907   1.66365   1.40928
C     3.78643   1.58210   0.93721
C     4.07286   0.77616  -0.16897
C     3.05877   0.05801  -0.80238
H    -2.44174   1.75950   2.77882
H    -3.84987   1.64448   1.66769
H    -3.48898   0.29894   2.79211
H    -3.23194  -2.10787  -1.51454
H    -1.61320  -2.84414  -1.58745
H    -2.04095  -1.51128  -2.69121
H     1.62928  -2.30388  -1.89960
H     0.04295  -1.91902  -2.61140
H     1.45582  -0.89825  -2.96022
H     0.42888   1.01698   1.15898
H     2.23624   2.29009   2.27364
H     4.58323   2.14339   1.43035
H     5.09645   0.70495  -0.54399
H     3.30624  -0.56383  -1.66299
