32
Generated by autodE on: 2022-06-16. E = -710.170299 Ha
C     3.92188  -0.21155  -0.08405
O     2.62632  -0.35488   0.51937
C     1.65774   0.44527   0.06904
O     1.82276   1.28022  -0.79419
C     0.32283   0.14757   0.75674
C     0.46416   0.29715   2.26950
O    -0.62797   1.12268   0.30787
C    -1.60874   0.53261  -0.54377
C    -2.88217   1.36595  -0.46623
C    -1.11212   0.56559  -1.94808
N    -0.73950   0.59598  -3.04662
C    -1.70178  -0.94475  -0.07565
C    -2.67592  -1.14993   1.08127
C    -0.21587  -1.23373   0.24665
C     0.06151  -2.42546   1.15119
H     3.86543  -0.41488  -1.16307
H     4.30954   0.80425   0.07815
H     4.56742  -0.94768   0.40827
H     1.22797  -0.38192   2.66773
H     0.76020   1.33049   2.50561
H    -0.49351   0.08645   2.76294
H    -3.22302   1.41808   0.57553
H    -2.68494   2.38624  -0.82501
H    -3.67144   0.91753  -1.08610
H    -2.02175  -1.57658  -0.91735
H    -2.63704  -2.19373   1.42388
H    -2.44981  -0.50184   1.94030
H    -3.70881  -0.94859   0.76271
H     0.27579  -1.43186  -0.71940
H     1.14497  -2.56990   1.27320
H    -0.38161  -2.30864   2.14949
H    -0.35129  -3.34211   0.70220
