12
Generated by autodE on: 2022-06-16. E = -157.299004 Ha
C     1.50860  -0.73638   0.07064
C     0.70700   0.44052  -0.39936
C    -0.60669   0.65821  -0.22846
C    -1.59603  -0.22096   0.47634
H     2.32717  -0.41214   0.73739
H     0.90565  -1.47972   0.61162
H     1.99245  -1.24608  -0.78131
H     1.27594   1.20360  -0.94569
H    -1.02124   1.58428  -0.64678
H    -1.14471  -1.13780   0.88171
H    -2.07550   0.31978   1.31147
H    -2.41319  -0.51670  -0.20519
