20
Generated by autodE on: 2022-07-27. E = -552.751651 Ha
C     3.31009  -1.02988   0.06016
O     2.22471  -0.51091   0.83577
C     1.02842  -0.43586   0.21671
O     0.85816  -0.76548  -0.95342
C    -0.01346  -0.02512   1.13349
C     0.15348   0.00394   2.61301
O    -1.24633   0.16207   0.70565
C    -1.82165   0.40730  -0.45176
C    -3.31094   0.33413  -0.45970
C    -1.10324   0.86298  -1.57166
N    -0.61114   1.35139  -2.51463
H     3.10798  -2.06654  -0.24844
H     3.47862  -0.41265  -0.83476
H     4.19095  -0.99718   0.71213
H     0.68603  -0.88890   2.97636
H     0.74089   0.88377   2.93039
H    -0.83281   0.06001   3.09407
H    -3.69461   0.54450   0.55016
H    -3.73528   1.05788  -1.17037
H    -3.66108  -0.67225  -0.75269
