20
Generated by autodE on: 2022-06-16. E = -552.759507 Ha
C     3.36599   0.49961   1.29277
O     1.98498   0.36608   0.94221
C     1.72613  -0.11266  -0.28947
O     2.60490  -0.42567  -1.08460
C     0.30479  -0.22411  -0.58684
C    -0.20758  -0.72774  -1.87920
O    -0.48051   0.16099   0.38890
C    -1.77611   0.23103   0.57273
C    -2.22518   0.77073   1.89044
C    -2.72049  -0.17144  -0.39585
N    -3.60290  -0.47071  -1.10375
H     3.87375  -0.47588   1.25838
H     3.87634   1.19645   0.61121
H     3.38159   0.89514   2.31529
H    -0.82094  -1.63577  -1.74593
H    -0.83755   0.02545  -2.38333
H     0.64132  -0.96942  -2.52928
H    -1.34249   0.99450   2.50512
H    -2.81460   1.69482   1.76426
H    -2.85893   0.04356   2.42517
