22
Generated by autodE on: 2022-10-21. E = -658.549265 Ha
C    -3.54910  -0.55002   0.56726
N    -2.22636  -0.01002   0.32269
C    -1.15812  -0.81397   0.24677
O    -1.23850  -2.04884   0.38032
C     0.16336  -0.16972  -0.00682
N     0.35550   1.11960  -0.16229
N    -0.53850   2.08370  -0.12718
C    -0.07701   3.30690  -0.31608
N     0.21390   4.43172  -0.47057
C     1.46783  -0.91325  -0.12248
O     2.50253  -0.26012  -0.33866
N     1.42702  -2.23665   0.01721
C     2.62496  -3.04609  -0.07397
H    -3.84839  -1.24372  -0.23423
H    -4.26538   0.27875   0.60907
H    -3.58020  -1.10153   1.51987
H    -2.08497   0.99434   0.20036
H     1.36623   1.32614  -0.32848
H     0.50274  -2.64291   0.19164
H     3.11257  -2.92265  -1.05380
H     3.35310  -2.76620   0.70379
H     2.35089  -4.09933   0.05761
