21
Generated by autodE on: 2022-10-21. E = -387.436422 Ha
C     2.89188  -0.47349  -0.52611
O     1.92772  -0.32365   0.50797
C     0.71208   0.12421   0.12223
C     0.22426   0.45433  -1.09297
C    -1.26629   0.70453  -0.88245
C    -1.92828  -0.68266  -0.59525
C    -1.32724  -1.06731   0.78996
C    -0.41926   0.15965   1.12996
C    -1.26235   1.30858   0.54008
H     3.81656  -0.83173  -0.05529
H     2.55176  -1.20538  -1.27843
H     3.08405   0.49004  -1.02841
H     0.72452   0.39264  -2.05890
H    -1.76581   1.28805  -1.66758
H    -1.69306  -1.41402  -1.38193
H    -3.02425  -0.58774  -0.54116
H    -0.74863  -2.00231   0.76716
H    -2.11328  -1.17760   1.55217
H    -0.10642   0.22820   2.17989
H    -2.26550   1.38346   0.98924
H    -0.75634   2.28400   0.59161
