43
Generated by autodE on: 2022-10-21. E = -1045.966853 Ha. Imaginary frequency = -329.4 cm-1
C    -1.71232  -3.25254  -1.64868
N    -1.47950  -2.32275  -0.56026
C    -1.52669  -0.99253  -0.76553
O    -1.90675  -0.51464  -1.85092
C    -1.16411  -0.10857   0.37808
C    -1.88312   1.18950   0.59603
O    -1.85132   1.72450   1.71759
N    -2.49381   1.73119  -0.46163
C    -3.10294   3.04227  -0.39578
N    -0.68942  -0.61550   1.54532
N     0.39554  -1.40331   1.46949
C     0.91859  -1.79427   2.62337
N     1.47998  -2.20002   3.56831
C     1.77131  -0.10457   0.45010
C     2.53285  -0.93467  -0.55800
C     3.54177   0.06341  -1.21768
C     2.61577   0.99212  -2.05992
C     1.19154   0.42266  -1.77000
C     1.50457  -1.08278  -1.69262
C     0.94229   0.75815  -0.30593
O     0.68173   2.06523  -0.01566
C     1.16019   2.58810   1.22007
H    -2.69534  -3.07495  -2.10788
H    -1.68428  -4.27465  -1.25227
H    -0.94504  -3.15334  -2.43553
H    -1.00173  -2.66166   0.26957
H    -2.44592   1.19700  -1.33246
H    -3.84598   3.09497   0.41475
H    -3.60327   3.25039  -1.34933
H    -2.34725   3.82445  -0.21388
H    -0.75228   0.06431   2.31674
H     2.23279   0.19604   1.39071
H     2.98929  -1.85189  -0.16415
H     4.24723  -0.49006  -1.85565
H     4.12770   0.61116  -0.46550
H     2.83677   0.91449  -3.13450
H     2.69148   2.05044  -1.77354
H     0.40534   0.74907  -2.46062
H     0.66029  -1.71846  -1.41813
H     1.95272  -1.46227  -2.62219
H     2.26326   2.59366   1.23651
H     0.78638   3.61779   1.28735
H     0.78497   2.01436   2.07993
