55
Generated by autodE on: 2022-10-22. E = -1286.077109 Ha
C     2.05100   3.12581  -2.18762
N     1.40607   2.27425  -1.20976
C     1.97359   1.13047  -0.81038
O     3.12264   0.80532  -1.12557
C     1.07874   0.25505   0.12790
C     1.94359  -0.76364   0.85570
C     2.63634  -1.75640   0.14440
C     3.43807  -2.68259   0.81333
C     3.56454  -2.63068   2.20588
C     2.88905  -1.63852   2.91962
C     2.08904  -0.70849   2.24713
O     0.52862   1.19668   1.04619
C    -0.78303   0.84916   1.41870
C    -1.52294   2.04187   2.01371
C    -0.74166   3.28527   2.29375
O    -2.71212   1.92519   2.26280
C    -1.44311   0.20802   0.16361
C    -2.15553   1.35454  -0.56916
C    -3.64617   1.35877  -0.74457
O    -1.50239   2.32185  -0.93930
C    -2.24480  -1.05665   0.56034
C    -2.85812  -1.74461  -0.67694
C    -1.61728  -2.32570  -1.40615
C    -0.43493  -1.91282  -0.49649
C    -1.09862  -2.03866   0.88409
C    -0.20090  -0.37859  -0.64025
O    -0.26905   0.04914  -1.98501
C     0.61995  -0.55950  -2.91285
H     3.06848   3.39130  -1.86499
H     1.46448   4.04615  -2.30231
H     2.12681   2.62901  -3.17071
H     0.40861   2.40110  -1.01995
H     2.54835  -1.80853  -0.94058
H     3.96742  -3.44951   0.24282
H     4.18963  -3.35817   2.72921
H     2.98448  -1.58191   4.00665
H     1.57513   0.07035   2.81026
H    -0.76785   0.10732   2.23594
H    -1.38116   4.02993   2.78449
H     0.13317   3.05041   2.92049
H    -0.34967   3.68259   1.34395
H    -3.99373   2.40065  -0.75426
H    -4.16915   0.78196   0.02703
H    -3.88401   0.91600  -1.72616
H    -2.95562  -0.85304   1.37148
H    -3.43806  -1.07116  -1.31540
H    -3.53939  -2.54181  -0.34540
H    -1.52908  -1.95456  -2.43227
H    -1.65666  -3.42348  -1.45272
H     0.46330  -2.51447  -0.65398
H    -1.46557  -3.05836   1.07086
H    -0.45704  -1.75185   1.72517
H     0.43047  -1.63838  -3.02663
H     0.44112  -0.06687  -3.87851
H     1.67473  -0.41895  -2.63749
