29
Generated by autodE on: 2022-10-22. E = -745.831647 Ha
C    -0.90762   2.74467   1.28918
N    -0.43637   2.78191  -0.08507
C     0.02017   1.75809  -0.81975
O     0.49255   1.88188  -1.95560
C    -0.03653   0.37600  -0.21876
O     1.07279  -0.28459  -0.10975
C     2.33868   0.07093  -0.33167
C     3.33914  -0.90773  -0.08182
C     2.90372  -2.27460   0.41156
O     4.54545  -0.64289  -0.26641
C    -1.25675  -0.33428   0.08807
C    -2.51541   0.25005  -0.18130
C    -3.68973  -0.43914   0.11373
C    -3.63678  -1.71723   0.67968
C    -2.39355  -2.30740   0.94710
C    -1.21458  -1.62999   0.65673
H    -0.54632   1.83960   1.79260
H    -2.00704   2.76653   1.34581
H    -0.51227   3.61655   1.82880
H    -0.42448   3.68513  -0.55697
H     2.55629   1.07998  -0.68125
H     2.20808  -2.75045  -0.29699
H     3.79283  -2.90782   0.53095
H     2.38145  -2.19565   1.37842
H    -2.57395   1.24140  -0.63249
H    -4.65421   0.02506  -0.10323
H    -4.55952  -2.25367   0.91128
H    -2.34651  -3.30540   1.38859
H    -0.24995  -2.09183   0.87037
