29
Generated by autodE on: 2022-10-26. E = -745.835452 Ha
C     0.66843   2.49862  -3.24240
N     0.17838   1.79411  -2.07586
C     0.82651   0.71568  -1.58991
O     1.84455   0.25351  -2.12615
C     0.25931   0.09816  -0.36073
O    -0.72724   0.77290   0.15503
C    -1.55242   0.57321   1.16956
C    -2.57516   1.55079   1.38001
C    -2.61918   2.75809   0.46757
O    -3.40319   1.39599   2.29540
C     0.77971  -1.13481   0.21754
C     1.17699  -2.19719  -0.62396
C     1.68823  -3.37342  -0.08011
C     1.82614  -3.50987   1.30569
C     1.44684  -2.45983   2.14850
C     0.92129  -1.28459   1.61437
H     1.68963   2.88021  -3.08148
H     0.00307   3.34524  -3.44953
H     0.69143   1.84121  -4.12632
H    -0.64768   2.13648  -1.59840
H    -1.45548  -0.32089   1.78363
H    -3.42032   3.43003   0.80175
H    -1.65842   3.29603   0.47221
H    -2.81427   2.44907  -0.57269
H     1.07079  -2.09518  -1.70310
H     1.97954  -4.19161  -0.74248
H     2.22925  -4.43299   1.72826
H     1.56316  -2.55517   3.23029
H     0.65337  -0.46783   2.28561
