30
Generated by autodE on: 2022-05-28. E = -1168.544197 Ha
C     3.76088   0.49412  -0.01959
O     2.41312   0.31755  -0.48517
C     1.69318  -0.61881   0.11905
O     2.11781  -1.35946   0.97945
C     0.24812  -0.63413  -0.38117
O     0.24818  -0.29800  -1.77534
N    -0.49180   0.87003  -2.00599
C    -0.98199   1.31866  -0.91039
C    -1.81845   2.54546  -0.84731
C    -0.66255   0.45905   0.27810
Cl    0.17050   1.46418   1.56213
C    -1.80758  -0.36094   0.91738
C    -2.69880  -0.94368  -0.20130
C    -1.79242  -2.02719  -0.85686
C    -0.49414  -1.94915  -0.03220
C    -1.03366  -1.61222   1.37506
H     4.19040   1.29136  -0.63646
H     4.33385  -0.43579  -0.14122
H     3.75611   0.78960   1.03954
H    -1.34525   3.29130  -0.19010
H    -1.95336   2.97627  -1.84782
H    -2.80404   2.30661  -0.41633
H    -2.34978   0.20567   1.68295
H    -3.58970  -1.39317   0.25979
H    -3.04880  -0.18424  -0.91319
H    -2.22905  -3.02998  -0.75219
H    -1.61445  -1.84909  -1.92470
H     0.15591  -2.82808  -0.11207
H    -1.69594  -2.39716   1.76774
H    -0.24950  -1.39882   2.11268
