23
Generated by autodE on: 2022-05-28. E = -960.479086 Ha
C     3.71930   0.73676  -0.34749
O     2.31414   0.95284  -0.17825
C     1.57738  -0.11976   0.17265
O     2.06478  -1.22328   0.34828
C     0.16136   0.23118   0.30693
C    -0.90438  -0.60527   0.32547
Cl   -0.93280  -2.32450   0.21486
C    -2.17143   0.21453   0.24100
C    -2.19760   0.77367  -1.22178
C    -0.99900   1.76429  -1.23965
C    -0.42516   1.63812   0.20670
C    -1.72268   1.46642   1.02247
H     4.14418   1.70759  -0.62850
H     3.90540  -0.00173  -1.14127
H     4.17303   0.38165   0.58956
H    -3.08426  -0.30322   0.55659
H    -3.15297   1.28941  -1.39593
H    -2.10776  -0.03306  -1.96281
H    -0.24117   1.51305  -1.99474
H    -1.33423   2.79550  -1.42435
H     0.25720   2.44200   0.50342
H    -1.53966   1.26508   2.08789
H    -2.41969   2.31049   0.91296
