30
Generated by autodE on: 2022-05-28. E = -1168.449401 Ha. Imaginary frequency = -461.8 cm-1
C     3.70287   0.56787  -0.10660
O     2.28477   0.49207   0.06414
C     1.74465  -0.73462   0.06688
O     2.41518  -1.75280  -0.03081
C     0.28575  -0.73400   0.20565
O     0.47430  -0.16401  -2.13188
N    -0.26723   0.80688  -1.99324
C    -0.93607   1.39696  -1.17349
C    -1.83037   2.54939  -1.00553
C    -0.57477   0.28837   0.61575
Cl   -0.06408   1.68067   1.58749
C    -1.89517  -0.39628   1.01857
C    -2.62538  -0.93035  -0.24099
C    -1.65771  -2.02774  -0.76980
C    -0.52127  -2.02638   0.28902
C    -1.32542  -1.72543   1.58280
H     3.95579   1.63402  -0.06426
H     3.99836   0.14860  -1.08016
H     4.22424   0.02411   0.69487
H    -1.33095   3.34296  -0.43127
H    -2.11636   2.93849  -1.99370
H    -2.73758   2.24726  -0.46176
H    -2.51626   0.21583   1.68233
H    -3.58673  -1.36335   0.07154
H    -2.84323  -0.14952  -0.97951
H    -2.14251  -3.01451  -0.78782
H    -1.27291  -1.81688  -1.77443
H     0.11198  -2.92042   0.27806
H    -2.10200  -2.47353   1.80729
H    -0.68498  -1.57602   2.46418
