21
Generated by autodE on: 2022-06-17. E = -516.633905 Ha
C     4.40459  -0.28248  -0.13477
C     3.01155  -0.49673  -0.65851
O     2.66327  -1.49250  -1.29401
C     2.08428   0.60668  -0.49992
N     1.18930   0.85677   0.28468
C     0.12786   1.10045   0.96139
C    -1.16451   0.53233   0.59114
C    -1.29232  -0.40637  -0.45421
C    -2.54561  -0.91599  -0.78860
C    -3.68721  -0.50915  -0.08597
C    -3.56636   0.41418   0.95852
C    -2.31615   0.93233   1.29688
H     4.40165   0.30589   0.79530
H     4.88318  -1.25890   0.02545
H     4.98798   0.27641  -0.88602
H     0.21245   1.75460   1.83445
H    -0.40246  -0.74547  -0.99035
H    -2.63347  -1.64348  -1.59906
H    -4.66649  -0.91560  -0.34881
H    -4.45249   0.73316   1.51238
H    -2.22061   1.65707   2.10916
