45
Generated by autodE on: 2022-10-07. E = -1030.488971 Ha
C     3.14289   2.09817  -1.95732
N     2.39634   1.37511  -0.94258
C     2.31309   0.04810  -0.94382
O     2.85042  -0.70901  -1.75503
C     1.51184  -0.58040   0.21375
C     2.45451  -1.10194   1.34917
C     3.37318  -0.10624   1.96383
O     2.35543  -2.26352   1.68288
N     0.77289  -1.74205  -0.32964
C    -0.65553  -1.27361  -0.54269
N    -0.62376  -0.54317  -1.77926
N    -1.47342  -2.46022  -0.46368
C    -2.90496  -2.23869  -0.67787
C    -0.79259  -0.28206   0.68265
C    -1.07864  -1.01393   1.99008
C    -1.74598   0.88329   0.43924
C    -3.05914   0.86093   0.93267
C    -3.92939   1.92778   0.69579
C    -3.49933   3.04121  -0.02983
C    -2.18958   3.07906  -0.51523
C    -1.32087   2.01088  -0.28215
O     0.55426   0.27774   0.76344
H     4.16727   1.70526  -2.03246
H     2.66184   2.00457  -2.94377
H     3.18303   3.15740  -1.67812
H     1.85699   1.88741  -0.25007
H     4.19092   0.10268   1.25308
H     2.84566   0.84207   2.14514
H     3.79326  -0.50760   2.89423
H     1.22704  -2.04612  -1.20844
H     0.83712  -2.52030   0.35137
H    -0.63410  -1.19523  -2.56624
H    -1.44084   0.05954  -1.86242
H    -1.14479  -3.09050  -1.19828
H    -3.38079  -1.82529   0.22043
H    -3.12688  -1.56772  -1.52732
H    -3.37515  -3.20969  -0.88208
H    -2.06754  -1.48468   1.98463
H    -1.03609  -0.28834   2.81377
H    -0.33668  -1.79933   2.18195
H    -3.41841   0.00901   1.50787
H    -4.94824   1.88621   1.08738
H    -4.17938   3.87653  -0.21196
H    -1.83636   3.94612  -1.07800
H    -0.30498   2.05482  -0.66696
