32
Generated by autodE on: 2022-10-13. E = -785.193892 Ha
C     3.56745  -1.32591  -2.73802
N     3.11091  -1.01593  -1.40129
C     1.83180  -0.62476  -1.17157
O     1.04477  -0.34284  -2.10115
C     1.42601  -0.57756   0.22794
O     0.10615  -0.19246   0.47494
C    -0.45123   0.88194   0.02207
C     0.35724   1.97383  -0.55642
C    -1.88824   0.94696   0.21479
C    -2.57588  -0.14222   0.80118
C    -3.95008  -0.07886   0.99673
C    -4.66508   1.05903   0.59936
C    -3.99881   2.13576   0.00420
C    -2.62096   2.08533  -0.18824
C     2.07602  -1.19126   1.32933
C     1.33505  -1.23622   2.65080
O     3.23963  -1.66510   1.25276
H     4.65126  -1.49992  -2.71522
H     3.08054  -2.22513  -3.15723
H     3.36401  -0.48966  -3.42342
H     3.60150  -1.37859  -0.57948
H     1.38736   1.90013  -0.17430
H    -0.07532   2.95020  -0.30766
H     0.41082   1.87363  -1.65171
H    -2.02100  -1.03326   1.09448
H    -4.47252  -0.92139   1.45416
H    -5.74613   1.10292   0.74966
H    -4.55694   3.01948  -0.31093
H    -2.11615   2.93070  -0.65522
H     1.18499  -0.21962   3.04901
H     0.33729  -1.68890   2.53748
H     1.92543  -1.82013   3.36928
