32
Generated by autodE on: 2022-10-07. E = -785.193943 Ha
C     4.43168  -1.16549  -0.96326
N     3.53463  -0.32117  -0.20574
C     2.18833  -0.44217  -0.32713
O     1.65772  -1.38996  -0.94649
C     1.39964   0.61835   0.28895
O     0.01273   0.50994   0.15570
C    -0.68004  -0.53237   0.47821
C    -0.10336  -1.60120   1.31841
C    -2.05949  -0.50987   0.02889
C    -2.93854  -1.56852   0.34825
C    -4.26020  -1.53705  -0.08765
C    -4.72490  -0.45515  -0.84343
C    -3.86031   0.59769  -1.17237
C    -2.53692   0.57123  -0.74957
C     1.85544   1.89774   0.69761
C     0.81301   2.93712   1.05831
O     3.07757   2.18232   0.79743
H     4.19068  -2.22777  -0.80878
H     5.46109  -0.99035  -0.62398
H     4.38654  -0.96896  -2.04993
H     3.85067   0.57508   0.17445
H     0.74333  -1.19300   1.89167
H     0.29198  -2.41446   0.69017
H    -0.86300  -2.01177   1.99426
H    -2.58865  -2.41817   0.93429
H    -4.93217  -2.36012   0.16285
H    -5.76289  -0.43360  -1.18289
H    -4.22304   1.43742  -1.76849
H    -1.85910   1.38129  -1.01840
H     1.31727   3.89285   1.25330
H     0.25493   2.63382   1.95900
H     0.07591   3.06558   0.24996
