39
Generated by autodE on: 2022-06-18. E = -931.497293 Ha
C     4.15995   0.24449   1.13170
N     2.98201   0.48920   0.32329
C     2.27856  -0.51649  -0.20910
O     2.63031  -1.70289  -0.13569
C     0.99162  -0.12000  -0.96991
C     1.37159   0.76382  -2.17121
N     0.35605  -1.35865  -1.46687
C    -1.05314  -1.41889  -1.09119
C    -1.33915  -2.40008  -0.03203
N    -1.55053  -3.23117   0.75067
C    -1.39152   0.04631  -0.69984
N    -2.58520   0.26951   0.08004
C    -3.84349  -0.09115  -0.55376
C    -2.48226   0.18839   1.46644
C    -1.31750   0.11510   2.13517
C     0.00179   0.00969   1.42700
C    -0.08545   0.54064  -0.03088
C     0.02851   2.06830   0.04282
N    -1.09455   2.77201  -0.13363
O     1.11532   2.61547   0.29038
H     4.62975   1.20480   1.37926
H     4.88658  -0.37398   0.58422
H     3.90979  -0.27898   2.07046
H     2.52059   1.40675   0.35296
H     1.89892   1.67702  -1.87154
H     0.46987   1.04884  -2.73331
H     2.02233   0.18675  -2.84405
H     0.89309  -2.15376  -1.12054
H    -1.68744  -1.72145  -1.94063
H    -1.51702   0.57299  -1.65734
H    -3.99360  -1.18555  -0.61641
H    -4.68017   0.33693   0.01691
H    -3.87255   0.32026  -1.57378
H    -3.43955   0.24918   1.99020
H    -1.33300   0.11754   3.22653
H     0.35483  -1.03629   1.41487
H     0.77780   0.57216   1.96438
H    -1.06444   3.77958  -0.00578
H    -1.99581   2.30011  -0.19243
