20
Generated by autodE on: 2022-06-18. E = -457.715341 Ha
C     3.04264  -0.42467   0.81474
N     1.76867   0.16894   0.44388
C     1.60219   1.55635   0.53603
C     0.43009   2.16354   0.29229
C    -0.82022   1.41541  -0.09977
C    -0.54957  -0.07946  -0.15422
C    -1.61169  -1.03453  -0.50891
N    -2.82949  -0.49763  -0.77301
O    -1.43656  -2.26857  -0.57244
C     0.68478  -0.58965   0.11736
H     3.03236  -1.49306   0.56540
H     3.86698   0.05457   0.26436
H     3.23958  -0.31752   1.89501
H     2.50069   2.10864   0.81735
H     0.38092   3.25152   0.37750
H    -1.19366   1.78554  -1.07674
H    -1.63909   1.64432   0.61270
H    -3.00926   0.49741  -0.73378
H    -3.59107  -1.11879  -1.02290
H     0.85139  -1.66711   0.07474
