19
Generated by autodE on: 2022-06-18. E = -473.740909 Ha
C     3.78586  -0.07982  -0.80036
N     2.55819  -0.59903  -0.23563
C     1.37161   0.03526  -0.33064
O     1.23199   1.13167  -0.91157
C     0.20067  -0.61585   0.29021
C     0.14651  -1.91178   1.01415
N    -0.90680   0.09678   0.14993
C    -2.16039  -0.15841   0.57575
C    -3.18926   0.74941   0.30694
N    -4.06703   1.49761   0.09252
H     4.18930  -0.76044  -1.56734
H     4.55268   0.05342  -0.02088
H     3.58047   0.89164  -1.26404
H     2.60018  -1.48743   0.25038
H    -0.57884  -2.59374   0.53435
H     1.11566  -2.42268   1.04786
H    -0.19739  -1.76405   2.05422
H    -0.73424   0.97099  -0.37059
H    -2.36217  -1.07497   1.12696
