39
Generated by autodE on: 2022-06-18. E = -931.433868 Ha. Imaginary frequency = -363.9 cm-1
C     4.12352   0.46095   1.29151
N     3.12624   0.54965   0.24121
C     2.39212  -0.53564  -0.07221
O     2.61735  -1.66498   0.39236
C     1.22926  -0.31627  -0.99541
C     1.34799   0.59502  -2.17980
N     0.44024  -1.40740  -1.06688
C    -0.85931  -1.31926  -1.52137
C    -1.69743  -2.43048  -1.25078
N    -2.42927  -3.28973  -0.95364
C    -1.56392   0.34713  -0.29214
N    -2.58383  -0.16775   0.51380
C    -3.91000  -0.29713  -0.06692
C    -2.43628  -0.17032   1.89456
C    -1.25743   0.06955   2.49879
C    -0.00987   0.23916   1.67223
C    -0.34848   0.81725   0.30577
C     0.16276   2.16673  -0.00022
N    -0.49293   2.93267  -0.90261
O     1.19605   2.62166   0.54582
H     4.67813   1.40678   1.33920
H     4.83030  -0.35337   1.08082
H     3.66640   0.26737   2.27785
H     2.64096   1.45039   0.15240
H     1.88732   1.51511  -1.92861
H     0.37218   0.87839  -2.59261
H     1.92010   0.07875  -2.97085
H     0.63362  -2.09094  -0.33073
H    -1.01914  -0.82499  -2.48060
H    -1.95377   0.86716  -1.16850
H    -3.83340  -0.66266  -1.09954
H    -4.50262  -1.02279   0.50634
H    -4.45024   0.66810  -0.08203
H    -3.35620  -0.36623   2.45013
H    -1.19983   0.07590   3.58922
H     0.48397  -0.74719   1.56746
H     0.72384   0.88690   2.17052
H    -0.05858   3.80132  -1.19533
H    -1.35395   2.64760  -1.34884
