54
Generated by autodE on: 2022-06-12. E = -1452.174502 Ha
C     5.30338  -0.12526  -1.31833
O     3.87157  -0.28056  -1.31234
C     3.31336  -0.58457  -0.15251
O     3.90518  -0.78547   0.88712
C     1.82321  -0.74178  -0.26329
N     1.32329  -1.55579  -1.10028
C    -0.13312  -1.58851  -0.95627
C    -0.46183  -2.92469  -0.43708
N    -0.68107  -4.01717  -0.11579
C    -0.81123  -1.53468  -2.38390
C     0.08858  -1.67768  -3.56785
O    -2.01366  -1.43432  -2.46935
C    -0.54550  -0.37578   0.03360
C    -1.67411  -0.75486   1.00275
C    -2.77819  -1.48702   0.53491
C    -3.85354  -1.79597   1.36999
C    -3.86150  -1.37026   2.69986
C    -2.78394  -0.62165   3.17538
C    -1.71036  -0.31705   2.33474
C    -0.95383   0.84338  -0.82574
C    -2.18335   1.49050  -0.64324
C    -2.52148   2.61687  -1.39747
C    -1.63842   3.11893  -2.35568
C    -0.41298   2.47865  -2.55415
C    -0.07490   1.35494  -1.79808
C     0.87214  -0.05628   0.70459
C     1.25258   1.44444   0.81439
C     0.31618   2.47092   1.39052
O     2.36759   1.77573   0.44945
C     1.12159  -0.82988   2.05538
C     1.72738  -0.09296   3.20863
O     0.87138  -2.01493   2.07899
H     5.78830  -1.06362  -1.01532
H     5.59521   0.68274  -0.63261
H     5.57172   0.13073  -2.34899
H     0.60901  -2.64698  -3.51471
H     0.86669  -0.90070  -3.55939
H    -0.51054  -1.61579  -4.48479
H    -2.81973  -1.79527  -0.50749
H    -4.69222  -2.37046   0.97001
H    -4.70068  -1.61273   3.35571
H    -2.76960  -0.26634   4.20802
H    -0.90901   0.28700   2.75212
H    -2.88734   1.12711   0.10290
H    -3.48414   3.10469  -1.22846
H    -1.90238   4.00124  -2.94290
H     0.29188   2.85419  -3.29904
H     0.89655   0.89594  -1.97801
H     0.11686   3.22162   0.61093
H     0.84256   2.98139   2.21175
H    -0.63447   2.07059   1.75015
H     2.72186   0.27245   2.91152
H     1.81972  -0.77040   4.06659
H     1.12532   0.78544   3.48306
