23
Generated by autodE on: 2022-06-01. E = -612.959736 Ha
C    -1.72381  -2.19501   0.82048
C    -1.82518  -0.73179   0.51224
O    -2.82279  -0.07823   0.80879
C    -0.71920  -0.01243  -0.15636
C     0.60853  -0.22775  -0.31069
C     1.49372  -1.35399   0.07030
C     2.87149  -0.96785   0.53349
O     1.13358  -2.52067  -0.00782
C     1.15320   1.13110  -0.84643
C     1.04163   2.14650   0.31332
C    -0.27030   2.35162   0.45843
C    -0.92939   1.45442  -0.61028
O     0.04520   1.52528  -1.66234
H    -1.47864  -2.76452  -0.08706
H    -2.67182  -2.54092   1.25252
H    -0.90183  -2.37228   1.53173
H     2.82222  -0.15079   1.27129
H     3.45006  -0.58954  -0.32628
H     3.38217  -1.84106   0.95939
H     2.09384   1.09516  -1.40455
H     1.88273   2.53346   0.88681
H    -0.81135   2.95347   1.18730
H    -1.93681   1.71502  -0.94676
