21
Generated by autodE on: 2022-07-27. E = -678.400252 Ha
C     2.33187  -3.30607  -0.26697
N     1.67486  -2.01412  -0.31308
C     0.51583  -1.79874   0.31470
O    -0.07977  -2.64994   0.99188
C    -0.09606  -0.43438   0.17270
N    -1.30283  -0.39210   0.70791
N    -2.29280   0.45697   0.76172
C    -2.28822   1.56216   0.04063
N    -2.49503   2.54469  -0.56573
C     0.62638   0.72336  -0.39950
O     1.45904   0.62498  -1.28376
O     0.31311   1.85330   0.21645
C     0.87639   3.07119  -0.30256
H     2.47344  -3.63245   0.77392
H     1.74077  -4.07618  -0.78886
H     3.31125  -3.22068  -0.75201
H     2.04030  -1.27196  -0.90731
H    -1.51226  -1.29630   1.17494
H     0.46631   3.87558   0.31700
H     0.57887   3.20481  -1.35167
H     1.97178   3.04186  -0.22392
