41
Generated by autodE on: 2022-06-18. E = -977.409941 Ha
C     4.53771  -1.80113  -0.66338
C     3.41981  -1.67345   0.07955
C     3.04044  -2.68551   1.12805
C     2.52723  -0.53047  -0.14112
C     1.40160  -0.28203   0.55117
C     0.50107   0.87776   0.27347
C     0.32121   1.88785   1.44060
C     1.34387   3.00902   1.38207
C     0.27750   1.24024   2.82396
O    -0.96336   2.47955   1.12331
N    -1.82956   1.43896   0.68717
C    -0.98330   0.51355  -0.08428
C    -1.26768   0.70746  -1.58192
O    -0.48278   1.13728  -2.39733
O    -2.51921   0.35430  -1.86523
C    -2.94257   0.48830  -3.23202
C    -1.32338  -0.92763   0.29550
O    -1.89525  -1.24155   1.31726
O    -0.86629  -1.78174  -0.60807
C    -1.00512  -3.18470  -0.32051
H     5.21974  -2.64541  -0.52911
H     4.79733  -1.06081  -1.42624
H     2.95938  -2.21697   2.12296
H     3.77981  -3.49654   1.18673
H     2.05382  -3.12705   0.90722
H     2.81141   0.15504  -0.94784
H     1.10448  -0.95398   1.36094
H     0.89184   1.43242  -0.58805
H     2.35741   2.59467   1.48932
H     1.27914   3.53611   0.41865
H     1.17701   3.73139   2.19551
H    -0.01900   1.99518   3.56750
H    -0.43465   0.40392   2.86948
H     1.26837   0.85226   3.10057
H    -2.12457   0.92851   1.52683
H    -3.98320   0.14635  -3.25974
H    -2.31727  -0.13566  -3.88647
H    -2.87659   1.53845  -3.55001
H    -2.06849  -3.45341  -0.25405
H    -0.52794  -3.70900  -1.15536
H    -0.49935  -3.42639   0.62470
