23
Generated by autodE on: 2022-06-18. E = -351.521382 Ha
C     3.55043   0.18367  -1.28857
C     2.55698   0.01727  -0.38790
C     2.85290  -0.30335   1.05493
C     1.16269   0.14653  -0.80680
C     0.07890   0.00187  -0.00350
C    -1.28505   0.14045  -0.47193
C    -2.41892   0.00663   0.26157
C    -3.77000   0.18374  -0.37176
C    -2.44848  -0.32072   1.72754
H     4.60197   0.09220  -1.00258
H     3.33206   0.41604  -2.33549
H     3.93516  -0.37252   1.23385
H     2.43939   0.46748   1.72635
H     2.39072  -1.25941   1.35218
H     1.00050   0.38044  -1.86595
H     0.23275  -0.23129   1.05363
H    -1.39729   0.37947  -1.53647
H    -4.37864  -0.73135  -0.25771
H    -4.33494   0.98969   0.13038
H    -3.69953   0.42356  -1.44286
H    -3.02827  -1.24462   1.90035
H    -2.97027   0.47610   2.28659
H    -1.45348  -0.45423   2.17103
