18
Generated by autodE on: 2022-06-18. E = -625.853222 Ha
C    -3.26467   1.11062   0.51190
O    -1.85041   0.87061   0.41082
C    -1.47777  -0.22549  -0.23159
O    -2.24998  -1.03339  -0.72190
C    -0.00806  -0.41786  -0.27661
N     0.34572  -1.56491  -0.83850
O     1.47377  -2.03292  -1.05027
C     0.97869   0.58111   0.20698
O     0.77395   1.77787   0.20409
O     2.10106   0.01712   0.64660
C     3.13219   0.90921   1.10114
H    -3.70937   1.19353  -0.48982
H    -3.36727   2.05645   1.05511
H    -3.75044   0.29485   1.06577
H    -0.48150  -2.11895  -1.15187
H     2.77643   1.50029   1.95709
H     3.96979   0.26934   1.40037
H     3.43732   1.58489   0.28943
