18
Generated by autodE on: 2022-07-27. E = -625.853225 Ha
C    -1.26550   2.58222  -1.88977
O    -1.13250   1.73067  -0.73965
C    -0.11219   0.87662  -0.74626
O     0.67443   0.76247  -1.66391
C    -0.04363   0.06505   0.49599
N    -0.43004   0.52662   1.67672
O    -0.91207   1.62738   1.98111
C     0.50067  -1.31271   0.56174
O     0.61291  -1.91334   1.61816
O     0.81242  -1.81726  -0.62221
C     1.33294  -3.15763  -0.63575
H    -1.43523   1.97961  -2.79353
H    -0.36097   3.19311  -2.02006
H    -2.13266   3.22112  -1.68875
H    -0.27023  -0.16632   2.44071
H     1.53597  -3.38670  -1.68766
H     0.59152  -3.85819  -0.22618
H     2.25860  -3.21221  -0.04558
