41
Generated by autodE on: 2022-06-18. E = -977.359691 Ha. Imaginary frequency = -361.8 cm-1
C     3.84862  -2.64115  -0.26321
C     3.05116  -1.95672   0.58741
C     2.81776  -2.42657   1.99969
C     2.35416  -0.76299   0.12433
C     1.51902  -0.00385   0.88075
C     0.75756   1.10413   0.35564
C     0.16705   2.11848   1.17620
C     0.42810   2.11218   2.66317
C    -0.02176   3.47413   0.54851
O    -1.70436   1.66088   1.27108
N    -1.82481   0.40752   0.95464
C    -1.22606  -0.00938  -0.19039
C    -1.40179   0.73641  -1.46440
O    -0.73771   0.55954  -2.46914
O    -2.38234   1.64205  -1.38913
C    -2.57293   2.47499  -2.54057
C    -0.83039  -1.43665  -0.15737
O    -0.92605  -2.10831   0.85844
O    -0.31100  -1.88711  -1.29084
C     0.14606  -3.25002  -1.29916
H     4.36542  -3.55316   0.04777
H     3.99842  -2.30246  -1.29282
H     3.39031  -3.33921   2.21626
H     3.10473  -1.65418   2.73206
H     1.74767  -2.63703   2.16304
H     2.50179  -0.49092  -0.92674
H     1.36480  -0.26835   1.92906
H     0.95310   1.36853  -0.68580
H    -0.20448   2.85483   3.16978
H     0.22978   1.12747   3.11019
H     1.48250   2.36657   2.86650
H    -0.27215   3.39184  -0.51914
H    -0.82087   4.03340   1.05798
H     0.90839   4.06129   0.63937
H    -1.75381  -0.26738   1.72743
H    -2.86845   1.87117  -3.41075
H    -1.64939   3.02422  -2.77436
H    -3.37374   3.17466  -2.27525
H     0.52334  -3.42833  -2.31232
H    -0.68619  -3.93166  -1.07467
H     0.95247  -3.38928  -0.56636
