14
Generated by autodE on: 2022-06-19. E = -270.687342 Ha
C    -1.35835  -0.38385   1.35143
C    -0.80903   0.48603   0.26050
C    -1.62151   1.70999  -0.03520
C     0.32961   0.23697  -0.43858
C     1.20816  -0.90482  -0.25454
O     2.23002  -1.08560  -0.91255
H    -1.43871   0.20298   2.28225
H    -0.76629  -1.28318   1.55597
H    -2.38597  -0.69102   1.09301
H    -1.72296   2.32641   0.87481
H    -1.18102   2.32176  -0.83441
H    -2.64676   1.42275  -0.32649
H     0.64429   0.93920  -1.21790
H     0.92410  -1.64257   0.52887
