26
Generated by autodE on: 2022-07-27. E = -648.509270 Ha
C     3.94993   2.00471  -0.16792
O     2.57132   1.76435  -0.43007
C     2.21708   0.45742  -0.64111
O     3.06651  -0.43853  -0.62478
N     0.88226   0.39506  -0.79965
N     0.36170  -0.79907  -1.17115
C     1.03401  -1.60848  -2.21353
C    -0.80682  -1.20026  -0.73304
C    -1.65759  -0.60984   0.28051
C    -1.37482   0.55774   1.02724
C    -2.27961   1.00842   1.98748
C    -3.47443   0.31986   2.22260
C    -3.76845  -0.83547   1.48861
C    -2.87170  -1.29479   0.52920
H     4.58113   1.68909  -1.01342
H     4.04923   3.08793  -0.01960
H     4.28447   1.47665   0.73904
H     1.88817  -2.13336  -1.77531
H     0.31583  -2.32132  -2.63110
H     1.38954  -0.92740  -2.99685
H    -1.17857  -2.10862  -1.20809
H    -0.44955   1.09390   0.83489
H    -2.04956   1.91084   2.55855
H    -4.17694   0.68323   2.97628
H    -4.69980  -1.37745   1.66647
H    -3.10064  -2.19693  -0.04301
