38
Generated by autodE on: 2022-05-30. E = -3321.437004 Ha
C     0.22484  -1.77710   3.34315
N     0.33269  -1.23942   2.00111
C    -0.75541  -0.97011   1.26391
O    -1.89835  -1.22378   1.64546
C    -0.48962  -0.35478  -0.13772
Br   -0.03141  -2.04345  -1.20072
C    -1.77348   0.18649  -0.80058
C    -2.19451   1.63161  -0.48870
C    -2.47847   2.02999   0.97406
C    -1.36620   2.81464   1.67913
C    -0.07200   2.03421   1.96745
C     0.70916   1.67274   0.74574
C     0.61884   0.65272  -0.14556
C     1.66428   0.92762  -1.20543
C     1.07540   1.15256  -2.60551
C     2.82105  -0.08860  -1.23433
N     2.26462   2.19959  -0.74653
N     1.73266   2.57899   0.32278
H    -0.32015  -1.08523   4.00652
H    -0.31013  -2.73925   3.34007
H     1.23371  -1.93236   3.74407
H     1.24290  -0.94678   1.66046
H    -2.58100  -0.51073  -0.53679
H    -1.63398   0.12399  -1.88764
H    -3.11557   1.77896  -1.07507
H    -1.45860   2.32797  -0.92279
H    -2.73677   1.13822   1.56701
H    -3.37589   2.66923   0.98436
H    -1.11864   3.71052   1.08340
H    -1.75236   3.18106   2.64456
H     0.58431   2.65763   2.59362
H    -0.31285   1.13908   2.55680
H     1.87099   1.47519  -3.29221
H     0.29120   1.92281  -2.58288
H     0.64439   0.21729  -2.98693
H     3.62348   0.29528  -1.88024
H     2.47702  -1.05032  -1.63117
H     3.22428  -0.24711  -0.22292
