27
Generated by autodE on: 2022-05-30. E = -3093.859122 Ha
C    -2.10634   3.29647   1.25428
N    -1.60272   1.98916   0.88033
C    -0.30388   1.78616   0.61550
O     0.55003   2.67007   0.69530
C     0.07790   0.35335   0.20654
Br    0.17770   0.45138  -1.83856
C    -0.85434  -0.69506   0.55034
C    -1.18189  -1.80396   0.92327
C    -1.05212  -3.16832   1.41096
C     0.41025  -3.60265   1.13460
C     1.50111  -2.58684   1.54009
C     1.91658  -1.49278   0.51251
C     1.46403  -0.04006   0.75036
H    -1.96831   4.02538   0.43946
H    -1.58372   3.67941   2.14440
H    -3.17648   3.21391   1.47851
H    -2.24917   1.20993   0.80333
H    -1.76348  -3.86077   0.93363
H    -1.26067  -3.19203   2.49440
H     0.57735  -4.54846   1.67470
H     0.51322  -3.83226   0.06083
H     1.22740  -2.11451   2.49996
H     2.40502  -3.17815   1.75423
H     1.62861  -1.80250  -0.50603
H     3.01678  -1.45885   0.50528
H     2.19277   0.66541   0.32808
H     1.42871   0.16232   1.83532
