11
Generated by autodE on: 2022-05-30. E = -227.480818 Ha
C    -1.23258  -1.22864  -0.09162
C     0.02644  -0.40848  -0.03911
C     1.38083  -1.05560  -0.12494
N    -0.05663   0.87252   0.08272
N    -0.13087   2.01720   0.19154
H    -2.13152  -0.59963  -0.02302
H    -1.28437  -1.80346  -1.03336
H    -1.25786  -1.95874   0.73691
H     2.19047  -0.31431  -0.06672
H     1.51853  -1.78259   0.69514
H     1.48871  -1.61104  -1.07359
