38
Generated by autodE on: 2022-05-30. E = -3321.326082 Ha. Imaginary frequency = -262.5 cm-1
C     0.52646  -2.11337   3.03952
N     0.38865  -1.28879   1.85613
C    -0.77850  -1.17828   1.20438
O    -1.80749  -1.74329   1.58092
C    -0.75984  -0.29552  -0.07202
Br   -0.26171  -1.75775  -1.50023
C    -2.16718   0.16473  -0.49307
C    -2.62075   1.52253   0.06234
C    -2.50287   1.78114   1.58498
C    -1.59175   2.96807   1.93408
C    -0.07613   2.67253   1.88956
C     0.32424   1.80502   0.76879
C     0.19740   0.79325   0.04879
C     2.37676   0.73942  -1.24734
C     2.01303   0.87411  -2.70036
C     3.10433  -0.48485  -0.76078
N     2.59497   1.85331  -0.58255
N     2.31616   2.67245   0.18338
H    -0.14336  -1.77256   3.84514
H     0.28531  -3.16611   2.82132
H     1.56283  -2.05425   3.39351
H     1.18478  -0.75825   1.51677
H    -2.86102  -0.63636  -0.20274
H    -2.19376   0.23400  -1.58856
H    -3.67185   1.63939  -0.24759
H    -2.07024   2.31102  -0.47360
H    -2.16092   0.87908   2.11798
H    -3.50510   1.99298   1.98936
H    -1.81939   3.79957   1.24571
H    -1.82273   3.33431   2.94770
H     0.48847   3.61684   1.89447
H     0.21253   2.13938   2.81445
H     2.91308   0.86124  -3.34073
H     1.45481   1.80165  -2.88993
H     1.38338   0.01998  -2.98327
H     4.07533  -0.60362  -1.27371
H     2.49221  -1.36848  -0.98656
H     3.27940  -0.44381   0.32389
