48
Generated by autodE on: 2022-06-24. E = -1166.245704 Ha
C     0.09052  -1.76513  -2.77918
N    -0.20853  -1.47313  -1.38749
C    -0.35058  -2.45437  -0.46068
C    -0.74349  -2.26129   0.83117
C    -0.75650  -3.43522   1.71495
N    -1.09026  -3.21127   3.01213
O    -0.47586  -4.58919   1.32948
C    -1.09328  -0.88452   1.33548
C    -1.28714   0.12725   0.19427
C    -0.91712   1.56223   0.59390
C    -1.70530   2.62551  -0.14549
C    -3.07161   2.77002   0.14355
C    -3.84275   3.72200  -0.52485
C    -3.25597   4.54838  -1.49089
C    -1.89539   4.41508  -1.77671
C    -1.12229   3.46034  -1.10545
O     0.49972   1.67187   0.34089
C     0.98009   0.63515  -0.50137
C     1.66055   1.26737  -1.65169
N     2.19108   1.76844  -2.55396
C     1.97498  -0.26716   0.22658
C     2.67576  -1.25615  -0.47853
C     3.53345  -2.12559   0.19762
C     3.71051  -2.00526   1.57971
C     3.03948  -0.99763   2.27788
C     2.17869  -0.12747   1.60342
C    -0.34206  -0.10252  -0.99296
H    -0.76932  -1.52887  -3.42943
H     0.32902  -2.83099  -2.88552
H     0.95266  -1.17779  -3.13149
H    -0.12696  -3.46421  -0.80938
H    -1.28286  -2.28700   3.37626
H    -1.07875  -3.99400   3.65635
H    -0.31986  -0.52351   2.03332
H    -2.02953  -0.91247   1.91725
H    -2.32072   0.07834  -0.17063
H    -1.05266   1.70545   1.67707
H    -3.53303   2.12856   0.89945
H    -4.90531   3.82208  -0.29024
H    -3.85827   5.29429  -2.01492
H    -1.42739   5.05774  -2.52646
H    -0.05946   3.36694  -1.33038
H     2.55863  -1.35167  -1.55872
H     4.06657  -2.89955  -0.35910
H     4.37909  -2.68849   2.10858
H     3.18574  -0.88482   3.35462
H     1.65628   0.66016   2.14531
H    -0.71459   0.47163  -1.85220
