20
Generated by autodE on: 2022-06-24. E = -457.715322 Ha
C     3.14125   0.46745   0.15557
N     1.82581  -0.10572  -0.07714
C     1.71673  -1.32447  -0.75836
C     0.53407  -1.88941  -1.04780
C    -0.78931  -1.27053  -0.67116
C    -0.57274   0.05282   0.04479
C    -1.70859   0.86452   0.51033
N    -2.94348   0.35696   0.26689
O    -1.57913   1.95903   1.09611
C     0.67951   0.53504   0.28519
H     3.63744   0.73175  -0.79326
H     3.03909   1.37601   0.76190
H     3.78621  -0.24316   0.69620
H     2.66812  -1.78234  -1.03499
H     0.53019  -2.84359  -1.57966
H    -1.41532  -1.13305  -1.57646
H    -1.37039  -1.97297  -0.03872
H    -3.09004  -0.53155  -0.19487
H    -3.75344   0.88273   0.57644
H     0.80659   1.48841   0.80067
