28
Generated by autodE on: 2022-07-27. E = -708.430770 Ha
N    -0.77719   0.08103  -2.39118
C    -0.20403  -0.25234  -1.42347
C     0.46117  -0.67958  -0.27208
O    -0.22561  -0.78859   0.89645
C    -1.31248  -0.23526   1.33980
C    -2.01287   0.92125   0.86731
C    -3.32951   1.10000   1.37025
C    -4.06302   2.23538   1.05368
C    -3.49465   3.23847   0.25550
C    -2.18537   3.09579  -0.21671
C    -1.44910   1.94809   0.06580
C     1.80128  -1.22998  -0.27374
C     2.54524  -1.30554  -1.47448
C     3.83527  -1.83105  -1.47946
C     4.42004  -2.29939  -0.29609
C     3.69255  -2.22762   0.89761
C     2.40373  -1.69600   0.91726
H    -1.67150  -0.74194   2.23897
H    -3.76204   0.32579   2.00808
H    -5.08041   2.34852   1.43417
H    -4.06996   4.13368   0.00934
H    -1.73282   3.88622  -0.81927
H    -0.42465   1.87529  -0.29220
H     2.10186  -0.94934  -2.40725
H     4.39008  -1.87824  -2.41982
H     5.43159  -2.71110  -0.30406
H     4.13728  -2.58443   1.83010
H     1.85573  -1.63406   1.85844
