28
Generated by autodE on: 2022-06-24. E = -708.440779 Ha
N    -1.51725   3.31604  -0.85142
C    -1.37349   2.18610  -0.57175
C    -1.16900   0.84170  -0.23872
O     0.10332   0.40592  -0.09462
C     1.21334   1.05587  -0.21356
C     2.45545   0.37860  -0.01877
C     3.65318   1.12094  -0.15336
C     4.88626   0.50100   0.02691
C     4.94892  -0.86182   0.34295
C     3.76693  -1.60599   0.47863
C     2.52909  -0.99987   0.30130
C    -2.22174  -0.12819  -0.03220
C    -3.57777   0.24910  -0.17198
C    -4.59806  -0.67887   0.02570
C    -4.30155  -2.00415   0.36687
C    -2.96202  -2.38730   0.50745
C    -1.93189  -1.46878   0.31283
H     1.17036   2.12071  -0.46503
H     3.59807   2.18383  -0.40006
H     5.80574   1.08078  -0.07904
H     5.91758  -1.34646   0.48373
H     3.81820  -2.66893   0.72478
H     1.60988  -1.57868   0.40620
H    -3.82668   1.27920  -0.43817
H    -5.63792  -0.36249  -0.08812
H    -5.10388  -2.72886   0.52118
H    -2.71434  -3.41800   0.77366
H    -0.89389  -1.78449   0.42743
