48
Generated by autodE on: 2022-06-24. E = -1166.156452 Ha. Imaginary frequency = -286.8 cm-1
C     0.74907  -2.93707  -1.44303
N    -0.22308  -2.20148  -0.64448
C    -0.41449  -2.50259   0.68154
C    -1.43320  -1.98851   1.42130
C    -1.48407  -2.34879   2.85100
N    -2.57100  -1.92439   3.53981
O    -0.58772  -3.00459   3.41573
C    -2.48823  -1.12521   0.75396
C    -1.90078  -0.48913  -0.48917
C    -0.68730   1.21583   0.63365
C    -1.27809   2.44386   0.11276
C    -2.65872   2.65726   0.32325
C    -3.26326   3.84187  -0.08543
C    -2.50091   4.85025  -0.69071
C    -1.12728   4.66474  -0.86998
C    -0.51637   3.47287  -0.47713
O     0.53901   0.80577   0.40130
C     1.21803   0.65829  -0.76302
C     0.80360   1.26007  -1.95708
N     0.48033   1.70677  -2.99357
C     2.39414  -0.18221  -0.67786
C     3.24846  -0.35501  -1.79159
C     4.32729  -1.23247  -1.73029
C     4.59495  -1.95489  -0.55915
C     3.76774  -1.77594   0.55496
C     2.68175  -0.90224   0.50474
C    -0.92069  -1.14619  -1.19366
H     0.28331  -3.81556  -1.92017
H     1.57657  -3.27507  -0.80676
H     1.15176  -2.28302  -2.22515
H     0.31243  -3.18571   1.12197
H    -2.64761  -2.16788   4.52150
H    -3.34217  -1.43823   3.10041
H    -2.86002  -0.34692   1.43857
H    -3.38011  -1.72991   0.48727
H    -2.49258   0.24941  -1.02836
H    -1.02337   0.88318   1.61779
H    -3.25212   1.87879   0.80750
H    -4.33443   3.98582   0.07326
H    -2.97586   5.78071  -1.00980
H    -0.52113   5.45555  -1.31778
H     0.56073   3.36136  -0.59686
H     3.04750   0.19358  -2.71453
H     4.96839  -1.35569  -2.60677
H     5.44158  -2.64355  -0.51576
H     3.96594  -2.32887   1.47675
H     2.04058  -0.78281   1.37795
H    -0.67180  -0.89887  -2.22390
