62
Generated by autodE on: 2022-07-02. E = -6587.180111 Ha
C     6.85801   3.67841  -0.34036
N     6.85033   2.25745  -0.05958
C     6.67417   1.79247   1.18713
O     6.61849   2.56899   2.14453
C     6.60716   0.21533   1.38028
C     7.42323  -0.34682   0.20249
C     6.78615  -0.66458  -1.00690
C     7.52352  -1.05561  -2.12810
C     8.91464  -1.13707  -2.06134
C     9.56199  -0.81079  -0.86439
C     8.82551  -0.41029   0.25089
C     7.21342  -0.01696   2.80776
C     6.91292  -1.30240   3.57601
C     7.45759  -2.61062   3.01379
C     6.99562  -3.00336   1.60979
C     5.50369  -2.92817   1.31593
Br    4.64819  -4.32906   2.48372
Br    5.31842  -3.66970  -0.57135
C     4.74587  -1.62191   1.40127
C     5.16456  -0.32652   1.38447
C     3.95198   0.61177   1.49034
C     3.77446   1.58269   0.31932
C     3.85241   1.33430   2.83949
O     2.82215  -0.28623   1.40464
C     3.20810  -1.63861   1.47681
C     2.60512  -2.10430   2.82603
O     1.49664  -2.57021   2.96054
O     3.38864  -1.74841   3.83842
C     2.90324  -2.00069   5.16227
C     2.55363  -2.37084   0.28187
O     2.02393  -3.45479   0.32196
O     2.65371  -1.62363  -0.81643
C     2.13968  -2.19255  -2.02764
H     5.88513   4.14147  -0.10306
H     7.07058   3.82695  -1.40620
H     7.62947   4.19131   0.25361
H     6.87083   1.60544  -0.83511
H     5.69936  -0.61347  -1.07695
H     7.00019  -1.30705  -3.05328
H     9.49288  -1.44882  -2.93411
H    10.65123  -0.86384  -0.79834
H     9.35753  -0.15116   1.16583
H     6.83020   0.81018   3.41539
H     8.29959   0.14096   2.75029
H     5.83086  -1.39393   3.74487
H     7.35231  -1.16545   4.57800
H     8.55913  -2.56786   2.97466
H     7.20219  -3.42134   3.71420
H     7.30689  -4.03778   1.41183
H     7.50354  -2.39457   0.85922
H     2.71635   1.88236   0.30285
H     4.37226   2.49261   0.43497
H     4.01543   1.10325  -0.63949
H     2.85846   1.80331   2.89985
H     3.95285   0.62241   3.66840
H     4.61612   2.11185   2.93490
H     3.68398  -1.64135   5.84197
H     1.96317  -1.45849   5.33706
H     2.73901  -3.07848   5.30769
H     2.31398  -1.44569  -2.81025
H     2.67009  -3.12588  -2.26589
H     1.06450  -2.39899  -1.92817
