37
Generated by autodE on: 2022-07-02. E = -5898.596742 Ha
C     2.53640   4.02357   1.53213
N     1.78025   2.79463   1.38368
C     2.33964   1.59108   1.58074
O     3.52990   1.44509   1.86724
C     1.38199   0.37762   1.47378
C     0.70788   0.18646   2.84441
C     1.50982   0.10270   3.99397
C     0.93231  -0.09992   5.24852
C    -0.45567  -0.22402   5.37422
C    -1.25874  -0.14121   4.23475
C    -0.68076   0.06415   2.97733
C     0.40990   0.53099   0.39644
C    -0.28682   0.24853  -0.55541
C    -0.82515  -0.61491  -1.56615
Br    0.01354  -0.16933  -3.32933
Br   -2.79440  -0.37055  -1.75473
C    -0.51992  -2.07573  -1.19111
C     0.93691  -2.36529  -0.77392
C     1.34470  -2.14174   0.71004
C     2.18970  -0.90142   1.06512
H     3.44411   4.00031   0.91065
H     2.84392   4.18324   2.57857
H     1.91018   4.86617   1.21508
H     0.78817   2.84745   1.17485
H     2.59305   0.20251   3.90672
H     1.57110  -0.16025   6.13285
H    -0.90736  -0.38373   6.35606
H    -2.34389  -0.23695   4.31916
H    -1.31845   0.12548   2.09436
H    -1.19372  -2.33274  -0.35823
H    -0.80602  -2.70749  -2.04462
H     1.62928  -1.82935  -1.44390
H     1.08781  -3.43310  -0.99320
H     1.95364  -3.01118   1.00027
H     0.45146  -2.18524   1.35570
H     2.85598  -1.13651   1.90647
H     2.83633  -0.63474   0.21504
