25
Generated by autodE on: 2022-07-02. E = -688.484308 Ha
C     1.06848   3.56956   0.30713
O     0.98488   2.15046   0.43411
C    -0.07292   1.55206  -0.18526
O    -0.88229   2.20204  -0.84271
C    -0.07691   0.13149   0.01501
O     0.90271  -0.31801   0.92795
C     1.63731  -1.35055   0.75786
C     2.50276  -1.70270   1.89831
C     1.64776  -2.11735  -0.49380
C    -1.11110  -0.80630  -0.29333
O    -1.16887  -1.95485   0.15670
O    -2.05636  -0.32679  -1.13757
C    -3.14673  -1.20391  -1.42612
H     1.16539   3.86887  -0.74771
H     1.96542   3.87170   0.86226
H     0.18202   4.06098   0.73668
H     3.55009  -1.74691   1.55691
H     2.38736  -0.99218   2.72525
H     2.24277  -2.72253   2.23266
H     1.45446  -1.44552  -1.34667
H     0.81402  -2.84130  -0.47086
H     2.59540  -2.65938  -0.60070
H    -2.79588  -2.12384  -1.91775
H    -3.69373  -1.47365  -0.50998
H    -3.80782  -0.64924  -2.10355
