62
Generated by autodE on: 2022-07-02. E = -6587.068823 Ha. Imaginary frequency = -289.5 cm-1
C     6.85332   3.77929   0.85363
N     7.01308   2.36665   0.57044
C     6.76176   1.43103   1.49706
O     6.43489   1.72626   2.65222
C     6.98781  -0.05169   1.09620
C     7.26139  -0.20731  -0.40736
C     6.22724  -0.51981  -1.30192
C     6.46947  -0.61510  -2.67492
C     7.75386  -0.39921  -3.18085
C     8.79275  -0.08812  -2.29937
C     8.55026   0.00556  -0.92618
C     8.23027  -0.51496   1.94294
C     7.93633  -0.86451   3.41342
C     8.06914  -2.35483   3.75065
C     7.38801  -3.37195   2.82950
C     5.87092  -3.25773   2.60098
Br    4.93055  -3.30161   4.36710
Br    5.35098  -4.89604   1.58369
C     5.49277  -2.04905   1.88847
C     5.82679  -0.91990   1.48197
C     3.71584   0.12484   1.46423
C     3.76619   1.38518   0.66833
C     3.64606   0.23111   2.94724
O     3.20480  -0.86711   0.77382
C     3.03972  -2.15862   1.20391
C     2.07475  -2.44407   2.27454
O     1.84930  -3.54451   2.74350
O     1.38942  -1.34336   2.65330
C     0.50850  -1.49106   3.76960
C     3.07043  -3.10989   0.07890
O     2.48250  -4.17684   0.02705
O     3.84277  -2.66642  -0.93179
C     3.97793  -3.53332  -2.05901
H     5.78954   4.05231   0.95722
H     7.28681   4.35876   0.02916
H     7.36624   4.04575   1.78896
H     7.21945   2.07584  -0.37893
H     5.22398  -0.71040  -0.92744
H     5.64591  -0.86186  -3.34904
H     7.94505  -0.47440  -4.25384
H     9.80293   0.08190  -2.67929
H     9.37630   0.26061  -0.26232
H     8.98387   0.28305   1.88658
H     8.66522  -1.38198   1.42676
H     6.93829  -0.50658   3.69489
H     8.63580  -0.31589   4.06268
H     9.13776  -2.62905   3.73686
H     7.72602  -2.51700   4.78434
H     7.58294  -4.37841   3.22608
H     7.83799  -3.33922   1.82487
H     2.72440   1.72802   0.53450
H     4.30289   2.17128   1.20724
H     4.19884   1.22547  -0.32716
H     4.45117   0.89647   3.27878
H     3.72515  -0.73265   3.45865
H     2.67909   0.69303   3.21054
H    -0.29185  -2.21102   3.54426
H     0.07935  -0.49856   3.95203
H     1.06095  -1.83123   4.65831
H     4.42185  -4.49354  -1.75687
H     4.64528  -3.01735  -2.75917
H     3.00265  -3.71971  -2.53265
