55
Generated by autodE on: 2022-06-05. E = -1365.261788 Ha
C    -1.63663   2.98645   2.14284
O    -1.45206   1.72833   1.47967
C    -1.38943   1.74423   0.14671
O    -1.59638   2.74558  -0.50608
C    -0.95144   0.39448  -0.41503
C    -1.06825   0.25967  -1.95687
C    -2.49512   0.64348  -2.43107
C    -3.38429  -0.52009  -1.90717
C    -2.36198  -1.45829  -1.23432
C    -1.13719  -1.27392  -2.14025
C    -1.88783  -0.78198   0.06298
F    -2.98949  -0.32336   0.79592
N    -1.04669  -1.54699   0.94746
C    -1.41141  -2.73157   1.53887
C    -0.50853  -3.24337   2.62889
O    -2.44251  -3.31109   1.20533
N     0.04031  -0.78960   1.43108
C     0.47382   0.03107   0.28793
C     1.44787  -0.76837  -0.59795
C     1.82223  -2.07421  -0.25377
C     2.71914  -2.79840  -1.04479
C     3.26830  -2.22618  -2.19369
C     2.92301  -0.91399  -2.53169
C     2.03100  -0.19179  -1.73781
C     1.25874   1.24202   0.80589
C     1.88820   1.18434   2.05883
C     2.64013   2.26307   2.53158
C     2.78574   3.41594   1.75613
C     2.17677   3.47564   0.49977
C     1.42428   2.39778   0.02705
H    -0.80677   3.66492   1.89651
H    -2.59019   3.44379   1.84424
H    -1.63985   2.76279   3.21543
H    -0.27742   0.78568  -2.49950
H    -2.81934   1.62590  -2.07619
H    -2.49449   0.67353  -3.53036
H    -3.87814  -1.05406  -2.73111
H    -4.16325  -0.18592  -1.21098
H    -2.71352  -2.47948  -1.06363
H    -0.25458  -1.82515  -1.80625
H    -1.35052  -1.55365  -3.18181
H    -0.55945  -2.57239   3.50079
H     0.54141  -3.27987   2.30939
H    -0.85123  -4.24395   2.92000
H    -0.32142  -0.15501   2.14846
H     1.40694  -2.53595   0.63773
H     2.98766  -3.81715  -0.75511
H     3.96706  -2.79151  -2.81467
H     3.35521  -0.44279  -3.41759
H     1.79586   0.83240  -2.01979
H     1.79870   0.28840   2.67324
H     3.11616   2.19665   3.51272
H     3.37199   4.26021   2.12600
H     2.28381   4.36777  -0.12152
H     0.95490   2.47585  -0.95243
