23
Generated by autodE on: 2022-06-05. E = -600.129011 Ha
C     3.36730   1.28709  -0.76369
O     2.02008   1.17026  -0.29311
C     1.52191  -0.07770  -0.19297
O     2.17263  -1.07145  -0.47842
C     0.14440  -0.07217   0.28646
C    -0.72557  -1.10614   0.25163
F    -0.49599  -2.33735  -0.18318
C    -2.10542  -0.63010   0.60346
C    -2.55825   0.24790  -0.61578
C    -1.59828   1.47093  -0.54770
C    -0.70072   1.13696   0.68421
C    -1.73174   0.46983   1.62123
H     3.46294   0.86904  -1.77669
H     3.59251   2.36003  -0.77625
H     4.06116   0.76294  -0.08995
H    -2.81118  -1.41356   0.90336
H    -3.60666   0.54686  -0.47345
H    -2.48958  -0.30709  -1.56185
H    -0.99683   1.59736  -1.45875
H    -2.15290   2.40478  -0.37377
H    -0.13180   1.98341   1.08448
H    -2.58014   1.12435   1.86993
H    -1.28272   0.06943   2.54156
