15
Generated by autodE on: 2022-06-16. E = -413.236141 Ha
C     2.12182   0.24365  -1.27411
N     1.34706   1.28586  -0.65431
N     0.26101   0.97825  -0.07983
C    -0.51046   2.13566   0.43604
C    -0.31744  -0.26567   0.12601
C    -1.63024  -0.32228   0.64943
N    -2.71359  -0.41517   1.07462
C     0.32928  -1.51499  -0.02338
N     0.75533  -2.60091  -0.07417
H     1.50627  -0.37470  -1.94937
H     2.91817   0.72523  -1.85383
H     2.59204  -0.41812  -0.52862
H    -0.66718   2.01347   1.51461
H    -1.47654   2.17916  -0.08196
H     0.07733   3.03135   0.22327
