35
Generated by autodE on: 2022-10-26. E = -767.258924 Ha
C    -0.91111   0.14731   1.68092
C    -0.57850  -0.76623   0.55860
C    -1.66356  -1.49598  -0.11882
C    -1.75731  -1.49956  -1.52576
C    -2.81120  -2.15321  -2.16320
C    -3.78599  -2.81775  -1.41171
C    -3.70651  -2.81434  -0.01484
C    -2.66265  -2.15029   0.62844
N     0.67971  -0.86599   0.13732
C     1.13497  -2.00593  -0.67737
C     1.64972   0.10869   0.44839
C     2.92096  -0.35029   0.82486
N     3.99487  -0.70464   1.14409
C     1.41273   1.53626   0.27736
C     0.32560   2.04661  -0.47358
C     0.16902   3.41845  -0.67683
C     1.07787   4.33417  -0.13704
C     2.15677   3.84714   0.61210
C     2.32088   2.47969   0.81998
H    -1.16638   1.15834   1.31342
H    -0.05229   0.25909   2.35998
H    -1.78862  -0.22844   2.22334
H    -1.01271  -0.96759  -2.11981
H    -2.87513  -2.13730  -3.25354
H    -4.60925  -3.33176  -1.91296
H    -4.46376  -3.33171   0.57850
H    -2.60741  -2.15832   1.71836
H     1.27790  -1.69700  -1.72106
H     2.09970  -2.34075  -0.27435
H     0.42005  -2.83154  -0.61576
H    -0.39386   1.36367  -0.92868
H    -0.67812   3.77314  -1.26985
H     0.94737   5.40709  -0.29403
H     2.87927   4.54309   1.04671
H     3.16822   2.12578   1.41157
