26
Generated by autodE on: 2022-06-02. E = -578.022642 Ha
C    -1.47086  -2.30570  -0.38355
C    -1.38807  -0.92998   0.17239
C    -0.37487  -0.04566   0.29916
C     1.04347  -0.13137  -0.03466
C     1.74814   1.02989  -0.41791
C     3.09930   0.96855  -0.76318
C     3.78356  -0.25065  -0.72341
C     3.10302  -1.40813  -0.32845
C     1.75211  -1.35138   0.01567
C    -1.07114   1.26827   0.76156
C    -1.91583   1.78495  -0.42367
C    -2.91174   0.90064  -0.54095
C    -2.65197  -0.13123   0.58035
O    -2.10455   0.72310   1.60079
H    -2.32226  -2.37528  -1.08286
H    -1.65789  -3.05056   0.41038
H    -0.55624  -2.60007  -0.91667
H     1.22710   1.98888  -0.46121
H     3.62179   1.87998  -1.06409
H     4.84218  -0.29766  -0.98920
H     3.63239  -2.36290  -0.27818
H     1.24406  -2.25618   0.35175
H    -0.44827   1.99490   1.29445
H    -1.67158   2.64888  -1.04123
H    -3.70868   0.83907  -1.28151
H    -3.50751  -0.71587   0.93826
