28
Generated by autodE on: 2022-07-27. E = -724.741801 Ha
C     2.11537   4.43521   0.32109
O     2.21128   3.24046  -0.45690
C     1.32937   2.25420  -0.15518
O     0.50755   2.36536   0.74970
C     1.47480   1.15801  -1.07945
N     0.74123   0.02750  -1.04037
C     0.59582  -0.67509  -2.33561
C     0.20101  -0.51582   0.08132
C     0.82089  -0.24233   1.32255
N     1.33692  -0.10891   2.36177
C    -0.95024  -1.42889   0.06818
C    -2.02046  -1.25405  -0.83336
C    -3.11116  -2.12307  -0.81391
C    -3.16717  -3.16892   0.11311
C    -2.12227  -3.33657   1.02889
C    -1.02561  -2.47686   1.00953
H     2.91665   5.09472  -0.03379
H     1.13883   4.92226   0.17636
H     2.25261   4.21877   1.39131
H     2.08898   1.30536  -1.96481
H     1.56374  -0.61791  -2.84842
H     0.32982  -1.72214  -2.16810
H    -0.16374  -0.17760  -2.95099
H    -2.01150  -0.42109  -1.53714
H    -3.93108  -1.97193  -1.51981
H    -4.02539  -3.84445   0.12850
H    -2.15909  -4.14692   1.76056
H    -0.21127  -2.61960   1.72293
