31
Generated by autodE on: 2022-06-27. E = -821.340572 Ha
C     2.75248   2.32474  -1.64683
O     1.57611   1.76407  -1.06717
C     1.75260   0.65775  -0.28311
O     2.86136   0.13965  -0.17244
C     0.51726   0.22462   0.30812
C     0.30591  -1.01518   0.99586
O    -0.80325  -1.44139   1.34487
O     1.42929  -1.71817   1.25945
C     1.25325  -2.97180   1.92242
N    -0.63267   1.06135   0.16449
C    -0.53892   2.44391   0.67881
C    -1.79204   0.61333  -0.22861
C    -3.01843   1.45085  -0.13217
C    -1.90799  -0.75298  -0.88872
C    -3.08472  -1.60406  -0.51394
O    -1.12675  -1.04840  -1.77255
H     3.23740   1.61081  -2.32968
H     3.47472   2.62275  -0.87133
H     2.42376   3.20894  -2.20728
H     2.25633  -3.40679   2.01268
H     0.81593  -2.83357   2.92268
H     0.60556  -3.64174   1.33719
H    -0.84325   3.15870  -0.09558
H    -1.20305   2.54455   1.54891
H     0.49008   2.63729   0.98600
H    -2.88602   2.39034  -0.69231
H    -3.89303   0.92508  -0.52913
H    -3.21292   1.72446   0.91875
H    -3.43813  -1.39953   0.50459
H    -3.90663  -1.39248  -1.21940
H    -2.80675  -2.66085  -0.62245
