25
Generated by autodE on: 2022-06-16. E = -680.814877 Ha
C     1.81243   2.65622   0.59000
N     1.58540   1.26724   0.94206
C     1.64760   0.29145   0.00971
O     2.16768   0.42184  -1.09830
N     1.17396  -0.97079   0.43366
C     0.85627  -1.97803  -0.58935
C    -0.57320  -2.41725  -0.23113
N    -1.09807  -1.27318   0.50702
C    -1.67225  -0.22224  -0.27330
O    -2.28703  -0.49302  -1.30334
N    -1.56688   1.01145   0.24700
C    -2.02424   2.17595  -0.48767
O     0.00119  -0.87471   1.30354
H     0.94116   3.09906   0.07679
H     2.68422   2.73856  -0.07210
H     2.01032   3.23077   1.50408
H     1.08999   1.06709   1.80503
H     0.90028  -1.51558  -1.58358
H     1.56218  -2.81745  -0.54763
H    -0.57459  -3.29438   0.42780
H    -1.19246  -2.61305  -1.11076
H    -0.97168   1.14713   1.05508
H    -1.40803   2.36256  -1.38263
H    -3.06744   2.04482  -0.80922
H    -1.96581   3.05148   0.17025
