19
Generated by autodE on: 2022-06-16. E = -602.060581 Ha
C     3.17766  -0.33438  -0.34705
N     2.03580  -0.26794  -1.24444
C     0.90677   0.40945  -1.00101
O    -0.12275   0.35213  -1.67689
N     1.06903   1.40273   0.01098
O     0.00893   1.76694   0.66465
N    -1.10782   1.12420   0.85624
C    -1.07211  -0.29092   0.73292
O    -0.04954  -0.95664   0.91347
N    -2.30141  -0.78990   0.55536
C    -2.56170  -2.21494   0.55487
H     4.00322  -0.83149  -0.87064
H     2.94009  -0.90260   0.56636
H     3.50447   0.67295  -0.05490
H     1.97416  -0.94041  -2.00492
H    -3.07937  -0.13618   0.52665
H    -3.47513  -2.41410  -0.01952
H    -2.69517  -2.60609   1.57753
H    -1.71875  -2.74342   0.08982
