25
Generated by autodE on: 2022-06-16. E = -680.678616 Ha. Imaginary frequency = -300.5 cm-1
C     2.65506   2.16036  -0.64594
N     2.36266   0.81775  -0.18311
C     1.30238   0.57522   0.60294
O     0.58321   1.44633   1.09992
N     1.19479  -0.78307   0.99276
C     1.01722  -2.23719  -0.97380
C    -0.29460  -2.60566  -0.94339
N    -1.12911  -1.06673   0.76447
C    -1.34970   0.01195  -0.19285
O    -0.63451   0.33124  -1.13573
N    -2.56141   0.53500   0.04438
C    -3.09522   1.59903  -0.78304
O     0.00610  -1.18802   1.39997
H     2.81406   2.84401   0.20164
H     3.56814   2.13390  -1.25260
H     1.83133   2.56074  -1.25966
H     2.85122   0.02773  -0.59217
H     1.36709  -1.46770  -1.66426
H     1.77712  -2.81604  -0.44587
H    -1.01834  -2.17933  -1.63980
H    -0.62243  -3.46245  -0.34988
H    -3.09136   0.18940   0.83846
H    -4.08388   1.88085  -0.40281
H    -2.43640   2.48115  -0.76175
H    -3.19190   1.27039  -1.82979
