54
Generated by autodE on: 2022-06-26. E = -1298.369552 Ha
C     1.77950   3.31613  -1.86767
N     1.63929   2.27293  -0.87276
C     2.01422   1.00389  -1.08515
O     2.67329   0.63282  -2.06458
C     1.61235  -0.00926   0.00505
C     2.85611  -0.40680   0.78690
O     0.67676   0.59189   0.91437
C    -0.66577   0.14104   0.66693
C    -1.43998   0.22261   2.00019
O    -2.63435  -0.11178   2.04207
N    -0.75938   0.68056   3.05074
C    -1.32481   0.79394   4.38073
C    -1.32508   1.10625  -0.32988
C    -1.54076   0.81946  -1.68357
C    -2.01773   1.80504  -2.55502
C    -2.28698   3.09266  -2.08916
C    -2.08250   3.38890  -0.73766
C    -1.61016   2.40437   0.12968
C    -0.44239  -1.34120   0.21222
C    -1.56801  -2.00305  -0.60328
N    -2.80828  -1.88233  -0.10384
O    -1.31362  -2.65175  -1.63889
C    -0.17370  -2.22545   1.46484
C     0.55359  -3.48057   1.09786
C     1.36816  -3.50892   0.02532
N     1.61676  -2.43177  -0.80134
C     2.11191  -2.69847  -2.14232
C     0.84566  -1.21214  -0.64622
H     0.90852   3.34463  -2.54413
H     1.86955   4.29201  -1.37184
H     2.68079   3.13565  -2.46737
H     1.01196   2.42895  -0.09017
H     2.62223  -1.19694   1.51295
H     3.24640   0.47208   1.32166
H     3.63005  -0.77428   0.10119
H     0.22655   0.87543   2.89916
H    -1.06932  -0.08103   5.00075
H    -2.41708   0.86298   4.30648
H    -0.93765   1.69695   4.87210
H    -1.33367  -0.16585  -2.09491
H    -2.17362   1.55692  -3.60728
H    -2.65416   3.86125  -2.77298
H    -2.29046   4.39111  -0.35615
H    -1.44101   2.65862   1.17774
H    -2.98783  -1.27375   0.70281
H    -3.57686  -2.30664  -0.61395
H     0.41397  -1.63022   2.18324
H    -1.12825  -2.44948   1.96085
H     0.44453  -4.37160   1.71772
H     1.90335  -4.42021  -0.25541
H     2.63736  -1.81550  -2.52873
H     2.82105  -3.53813  -2.11334
H     1.29401  -2.95572  -2.84239
H     0.54539  -0.90635  -1.65354
