20
Generated by autodE on: 2022-06-26. E = -457.715320 Ha
C    -3.15873  -0.03258  -0.36360
N    -1.81891  -0.04823   0.19954
C    -1.65636  -0.06682   1.59035
C    -0.44991  -0.05359   2.17882
C     0.84476  -0.01685   1.40477
C     0.56961   0.01014  -0.09011
C     1.66841   0.05307  -1.06809
N     2.92386   0.05658  -0.55297
O     1.49165   0.08609  -2.30323
C    -0.70258  -0.00475  -0.57969
H    -3.73708  -0.90726  -0.02541
H    -3.09232  -0.06041  -1.45819
H    -3.70515   0.87832  -0.06800
H    -2.58651  -0.09398   2.16081
H    -0.40391  -0.07183   3.27012
H     1.47445  -0.88910   1.67621
H     1.44674   0.86288   1.71228
H     3.71058   0.08418  -1.19217
H     3.10851   0.02495   0.44149
H    -0.87219   0.01685  -1.65731
