34
Generated by autodE on: 2022-06-26. E = -840.568540 Ha
C     2.12555   3.02334  -1.99304
N     1.57702   1.89748  -1.26798
C     0.30199   1.48356  -1.47341
O    -0.43244   2.03708  -2.31237
C    -0.16568   0.34667  -0.66344
O     0.67847   0.01839   0.31029
C     0.82965  -1.04574   1.06205
C     0.11480  -2.30991   0.81560
C     1.88127  -0.92299   2.08416
O     2.20724  -1.90061   2.78203
N     2.46532   0.29008   2.22940
C     3.51545   0.50603   3.20144
C    -1.50841  -0.20607  -0.78429
C    -2.28837  -0.46274   0.36606
C    -3.60187  -0.92006   0.24842
C    -4.16512  -1.13350  -1.01261
C    -3.40514  -0.87473  -2.16093
C    -2.09527  -0.41475  -2.05258
H     3.13401   3.23134  -1.61459
H     1.50598   3.92429  -1.86023
H     2.19118   2.82035  -3.07532
H     2.17436   1.37724  -0.63696
H     0.64445  -3.11620   1.33723
H     0.07757  -2.51919  -0.26763
H    -0.93486  -2.29911   1.16428
H     2.12428   1.07339   1.68428
H     3.88975   1.53175   3.09715
H     4.35206  -0.19347   3.04664
H     3.15071   0.36748   4.23316
H    -1.87471  -0.26488   1.35663
H    -4.18914  -1.10548   1.15082
H    -5.19125  -1.49715  -1.10249
H    -3.83732  -1.04109  -3.15062
H    -1.50858  -0.22174  -2.95037
