54
Generated by autodE on: 2022-06-26. E = -1298.268220 Ha. Imaginary frequency = -299.7 cm-1
C     1.83107   3.09578  -2.42279
N     1.67377   2.27583  -1.23809
C     1.99631   0.96592  -1.23682
O     2.60101   0.44005  -2.18717
C     1.65634   0.19702  -0.00892
C     2.79516  -0.42168   0.73781
O     0.68698   0.63377   0.80670
C    -0.63430   0.80603   0.73199
C    -1.26598   0.60802   2.06418
O    -2.49597   0.43863   2.18424
N    -0.44489   0.56936   3.13169
C    -0.92775   0.15957   4.43460
C    -1.33219   1.57777  -0.30685
C    -1.05345   1.45589  -1.68467
C    -1.72312   2.23563  -2.62715
C    -2.69311   3.15627  -2.22512
C    -2.99290   3.28503  -0.86407
C    -2.32569   2.50863   0.07997
C    -0.68992  -1.66929  -0.09332
C    -1.91802  -1.37330  -0.85916
N    -3.07116  -1.20755  -0.15151
O    -1.92574  -1.32233  -2.10391
C    -0.74019  -2.33839   1.27266
C     0.11476  -3.58115   1.26339
C     1.16836  -3.68239   0.43461
N     1.45226  -2.72347  -0.53415
C     2.57726  -2.92819  -1.43312
C     0.50841  -1.76046  -0.82293
H     1.37055   2.61149  -3.29792
H     2.89394   3.27403  -2.65234
H     1.33990   4.06141  -2.25218
H     1.18113   2.66524  -0.44265
H     3.57462  -0.74373   0.03714
H     2.46353  -1.29083   1.32428
H     3.24610   0.31399   1.42813
H     0.55391   0.63336   2.96678
H    -0.10383   0.22592   5.15544
H    -1.74758   0.81129   4.77207
H    -1.30396  -0.87711   4.41708
H    -0.33255   0.72854  -2.04102
H    -1.48574   2.11252  -3.68607
H    -3.21480   3.76735  -2.96530
H    -3.74630   4.00353  -0.53294
H    -2.56840   2.63189   1.13442
H    -3.86231  -0.89554  -0.70772
H    -3.01192  -0.80074   0.78576
H    -1.77795  -2.57674   1.54462
H    -0.37146  -1.66279   2.06541
H    -0.08949  -4.38478   1.97396
H     1.84666  -4.53819   0.44344
H     3.45689  -3.26571  -0.86678
H     2.82361  -1.98139  -1.92725
H     2.34828  -3.68434  -2.20554
H     0.53302  -1.39042  -1.84759
