23
Generated by autodE on: 2022-10-24. E = -572.023849 Ha
C    -0.57330  -3.22605  -0.20278
N    -0.49285  -2.03798   0.00400
C    -0.47078  -0.74394   0.07020
C    -1.82689  -0.11768   0.12191
O    -2.83428  -0.80363   0.34642
N    -1.90322   1.20756  -0.12367
C    -3.17701   1.89857  -0.13923
C     0.83179  -0.04497   0.02197
C     1.05823   1.15475   0.72489
C     2.30314   1.78561   0.66917
C     3.34680   1.22947  -0.07566
C     3.13735   0.02890  -0.76380
C     1.89500  -0.60216  -0.71617
H    -0.58367  -3.99010   0.59105
H    -1.06868   1.71665  -0.39119
H    -2.99430   2.97571  -0.23798
H    -3.81136   1.56875  -0.97910
H    -3.73192   1.71597   0.79345
H     0.26630   1.58871   1.33627
H     2.45901   2.71419   1.22333
H     4.31955   1.72473  -0.11587
H     3.94686  -0.41721  -1.34646
H     1.73968  -1.53693  -1.25956
