45
Generated by autodE on: 2022-10-24. E = -981.312886 Ha
C     2.97165  -1.93545   2.71553
O     3.19767  -0.58758   2.32244
C     2.97648  -0.30550   0.95530
C     3.99886  -1.00981   0.13246
N     4.81771  -1.54404  -0.49158
C     1.61249  -0.64234   0.51019
C     0.46087  -0.38564   0.23430
C    -0.79094   0.34308   0.02379
C    -1.02386   0.64891  -1.46970
C    -2.20833   1.29933  -1.85115
C    -2.44633   1.62231  -3.18756
C    -1.50418   1.29569  -4.17010
C    -0.32552   0.64588  -3.79988
C    -0.08670   0.32586  -2.45793
C    -1.98474  -0.46364   0.56001
C    -2.99309   0.11297   1.34207
C    -4.08460  -0.65248   1.76989
C    -4.18079  -2.00188   1.42431
C    -3.17646  -2.58522   0.64322
C    -2.09053  -1.82051   0.21580
C    -0.55563   1.68247   0.80514
C     0.76886   2.41433   0.50583
C     2.00961   2.07739   1.37974
C     3.13793   1.22805   0.76489
H     3.64765  -2.62973   2.18601
H     3.17579  -1.98806   3.79290
H     1.92739  -2.23796   2.52696
H    -2.95532   1.55218  -1.09612
H    -3.37407   2.12920  -3.46392
H    -1.69099   1.54571  -5.21710
H     0.41820   0.38388  -4.55634
H     0.83963  -0.17984  -2.18202
H    -2.94247   1.16488   1.62230
H    -4.86237  -0.18576   2.37918
H    -5.03239  -2.59770   1.76106
H    -3.23932  -3.64043   0.36650
H    -1.31152  -2.27994  -0.39782
H    -1.39629   2.34981   0.56737
H    -0.61587   1.46407   1.88251
H     1.02193   2.31072  -0.56275
H     0.56020   3.48511   0.65151
H     1.69287   1.62329   2.33254
H     2.48162   3.03296   1.65448
H     3.22764   1.43028  -0.31314
H     4.10222   1.48401   1.23069
