23
Generated by autodE on: 2022-06-28. E = -351.521382 Ha
C     3.31077   1.13073  -1.43608
C     2.45099   0.34629  -0.74955
C     2.91844  -0.90626  -0.05327
C     1.03666   0.70668  -0.67199
C     0.07689   0.00596  -0.01720
C    -1.31419   0.40794   0.02795
C    -2.33164  -0.23642   0.65352
C    -3.73025   0.31113   0.60966
C    -2.17984  -1.51537   1.42716
H     2.96802   2.03942  -1.94058
H     4.37374   0.88483  -1.51038
H     3.99800  -1.05966  -0.19143
H     2.71078  -0.86054   1.02875
H     2.39042  -1.79496  -0.43715
H     0.74730   1.62605  -1.19528
H     0.35846  -0.91150   0.50655
H    -1.55611   1.33489  -0.50607
H    -4.42447  -0.42334   0.16308
H    -4.10692   0.50447   1.63024
H    -3.79334   1.24536   0.03264
H    -2.51169  -1.37198   2.47073
H    -2.83482  -2.29719   1.00359
H    -1.15318  -1.90295   1.44530
