34
Generated by autodE on: 2022-07-27. E = -840.564884 Ha
C    -4.04590   0.92406  -0.49633
N    -2.60626   0.84071  -0.34461
C    -2.03742  -0.03006   0.51797
O    -2.71212  -0.68272   1.33007
C    -0.55376  -0.08493   0.50351
O     0.14526  -0.02969  -0.62227
C    -0.09298  -0.34636  -1.87603
C    -1.33116  -1.01978  -2.31093
C     1.04267  -0.12451  -2.77962
O     0.98281  -0.46901  -3.97525
N     2.14477   0.46704  -2.25791
C     3.32648   0.69422  -3.06131
C     0.25208  -0.07367   1.70889
C     1.65364  -0.26868   1.63241
C     2.44412  -0.22524   2.77818
C     1.86580  -0.00587   4.03415
C     0.48054   0.17430   4.12639
C    -0.31903   0.14524   2.98605
H    -4.52705   1.29504   0.42284
H    -4.47466  -0.06388  -0.72800
H    -4.27600   1.61316  -1.31780
H    -2.01968   1.39932  -0.95562
H    -1.65473  -1.74133  -1.53768
H    -2.18159  -0.33520  -2.47536
H    -1.13011  -1.54652  -3.25231
H     2.14112   0.74695  -1.28356
H     3.73653  -0.24999  -3.45576
H     4.09095   1.17573  -2.43933
H     3.10926   1.34813  -3.92184
H     2.11650  -0.46288   0.66424
H     3.52285  -0.37671   2.69135
H     2.48717   0.01789   4.93211
H     0.01577   0.34579   5.10042
H    -1.39467   0.28996   3.07882
