33
Generated by autodE on: 2022-10-07. E = -1097.641210 Ha
C    -1.48044   3.97156   0.06676
N    -0.99594   2.66387   0.44679
C    -1.39289   1.52285  -0.12666
O    -2.22088   1.45098  -1.04178
C    -0.70852   0.24693   0.43955
C    -1.80985  -0.80800   0.66431
O    -2.29141  -0.97002   1.79551
N    -2.18978  -1.50553  -0.40938
C    -3.24646  -2.49413  -0.33562
N    -0.02324   0.55275   1.70598
C     1.37226   0.12257   1.62917
C     1.54227  -1.26728   2.10523
N     1.60127  -2.35710   2.50224
C     1.69769   0.24173   0.12970
C     2.99514  -0.46868  -0.29839
O     3.02458  -0.97673  -1.44702
O     3.93066  -0.46702   0.54514
C     0.41840  -0.27331  -0.51732
C     0.18988   0.08950  -1.99559
O    -0.55857  -0.70040  -2.64470
O     0.70742   1.14040  -2.43591
H    -2.17972   4.37924   0.81563
H    -0.64124   4.67478  -0.04008
H    -2.00491   3.89427  -0.89400
H    -0.35373   2.54033   1.22833
H    -1.72406  -1.30914  -1.30990
H    -3.34654  -2.98112  -1.31380
H    -3.02190  -3.26300   0.42068
H    -4.21291  -2.03414  -0.07032
H    -0.54273   0.14368   2.48331
H     2.02845   0.75588   2.24289
H     1.81018   1.31385  -0.09790
H     0.42444  -1.37012  -0.45141
