10
Generated by autodE on: 2022-10-07. E = -455.051609 Ha
O    -2.62996  -0.79880   1.13056
C    -1.56322  -0.12655   1.19800
O    -1.28047   0.72211   2.08799
C    -0.55463  -0.37290   0.09458
C     0.57143   0.33436  -0.07227
C     1.56571   0.12258  -1.19574
O     1.37060  -0.83216  -1.99736
O     2.52489   0.94280  -1.24079
H    -0.79539  -1.17237  -0.61454
H     0.80262   1.14003   0.63293
