22
Generated by autodE on: 2022-05-31. E = -666.175274 Ha
C     4.43981  -1.43612  -0.18102
O     3.19454  -0.70832  -0.11040
C     2.08977  -1.43239  -0.11903
O     1.99443  -2.63899  -0.17620
C     0.91047  -0.59434  -0.05117
N    -0.12224  -0.05434  -0.00070
C    -1.25008   0.64646   0.06174
C    -2.51080  -0.10129   0.04905
C    -2.40957  -1.60642  -0.04568
O    -3.60252   0.46308   0.11061
C    -1.05155   2.10436   0.13673
C    -2.25891   2.99775   0.21181
O     0.08982   2.56757   0.13682
H     4.48409  -2.01247  -1.11536
H     5.22618  -0.67451  -0.15833
H     4.52861  -2.11158   0.68098
H    -1.88799  -1.90263  -0.97031
H    -1.82937  -2.01284   0.79842
H    -3.41907  -2.03607  -0.03950
H    -2.86586   2.75581   1.09679
H    -2.90784   2.84753  -0.66365
H    -1.91902   4.04085   0.25844
