16
Generated by autodE on: 2022-05-31. E = -743.987476 Ha
F    -0.05608  -2.16613  -0.86059
C     0.38875  -0.93356  -0.72285
C    -0.17625   0.13236  -0.15054
C    -1.44610   0.27772   0.58525
F    -2.20850   1.28183   0.10119
F    -2.19113  -0.84035   0.54642
F    -1.22637   0.56971   1.88809
C     0.94893   1.19807  -0.21226
C     2.06758   0.74761   0.75630
C     2.60807  -0.33105   0.18308
C     1.81415  -0.51572  -1.13215
O     1.54833   0.85295  -1.47723
H     0.62566   2.24326  -0.17308
H     2.28875   1.21565   1.71458
H     3.39186  -0.99877   0.53760
H     2.27563  -1.08689  -1.94428
