36
Generated by autodE on: 2022-10-06. E = -1012.321503 Ha
C     1.50154   2.49724   0.72684
C     0.65272   1.97842  -0.40686
O     0.36565   2.70010  -1.35164
C     0.31705   0.46864  -0.45780
C     1.67500  -0.20634  -0.74805
C     2.59113  -0.52043   0.26869
C     3.83813  -1.07515  -0.03558
C     4.19909  -1.31511  -1.36437
C     3.29980  -0.99375  -2.38594
C     2.05299  -0.44439  -2.07774
N    -0.65138   0.21151  -1.53381
C    -1.87250  -0.38946  -0.97315
C    -2.57084  -1.31346  -1.95913
C    -1.36487  -1.08470   0.28599
C    -2.42335  -1.52900   1.31089
O    -2.07550  -2.43338   2.11617
O    -3.54582  -0.95409   1.28950
C    -0.34819  -0.05670   0.84469
C    -1.06371   1.03542   1.66465
O    -1.23319   0.80264   2.88785
O    -1.44265   2.07491   1.05420
H     1.44152   1.88552   1.63483
H     2.55179   2.50942   0.39228
H     1.20515   3.53125   0.94916
H     2.33902  -0.33414   1.31301
H     4.53011  -1.32029   0.77398
H     5.17346  -1.74898  -1.60183
H     3.56903  -1.17352  -3.42996
H     1.34395  -0.20672  -2.87037
H    -0.84561   1.09304  -2.00582
H    -2.59054   0.38628  -0.65467
H    -3.47769  -1.74198  -1.50365
H    -1.90504  -2.13834  -2.26234
H    -2.87579  -0.76905  -2.86776
H    -0.79420  -1.98202  -0.00757
H     0.35842  -0.55737   1.51423
