26
Generated by autodE on: 2022-10-13. E = -557.219884 Ha
C    -1.82759  -2.17265  -0.79173
C    -2.51494  -0.86883  -0.64064
N    -1.98969   0.22359  -0.15742
C    -0.73320   0.59590   0.29691
C    -0.78043   1.84792   0.97951
C     0.48929   2.49709   1.48223
O    -1.87852   2.44640   1.15871
C     0.48292  -0.15029  -0.06651
C     1.44205  -0.50353   0.90370
C     2.61390  -1.17415   0.54712
C     2.85167  -1.52133  -0.78697
C     1.90938  -1.17860  -1.76298
C     0.74462  -0.49585  -1.40958
H    -2.57836  -2.97497  -0.82089
H    -1.12402  -2.35971   0.03298
H    -1.24424  -2.22669  -1.72908
H    -3.56796  -0.77809  -0.91746
H    -2.63454   1.01336   0.00842
H     0.66208   2.21824   2.53537
H     1.38107   2.21194   0.90908
H     0.35778   3.58864   1.44780
H     1.25403  -0.26174   1.95152
H     3.34043  -1.43921   1.31941
H     3.76447  -2.05376  -1.06445
H     2.08810  -1.43515  -2.81026
H     0.02952  -0.21266  -2.18500
