10
Generated by autodE on: 2022-10-06. E = -455.046593 Ha
O     2.00383  -0.71601   0.90264
C     1.52715  -0.32638  -0.19469
O     1.64352  -0.89719  -1.30985
C     0.83360   1.02341  -0.19248
C    -0.47573   1.27254  -0.02350
C    -1.54977   0.23529   0.20547
O    -1.21172  -0.98053   0.27010
O    -2.72984   0.67503   0.31663
H     1.50957   1.87490  -0.35296
H    -0.83441   2.30798  -0.05126
