36
Generated by autodE on: 2022-10-06. E = -1012.254863 Ha. Imaginary frequency = -423.8 cm-1
C     1.59342   2.44562   0.53953
C     0.35020   1.93692  -0.14142
O    -0.66969   2.65220  -0.17777
C     0.33449   0.59946  -0.72074
C     1.57276  -0.13853  -1.06080
C     2.51176  -0.51934  -0.08328
C     3.68707  -1.18167  -0.44149
C     3.95155  -1.48612  -1.78175
C     3.02796  -1.11227  -2.76294
C     1.85647  -0.44039  -2.40781
N    -0.85539   0.30124  -1.33278
C    -1.44166  -0.92328  -1.36123
C    -0.69766  -2.18107  -1.69407
C    -1.81639  -1.11957   0.67322
C    -3.10291  -0.31348   0.85221
O    -3.96575  -0.83243   1.61008
O    -3.24614   0.76585   0.21308
C    -0.60762  -0.80321   1.30121
C    -0.34066   0.28966   2.28485
O     0.79267   0.25149   2.87111
O    -1.22548   1.16182   2.51355
H     1.67135   1.97568   1.53512
H     2.51045   2.20553  -0.01578
H     1.50458   3.53271   0.67028
H     2.29679  -0.31917   0.96637
H     4.39743  -1.47423   0.33604
H     4.86953  -2.01022  -2.05826
H     3.22328  -1.33820  -3.81435
H     1.14818  -0.13909  -3.18195
H    -1.54780   1.03414  -1.12889
H    -2.46626  -0.87564  -1.74057
H    -1.37946  -3.03748  -1.59369
H     0.17121  -2.34579  -1.04555
H    -0.33803  -2.15543  -2.73708
H    -2.00173  -2.19277   0.54503
H     0.17187  -1.57031   1.27693
