33
Generated by autodE on: 2022-05-29. E = -1083.293755 Ha
C     3.30765  -0.93162   1.97156
N     2.65657  -0.40320   0.78679
C     1.66615   0.49512   0.88644
O     1.34542   1.02158   1.95097
C     1.01304   0.97846  -0.44407
C     2.01168   1.87433  -1.16813
O    -0.15212   1.73909  -0.14523
C    -1.33900   0.95576  -0.20139
C    -2.11404   0.89862   1.11650
C    -1.86987   1.98896   2.10459
O    -2.92751   0.00417   1.26652
C    -0.98047  -0.41578  -0.80801
F    -1.82359  -0.71996  -1.85335
C    -0.95472  -1.59644   0.18572
C    -1.69625  -2.82721  -0.21258
O    -0.30491  -1.47999   1.20445
C     0.44400  -0.13529  -1.35710
F     1.21334  -1.25377  -1.42880
F     0.32161   0.32016  -2.62656
H     3.71185  -0.11690   2.58991
H     2.60178  -1.51297   2.58779
H     4.13170  -1.58570   1.66168
H     2.82283  -0.85990  -0.10304
H     1.53218   2.34634  -2.03494
H     2.35536   2.65626  -0.47659
H     2.88054   1.29089  -1.50310
H    -2.03479   1.43279  -0.91498
H    -1.95801   2.97203   1.61492
H    -0.82979   1.90331   2.45691
H    -2.57420   1.90733   2.94199
H    -1.31423  -3.18668  -1.18197
H    -2.76078  -2.58432  -0.35299
H    -1.57414  -3.59764   0.55871
