22
Generated by autodE on: 2022-07-26. E = -554.001222 Ha
C     1.71635  -1.80480   1.50412
N     0.95791  -1.30276   0.37362
C     1.24868  -0.10777  -0.16897
O     2.26474   0.54124   0.08859
C     0.37190   0.34038  -1.30956
C     1.01820   1.04042  -2.43992
O    -0.87051   0.05547  -1.44710
C    -1.76489  -0.30468  -0.45406
C    -1.65109   0.33057   0.79356
C    -2.83153   0.21392   1.73068
O    -0.64252   1.00644   1.12852
H     1.40440  -2.83519   1.71372
H     1.54746  -1.18966   2.40412
H     2.79188  -1.79627   1.27851
H     0.01898  -1.67192   0.23021
H     0.30484   1.19182  -3.25933
H     1.38900   2.01852  -2.08788
H     1.90069   0.47965  -2.78955
H    -2.69827  -0.65774  -0.88527
H    -3.22020   1.22164   1.95046
H    -2.49155  -0.22034   2.68467
H    -3.64112  -0.40528   1.32023
