33
Generated by autodE on: 2022-05-29. E = -1083.174071 Ha. Imaginary frequency = -363.6 cm-1
C     2.44652  -1.01101   2.28794
N     1.70690  -0.59161   1.11289
C     1.93195   0.60762   0.57630
O     2.87466   1.33919   0.90203
C     1.08366   1.12163  -0.59050
C     1.86391   1.69892  -1.72394
O    -0.09762   1.68432  -0.44419
C    -1.14409   1.40297   0.33417
C    -1.04864   1.16409   1.75761
C    -2.33969   0.85723   2.47127
O     0.02329   1.21728   2.37027
C    -1.16097  -0.75342  -1.12246
F    -2.09413  -0.14956  -1.88386
C    -1.60543  -1.49479   0.05170
C    -3.08894  -1.66494   0.20587
O    -0.79226  -1.98789   0.84027
C     0.10964  -0.78207  -1.66942
F     1.01250  -1.69052  -1.34996
F     0.28667  -0.34538  -2.90516
H     2.16717  -2.04435   2.52909
H     2.21767  -0.36736   3.15367
H     3.52993  -0.96715   2.10377
H     0.83586  -1.09313   0.91199
H     1.19068   1.97973  -2.54340
H     2.41123   2.59459  -1.38613
H     2.60670   0.97114  -2.08107
H    -2.07022   1.78630  -0.09403
H    -3.22949   1.08091   1.86869
H    -2.37329   1.41404   3.41946
H    -2.34207  -0.21791   2.71850
H    -3.60846  -0.69825   0.14701
H    -3.46790  -2.28976  -0.62042
H    -3.30100  -2.15427   1.16425
