46
Generated by autodE on: 2022-12-30. E = -1292.619524 Ha
C     2.63476  -2.48177   1.65839
N     1.68976  -1.49622   1.17428
C     2.08580  -0.47128   0.41233
O     3.24800  -0.33426   0.02269
C     0.99605   0.54927   0.01511
C     1.56590   1.78269  -0.76978
C     2.33596   1.28490  -1.98120
C     1.40695   0.85114  -2.84078
C     0.07445   1.10068  -2.15180
O     0.35261   2.26622  -1.37210
C    -0.07243   0.01795  -1.01445
O     0.18221  -1.29561  -1.40425
C    -0.43652  -1.76377  -2.60661
C    -1.44498   0.11469  -0.17658
C    -2.55861   0.56921  -1.00957
N    -3.42471   0.92773  -1.69098
C    -1.73572  -1.30277   0.38141
O    -1.20795  -1.72786   1.38555
O    -2.59510  -1.96898  -0.36009
C    -2.85072  -3.34295  -0.00344
N    -1.19450   1.02112   0.94409
C    -1.72688   2.38824   0.84372
N     0.19380   0.95032   1.16934
C     0.72996   1.12770   2.41435
C    -0.22287   1.17694   3.57632
O     1.95312   1.22109   2.54224
H     3.38510  -2.02023   2.32121
H     2.08897  -3.24868   2.22174
H     3.16879  -2.96438   0.82484
H     0.70999  -1.56966   1.44473
H     2.03164   2.53326  -0.12443
H     3.41863   1.25683  -2.07052
H     1.53805   0.36803  -3.80771
H    -0.80810   1.23523  -2.78397
H    -0.30632  -2.85351  -2.61089
H    -1.51124  -1.53424  -2.63540
H     0.05138  -1.34124  -3.49784
H    -3.57080  -3.71151  -0.74138
H    -3.27073  -3.39584   1.00988
H    -1.91449  -3.91562  -0.05425
H    -1.36949   2.95782   1.70933
H    -1.42498   2.90905  -0.07513
H    -2.82158   2.33966   0.91018
H    -0.97550   0.38111   3.49119
H     0.36151   1.05952   4.49741
H    -0.75405   2.13987   3.61879
