24
Generated by autodE on: 2022-12-30. E = -630.223225 Ha
C     3.55562  -0.50178   1.35561
N     2.31556  -0.08623   0.73629
C     1.35786  -0.98163   0.39293
O     1.51410  -2.20539   0.57293
C     0.13674  -0.44752  -0.19979
C    -0.32095   0.82115  -0.34256
O     0.30310   1.94779  -0.01375
C    -0.35015   3.20237  -0.25697
C    -1.77923   0.68364  -0.85831
C    -2.60345   0.12284   0.32335
C    -2.16919  -1.13251   0.46998
C    -1.07371  -1.31028  -0.60665
O    -1.62733  -0.49233  -1.66432
H     3.38178  -1.00580   2.32110
H     4.17917   0.38357   1.53194
H     4.11396  -1.20095   0.71209
H     2.12957   0.90225   0.60216
H     0.32642   3.97532   0.12592
H    -1.30853   3.25096   0.28070
H    -0.51137   3.35160  -1.33497
H    -2.19673   1.52610  -1.41787
H    -3.32434   0.69199   0.90863
H    -2.44454  -1.88081   1.21257
H    -0.85195  -2.32913  -0.93954
