22
Generated by autodE on: 2022-12-30. E = -662.332505 Ha
C     1.60504  -2.76060   1.27744
O     0.40990  -2.03305   0.94559
C     0.55376  -0.74046   0.66298
O     1.61688  -0.15450   0.64930
C    -0.76764  -0.10706   0.44042
C    -1.91616  -0.75643   0.95865
N    -2.85290  -1.30678   1.37945
N    -0.91233   1.12248  -0.08828
C    -2.21242   1.81059   0.08797
N    -0.02699   1.80721  -0.73925
C     0.91727   1.16504  -1.54286
C     2.09891   2.02834  -1.85717
O     0.74850   0.04826  -2.01683
H     2.06891  -2.33813   2.17999
H     2.31676  -2.71991   0.44099
H     1.28483  -3.79237   1.45888
H    -2.06917   2.84748  -0.22596
H    -2.95299   1.31822  -0.55735
H    -2.52564   1.75307   1.13657
H     1.79277   3.06236  -2.06799
H     2.74640   2.04744  -0.96378
H     2.66152   1.60773  -2.70010
