46
Generated by autodE on: 2022-12-30. E = -1292.556396 Ha. Imaginary frequency = -166.7 cm-1
C     2.92906  -2.18069   1.82496
N     1.94180  -1.44950   1.05811
C     2.27284  -0.35417   0.35456
O     3.44046   0.04622   0.21809
C     1.16270   0.36780  -0.31734
C     1.38096   1.80575  -0.83319
C     2.21609   1.71236  -2.12464
C     1.39369   1.18638  -3.04006
C     0.06005   0.97234  -2.29255
O     0.07352   2.07040  -1.37647
C     0.33454  -0.18356  -1.30272
O     0.25791  -1.47899  -1.60053
C    -0.49231  -1.85498  -2.76658
C    -1.86200   0.02444   0.18216
C    -2.85187   0.41454  -0.75102
N    -3.64566   0.73214  -1.54484
C    -1.69416  -1.40142   0.49330
O    -1.00871  -1.86861   1.38940
O    -2.39695  -2.16074  -0.35466
C    -2.24929  -3.58156  -0.22476
N    -1.28077   0.98727   0.97122
C    -1.81596   2.36143   0.96356
N    -0.09091   0.71758   1.40575
C     0.48478   1.27579   2.52357
C    -0.39699   1.38955   3.74564
O     1.68198   1.54710   2.53594
H     3.79879  -2.43181   1.20037
H     3.28962  -1.59527   2.68880
H     2.47905  -3.11085   2.19485
H     0.95042  -1.61368   1.23735
H     1.67824   2.54310  -0.08173
H     3.26820   1.97979  -2.20696
H     1.58586   0.89836  -4.07262
H    -0.86228   0.92955  -2.87913
H    -1.51347  -1.45514  -2.71506
H     0.01240  -1.49538  -3.67573
H    -0.52178  -2.95044  -2.76992
H    -2.82392  -4.01822  -1.04927
H    -2.64968  -3.92274   0.74065
H    -1.19020  -3.86357  -0.30435
H    -1.06250   3.03187   1.38749
H    -2.02412   2.67328  -0.06596
H    -2.73840   2.39172   1.55881
H    -1.06609   0.52125   3.82726
H     0.24333   1.46544   4.63387
H    -1.01890   2.29629   3.68023
