29
Generated by autodE on: 2022-06-16. E = -612.827129 Ha
C     3.98773   0.68269   0.29541
O     2.59087   0.95728   0.14510
C     1.77074  -0.10877   0.11755
O     2.18278  -1.25608   0.22534
C     0.35884   0.23867  -0.04640
N    -0.01833   1.46172  -0.28340
N    -1.33790   1.48315  -0.49556
C    -1.99355   0.25210   0.01655
C    -2.38069   0.49094   1.48281
C    -3.23644  -0.08610  -0.79601
C    -0.79252  -0.76026  -0.13712
C    -0.78988  -1.86276   0.92475
C    -0.74175  -1.40161  -1.53838
H     4.48974   1.65757   0.29340
H     4.18377   0.16013   1.24360
H     4.35699   0.06682  -0.53815
H    -1.78185   2.38468  -0.32984
H    -1.50155   0.72846   2.10019
H    -3.08264   1.33754   1.53966
H    -2.87866  -0.38987   1.91230
H    -3.65003  -1.05362  -0.47297
H    -4.01134   0.67958  -0.63398
H    -3.02721  -0.13481  -1.87242
H    -1.75151  -2.39997   0.91260
H    -0.62714  -1.46933   1.93749
H     0.00493  -2.59116   0.71673
H    -1.56789  -2.11499  -1.67875
H    -0.79750  -0.64441  -2.33439
H     0.20469  -1.95017  -1.65419
