18
Generated by autodE on: 2022-06-16. E = -235.968070 Ha
C    -1.47715  -1.02467  -0.80842
C    -0.66835   0.03679  -0.10215
C    -1.53221   1.19011   0.34862
C     0.66837  -0.03679   0.10214
C     1.53224  -1.19006  -0.34874
C     1.47711   1.02463   0.80852
H    -1.99460  -0.59354  -1.68428
H    -2.27348  -1.40554  -0.14391
H    -0.89103  -1.88412  -1.15512
H    -2.04521   1.64663  -0.51696
H    -0.98846   1.98491   0.87301
H    -2.33303   0.83016   1.01933
H     2.33311  -0.83003  -1.01933
H     2.04516  -1.64675   0.51681
H     0.98848  -1.98477  -0.87326
H     2.27353   1.40559   0.14418
H     0.89095   1.88402   1.15529
H     1.99447   0.59335   1.68438
