29
Generated by autodE on: 2022-06-16. E = -612.709831 Ha. Imaginary frequency = -356.2 cm-1
C     4.16313   0.61315   0.04420
O     2.78421   0.99572   0.16064
C     1.87797   0.03276  -0.09646
O     2.18277  -1.10095  -0.42540
C     0.52806   0.50621   0.13944
N    -0.03623   1.59035  -0.00037
N    -1.14970   2.09551  -0.22195
C    -2.27259  -0.25909   0.11467
C    -2.84319   0.12404   1.45430
C    -3.13142   0.02225  -1.08949
C    -1.16614  -1.08915   0.02264
C    -0.66310  -1.84073   1.24094
C    -0.83220  -1.73389  -1.30965
H     4.74326   1.50559   0.30666
H     4.39733  -0.20877   0.73647
H     4.39342   0.30061  -0.98467
H    -1.19769   3.06260   0.12893
H    -2.06056   0.36882   2.18721
H    -3.51995   0.98609   1.37054
H    -3.42680  -0.71427   1.88143
H    -3.78149  -0.85051  -1.29738
H    -3.78539   0.89013  -0.92694
H    -2.54377   0.20111  -1.99973
H    -1.27973  -2.74549   1.40054
H    -0.71020  -1.24551   2.16206
H     0.37497  -2.17378   1.10427
H    -1.58942  -2.49720  -1.56804
H    -0.81184  -1.00910  -2.13657
H     0.14494  -2.23081  -1.27608
