32
Generated by autodE on: 2022-10-21. E = -1021.877070 Ha
C     0.44278   4.18483  -0.55813
O     0.63711   2.75848  -0.61422
C    -0.25398   2.00563   0.01352
O    -1.20569   2.41350   0.63360
C     0.07369   0.51770  -0.18646
C     1.59884   0.29206  -0.05726
O     2.27540  -0.26918  -0.88375
O     2.02868   0.76104   1.10486
C     3.43015   0.60587   1.39764
C    -0.62397  -0.39078   0.82988
O    -0.67505  -0.01958   2.08385
C    -1.24316  -0.90830   3.06164
C    -1.07105  -1.49161   0.16528
C    -1.74116  -2.65568   0.59786
N    -2.28157  -3.64173   0.90307
N    -0.76155  -1.34229  -1.24434
C     0.00368  -2.25739  -1.85523
N     0.58070  -3.09013  -2.43267
N    -0.41005   0.02799  -1.49354
C    -1.57805   0.72850  -2.04089
H    -0.51958   4.44901  -1.01837
H     1.27296   4.62106  -1.12372
H     0.46468   4.52520   0.48620
H     3.57749   1.04141   2.39181
H     3.69850  -0.45968   1.39966
H     4.03141   1.14119   0.64967
H    -1.14320  -0.39717   4.02523
H    -2.30470  -1.08471   2.83588
H    -0.68575  -1.85619   3.07474
H    -1.86957   0.21750  -2.96658
H    -2.43526   0.75038  -1.34682
H    -1.28364   1.75410  -2.29958
