9
Generated by autodE on: 2022-10-21. E = -284.223819 Ha
C    -2.65439   0.41246   0.71125
O    -1.63106   0.88795  -0.22266
C    -0.47744   0.36146  -0.17077
C     0.64804  -0.11253  -0.16154
C     1.90597  -0.64246  -0.15048
N     2.98383  -1.09800  -0.13987
H    -2.31206   0.59538   1.73820
H    -3.54943   0.99973   0.48313
H    -2.82725  -0.65721   0.53450
