23
Generated by autodE on: 2022-10-21. E = -737.578641 Ha
C     2.02621   1.13256   2.18536
O     0.83389   0.86596   1.42280
C     0.96486   0.06310   0.37986
O     1.99646  -0.45126   0.00871
C    -0.33462  -0.12483  -0.35848
C    -0.85493   1.04648  -1.10337
O    -1.95686   1.15313  -1.60151
O     0.07757   2.00128  -1.13454
C    -0.28000   3.23876  -1.77074
N    -0.91709  -1.31289  -0.40548
C    -2.02680  -1.60215  -1.34484
N    -0.62188  -2.37704   0.32721
C     0.16651  -2.26622   1.37533
N     0.81544  -2.32604   2.35178
H     1.72205   1.81528   2.98603
H     2.41461   0.19389   2.60483
H     2.78750   1.60104   1.54606
H     0.59867   3.88641  -1.67856
H    -0.52083   3.06585  -2.82915
H    -1.14476   3.68959  -1.26344
H    -2.10572  -2.69119  -1.39233
H    -2.94982  -1.16748  -0.94388
H    -1.80717  -1.17451  -2.32639
