32
Generated by autodE on: 2022-10-21. E = -1021.782411 Ha. Imaginary frequency = -419.6 cm-1
C     0.34918   4.00071   0.67226
O     0.58663   2.65259   0.22944
C    -0.43564   2.01028  -0.32184
O    -1.52904   2.48820  -0.51585
C    -0.03859   0.57805  -0.59589
C     1.46789   0.34313  -0.44624
O     2.20926   0.49580  -1.38976
O     1.83395   0.01545   0.77619
C     3.24035  -0.20487   0.99260
C    -0.85253  -0.41322   1.02491
O    -0.82028   0.53792   1.91346
C    -1.26842   0.17195   3.24206
C    -1.16113  -1.60152   0.74506
C    -1.50602  -2.91288   0.64608
N    -1.79441  -4.04768   0.57143
N    -0.49320  -1.41907  -1.69584
C     0.63759  -2.02247  -1.36251
N     1.56228  -2.71299  -1.16081
N    -0.66465  -0.11969  -1.58434
C    -1.92186   0.32904  -2.20192
H     0.05446   4.63112  -0.17788
H     1.29775   4.34545   1.09742
H    -0.44200   4.00720   1.43523
H     3.34375  -0.43653   2.05797
H     3.57835  -1.05092   0.37782
H     3.80852   0.69949   0.73489
H    -1.19249   1.08334   3.84528
H    -2.30917  -0.17854   3.19191
H    -0.61411  -0.61621   3.64077
H    -2.14979  -0.38845  -2.99510
H    -2.71935   0.33050  -1.44575
H    -1.79488   1.33503  -2.61078
