23
Generated by autodE on: 2022-06-25. E = -351.521383 Ha
C    -3.63281  -0.97650   0.38802
C    -2.57773  -0.19023   0.08085
C    -2.77080   1.20607  -0.45335
C    -1.21666  -0.68954   0.26617
C    -0.07874  -0.00075  -0.00136
C     1.24931  -0.54298   0.20102
C     2.43119   0.07956  -0.03853
C     2.56199   1.47906  -0.56927
C     3.73537  -0.61924   0.22378
H    -3.48939  -1.98974   0.77598
H    -4.66137  -0.62805   0.25951
H    -2.30258   1.32050  -1.44514
H    -2.29715   1.95269   0.20561
H    -3.83786   1.45330  -0.54448
H    -1.13009  -1.71093   0.65605
H    -0.15776   1.01807  -0.38998
H     1.28781  -1.56769   0.59006
H     1.60012   1.97412  -0.75460
H     3.13553   1.47741  -1.51305
H     3.13878   2.10230   0.13687
H     4.34294  -0.05302   0.95259
H     4.34136  -0.67640  -0.69835
H     3.59120  -1.63927   0.60922
