35
Generated by autodE on: 2022-06-25. E = -804.414842 Ha
C     3.35577  -2.30236  -0.99265
C     2.47540  -1.12457  -0.64023
O     2.06740  -0.36146  -1.54340
N     2.20932  -1.03281   0.67851
N     1.36095  -0.00021   1.01063
C     1.94227   0.89740   2.01475
C     0.15845   0.15682   0.50433
C    -0.49611  -0.91650  -0.27178
C    -0.46124  -2.25404   0.16165
C    -1.13804  -3.23839  -0.55637
C    -1.83905  -2.90610  -1.72229
C    -1.87478  -1.57894  -2.15881
C    -1.21512  -0.58624  -1.43240
C    -0.59246   1.41348   0.70566
C    -0.00493   2.65356   0.39707
C    -0.74089   3.83045   0.53465
C    -2.06350   3.78253   0.98729
C    -2.65630   2.55106   1.28698
C    -1.93140   1.36957   1.13308
H     3.79944  -2.77327  -0.10584
H     2.73977  -3.04878  -1.52243
H     4.14780  -1.98041  -1.68589
H     2.69159   1.54538   1.53910
H     2.44499   0.25928   2.75221
H     1.16993   1.50067   2.50097
H     0.09285  -2.51794   1.06215
H    -1.11938  -4.27231  -0.20467
H    -2.36025  -3.68283  -2.28666
H    -2.42097  -1.31352  -3.06663
H    -1.24472   0.45074  -1.77055
H     1.02038   2.68765   0.02568
H    -0.28110   4.78848   0.28253
H    -2.63635   4.70598   1.09870
H    -3.69021   2.51077   1.63650
H    -2.39549   0.40701   1.35553
