36
Generated by autodE on: 2022-05-29. E = -1120.131129 Ha. Imaginary frequency = -342.5 cm-1
C     4.74665   1.22280   0.28173
O     3.38065   0.98032   0.68571
C     2.44088   1.28385  -0.18650
O     2.58096   1.74914  -1.29433
C     1.11432   0.88422   0.31433
N     0.12076   1.29202   0.83894
C    -1.12174   0.96697   1.22150
C    -1.34490   0.61350   2.57587
N    -1.53310   0.29174   3.67958
C    -2.28587   1.30551   0.38572
O    -3.41982   0.96091   0.67052
O    -1.94391   1.97771  -0.70937
C    -2.97854   2.21922  -1.67519
C    -0.75006  -1.42803   0.15693
C    -1.33398  -2.18064   1.29489
C    -1.47807  -1.27943  -1.19659
C    -1.18282  -2.59120  -1.95585
C     0.10713  -2.50641  -2.29734
C     0.57823  -1.14812  -1.74387
O    -0.60888  -0.36561  -1.88273
C     0.59445  -1.27933  -0.18346
C     1.66464  -1.86609   0.53896
N     2.56013  -2.33852   1.11635
H     4.89769   2.29497   0.09702
H     5.36466   0.88302   1.11911
H     4.97174   0.64753  -0.62685
H    -3.78820   2.81450  -1.23030
H    -3.38064   1.26659  -2.04850
H    -2.50116   2.77405  -2.49048
H    -0.69873  -2.14148   2.18988
H    -2.34233  -1.82009   1.54420
H    -1.43108  -3.24087   0.99289
H    -2.51616  -0.93439  -1.16541
H    -1.89224  -3.40575  -2.09533
H     0.74457  -3.23066  -2.80270
H     1.44935  -0.67414  -2.20581
