51
Generated by autodE on: 2022-06-02. E = -1187.806764 Ha
C     3.61420   0.69110  -2.44603
N     2.59464   0.08162  -1.61822
C     2.17360   0.63445  -0.47707
O     2.65342   1.66830   0.00324
C     1.03949  -0.11253   0.24769
C     1.45818  -0.32436   1.72474
C     2.86608  -0.77938   1.98570
O     0.65023  -0.20176   2.62833
N     0.80559  -1.44144  -0.33573
C    -0.57418  -1.86056  -0.07774
C    -0.99376  -2.93298  -1.09628
C    -0.67085  -2.57688   1.29586
C    -1.98665  -2.62133   2.01448
O     0.32278  -3.12602   1.74397
C    -1.38962  -0.54626  -0.13645
C    -2.01628  -0.17162  -1.49799
C    -2.88875   1.08777  -1.28641
C    -1.83771   2.22886  -1.15899
C    -0.49521   1.46797  -1.19860
C    -0.81501   0.40479  -2.26634
C    -0.35453   0.60485   0.10873
C    -0.71641   1.46614   1.31150
O    -1.75953   1.40538   1.93254
O     0.20402   2.40755   1.53456
C    -0.01753   3.28281   2.64673
H     3.24303   1.60664  -2.93616
H     4.49054   0.96307  -1.83916
H     3.92303  -0.02234  -3.21991
H     2.09879  -0.75405  -1.91951
H     3.28880  -1.35453   1.15055
H     2.89969  -1.36339   2.91445
H     3.48776   0.12255   2.10900
H     1.45918  -2.14053   0.02184
H    -2.03874  -3.23934  -0.94443
H    -0.87999  -2.55143  -2.11909
H    -0.35316  -3.82108  -0.98655
H    -1.99232  -3.45117   2.73340
H    -2.09515  -1.67371   2.56964
H    -2.83806  -2.69610   1.32371
H    -2.16080  -0.54211   0.63714
H    -2.55518  -0.99813  -1.97579
H    -3.52277   0.99916  -0.39210
H    -3.54995   1.24850  -2.15043
H    -1.88174   2.90615  -2.02413
H    -1.97164   2.84868  -0.26232
H     0.36909   2.11839  -1.37456
H    -1.09496   0.86208  -3.22766
H    -0.01385  -0.32188  -2.43593
H    -0.06907   2.70420   3.58067
H    -0.94995   3.85019   2.51460
H     0.84125   3.96365   2.67050
