28
Generated by autodE on: 2022-06-02. E = -686.903762 Ha
C     2.54432   2.10202   1.41787
N     2.07900   0.82030   0.93859
C     0.91290   0.69234   0.27397
O     0.13959   1.66933   0.12097
C     0.60776  -0.62778  -0.28154
N    -0.58894  -0.74906  -0.99403
C    -1.71747  -0.11337  -0.84718
C    -2.78665  -0.24884  -1.87161
C    -2.01492   0.65074   0.42163
C    -2.74243   1.95445   0.28570
O    -1.83307   0.08958   1.49142
C     1.51593  -1.73004  -0.31355
C     1.09158  -3.00067  -1.02759
O     2.64312  -1.70352   0.23995
H     2.88044   2.76288   0.59913
H     1.74382   2.62665   1.96034
H     3.38835   1.94441   2.10198
H     2.68793  -0.00318   0.90894
H    -0.56014  -1.38671  -1.79539
H    -2.52189  -1.00389  -2.62528
H    -2.94249   0.71761  -2.38094
H    -3.74322  -0.51949  -1.39670
H    -2.37480   2.53675  -0.56924
H    -2.64368   2.52625   1.21767
H    -3.81200   1.73843   0.11860
H     1.92718  -3.71156  -1.00267
H     0.82583  -2.81214  -2.08184
H     0.21474  -3.45815  -0.54213
