51
Generated by autodE on: 2022-06-02. E = -1187.743361 Ha. Imaginary frequency = -285.6 cm-1
C     3.51309   2.50621  -0.84690
N     2.85949   1.57801   0.05312
C     2.35363   0.41344  -0.38460
O     2.52875  -0.01194  -1.53854
C     1.51781  -0.36868   0.58734
C     1.95194  -0.31065   2.01862
C     2.63011  -1.53413   2.58195
O     1.98649   0.75386   2.62733
N     1.04580  -1.51721   0.02458
C    -0.13033  -2.14733   0.29115
C    -0.57617  -3.14670  -0.73707
C    -0.65277  -2.22947   1.66666
C    -1.89388  -3.05671   1.88998
O    -0.11158  -1.65464   2.61322
C    -1.47342  -0.28249   0.14402
C    -1.95992  -0.23913  -1.29491
C    -2.86165   1.03473  -1.37401
C    -1.83332   2.19780  -1.24828
C    -0.47288   1.44942  -1.08658
C    -0.70682   0.25967  -2.03740
C    -0.55346   0.77834   0.28884
C    -0.48557   1.56593   1.52928
O    -0.94426   1.23722   2.61215
O     0.12342   2.75276   1.33577
C     0.26484   3.59883   2.47968
H     3.95904   3.31774  -0.25863
H     2.80255   2.94199  -1.57026
H     4.30790   2.00033  -1.41359
H     2.54994   1.90083   0.96703
H     2.30735  -2.46831   2.11176
H     3.71133  -1.40702   2.39430
H     2.47305  -1.57465   3.66841
H     1.33717  -1.57256  -0.95769
H    -0.19631  -4.15502  -0.50050
H    -0.20843  -2.86476  -1.73397
H    -1.67003  -3.20863  -0.78180
H    -1.63881  -4.12473   1.78728
H    -2.26481  -2.87341   2.90646
H    -2.68320  -2.83798   1.15744
H    -2.16406  -0.52834   0.95094
H    -2.43950  -1.15294  -1.66634
H    -3.62219   1.04665  -0.57973
H    -3.38566   1.06291  -2.34143
H    -1.81130   2.81127  -2.16148
H    -2.03839   2.86768  -0.40147
H     0.40762   2.07536  -1.26602
H    -0.92576   0.58616  -3.06491
H     0.11743  -0.45779  -2.07221
H     0.86291   3.09922   3.25469
H     0.77995   4.50091   2.12835
H    -0.71954   3.86369   2.89309
