26
Generated by autodE on: 2022-06-09. E = -685.646852 Ha
C    -3.37233   0.30912   1.51970
O    -2.56443  -0.42516   0.58656
C    -1.55368   0.23415   0.03272
O    -1.34275   1.41965   0.18221
C    -0.79422  -0.62745  -0.93788
C    -1.55792  -1.57579  -1.79838
N     0.49277  -0.43593  -1.11082
C     1.15877  -1.07380  -2.26343
C     1.32090   0.19234  -0.15282
C     2.46851   0.86554  -0.60941
N     3.42565   1.44157  -0.95958
C     1.09865  -0.02154   1.24831
C     2.14347   0.50765   2.20514
O     0.09564  -0.61982   1.68180
H    -3.85085   1.16506   1.02314
H    -2.75056   0.66488   2.35362
H    -4.12968  -0.39526   1.88111
H    -1.69058  -1.15283  -2.80973
H    -1.02826  -2.53366  -1.90765
H    -2.54942  -1.75702  -1.37148
H     1.28506  -2.14655  -2.06000
H     2.14217  -0.61563  -2.40255
H     0.55999  -0.93438  -3.16972
H     2.10799   1.60977   2.21408
H     3.16268   0.21302   1.91534
H     1.92241   0.13825   3.21484
