26
Generated by autodE on: 2022-07-27. E = -685.645106 Ha
C    -0.96405   3.42870   2.63789
O    -0.89565   2.65457   1.42851
C    -0.26838   1.48573   1.50426
O     0.24031   1.04834   2.51646
C    -0.31788   0.74378   0.19984
C    -1.48108   0.95353  -0.69261
N     0.66972  -0.07644  -0.10446
C     1.97730  -0.03887   0.58180
C     0.49667  -1.08319  -1.07180
C     1.56967  -1.36062  -1.94260
N     2.43880  -1.60456  -2.68714
C    -0.66327  -1.94392  -1.02927
C    -0.72771  -3.04971  -2.06161
O    -1.55364  -1.82043  -0.17479
H    -1.51346   4.34033   2.37878
H     0.04821   3.67609   2.98795
H    -1.49679   2.86639   3.41781
H    -1.78104   2.00829  -0.65231
H    -2.33674   0.33482  -0.37568
H    -1.22697   0.65861  -1.72153
H     2.74359  -0.31497  -0.15148
H     1.98135  -0.76859   1.40112
H     2.18806   0.96557   0.95791
H    -1.67073  -3.59763  -1.93831
H     0.11507  -3.74890  -1.94258
H    -0.67073  -2.63908  -3.08183
