47
Generated by autodE on: 2022-06-09. E = -8810.787695 Ha. Imaginary frequency = -276.6 cm-1
C    -0.52142   5.52430   1.18598
O    -0.65477   4.60649   0.08945
C    -0.05597   3.42585   0.22343
O     0.62482   3.12903   1.18360
C    -0.37076   2.48805  -0.92159
C    -1.67113   2.70043  -1.64123
C    -0.68639   0.45457   0.40821
C     0.03028  -0.40082  -0.15310
C     0.58665  -1.73734  -0.01815
Br    0.24061  -2.85816  -1.63335
Br    2.57737  -1.59275   0.19730
C     0.03502  -2.43800   1.22725
C    -1.47195  -2.76386   1.23661
C    -2.49440  -1.78853   0.63244
C    -2.82849  -0.46188   1.32052
C    -1.69365   0.59552   1.45683
Br   -0.77169   0.37184   3.29204
C    -2.28380   1.92865   1.58612
N    -2.80136   2.96320   1.67001
C     0.53235   0.65563  -2.18043
C     1.73210   0.15495  -2.77991
N     2.67348  -0.30753  -3.28539
C    -0.72474   0.13189  -2.87425
C    -0.53350  -0.36429  -4.28616
O    -1.81718   0.08011  -2.34174
N     0.67057   1.85297  -1.49156
C     2.04463   2.15064  -1.03328
H     0.53674   5.77214   1.34997
H    -0.94444   5.08232   2.09881
H    -1.08424   6.41904   0.89765
H    -1.51351   2.65736  -2.72740
H    -2.43772   1.95687  -1.39223
H    -2.05207   3.69339  -1.38173
H     0.59536  -3.37171   1.37892
H     0.29045  -1.77535   2.06571
H    -1.60626  -3.71381   0.69647
H    -1.73761  -2.97330   2.28613
H    -2.24806  -1.59009  -0.41954
H    -3.45268  -2.33227   0.60442
H    -3.61175   0.02277   0.71571
H    -3.25949  -0.61984   2.31957
H    -1.50806  -0.67169  -4.68500
H     0.15750  -1.21872  -4.31816
H    -0.09774   0.43041  -4.91248
H     2.73771   1.95879  -1.85736
H     2.29967   1.51282  -0.17682
H     2.12682   3.20509  -0.76322
