53
Generated by autodE on: 2022-06-24. E = -1189.719008 Ha
C     0.34697  -2.22969   2.50858
C     1.21566  -2.06259   1.50266
C     2.37769  -2.99095   1.27839
C     1.10362  -0.92065   0.51507
C    -0.31072  -0.39094   0.20466
C    -1.09554  -1.38533  -0.59558
C    -2.23802  -1.99959  -0.23712
C    -2.86543  -3.02775  -1.13938
C    -2.98986  -1.74806   1.04089
C    -0.00383   0.99514  -0.45633
C     0.21291   0.86260  -1.98666
C    -0.98611   0.90258  -2.88380
O     1.34341   0.75589  -2.43101
C    -1.03326   2.07661  -0.16046
C    -0.61584   3.41294  -0.07074
C    -1.54301   4.43009   0.16707
C    -2.90019   4.12568   0.31092
C    -3.32230   2.79682   0.21529
C    -2.39547   1.77767  -0.02024
O     1.25694   1.39711   0.10230
C     1.84982   0.39373   0.90103
C     1.65379   0.73909   2.32573
N     1.45182   1.05141   3.42372
C     3.36446   0.30243   0.61585
O     4.14416  -0.04873   1.50569
N     3.70201   0.58841  -0.64104
C     5.06294   0.43386  -1.11720
H     0.46345  -3.05905   3.21216
H    -0.49769  -1.55877   2.67440
H     2.32861  -3.43379   0.26885
H     2.39557  -3.80346   2.01884
H     3.33200  -2.44317   1.33896
H     1.55743  -1.23949  -0.43509
H    -0.82053  -0.16268   1.14813
H    -0.63771  -1.67836  -1.54741
H    -3.88695  -2.72160  -1.42542
H    -2.27948  -3.18710  -2.05635
H    -2.96728  -3.99464  -0.61608
H    -2.55429  -0.95720   1.66369
H    -4.03503  -1.47329   0.81759
H    -3.03253  -2.67269   1.64207
H    -0.73271   0.46241  -3.85699
H    -1.85502   0.39955  -2.44075
H    -1.26264   1.96040  -3.03108
H     0.44161   3.65501  -0.18093
H    -1.20216   5.46561   0.23966
H    -3.62558   4.92125   0.49650
H    -4.38006   2.54705   0.32601
H    -2.74257   0.74876  -0.10135
H     2.94300   0.79626  -1.29784
H     5.76788   0.94061  -0.44212
H     5.14348   0.87933  -2.11621
H     5.35272  -0.62838  -1.17782
