30
Generated by autodE on: 2022-06-24. E = -838.112786 Ha
C     4.99672   0.89298  -1.05290
N     3.61671   1.08280  -0.65277
C     2.72051   0.07799  -0.73883
O     3.01595  -1.05363  -1.14581
C     1.34199   0.39071  -0.30351
C     0.91894   1.65559   0.13445
N     0.63791   2.73932   0.47347
O     0.51350  -0.62977  -0.47410
C    -0.73698  -0.89036  -0.24693
C    -1.15677  -2.18333  -0.84648
C    -0.13277  -2.94098  -1.64663
O    -2.30577  -2.57995  -0.69086
C    -1.62431  -0.05241   0.55146
C    -1.20707   0.43554   1.80793
C    -2.08301   1.18076   2.59435
C    -3.37483   1.45985   2.13646
C    -3.79713   0.97726   0.89238
C    -2.93547   0.21556   0.10641
H     5.08025   0.67860  -2.13097
H     5.55755   1.80888  -0.83139
H     5.45514   0.05471  -0.50558
H     3.32070   2.00154  -0.33906
H     0.81014  -3.04918  -1.09152
H    -0.54170  -3.92390  -1.91132
H     0.10550  -2.37963  -2.56511
H    -0.20739   0.20688   2.18075
H    -1.75506   1.54554   3.56990
H    -4.05559   2.05250   2.75173
H    -4.80489   1.19651   0.53323
H    -3.26360  -0.15962  -0.86273
