53
Generated by autodE on: 2022-06-24. E = -1189.640720 Ha. Imaginary frequency = -261.3 cm-1
C     2.04967  -0.81247   3.42025
C     0.93887  -0.61596   2.67826
C    -0.27152   0.06657   3.25256
C     0.95466  -1.04978   1.27959
C    -0.18344  -1.27474   0.48099
C    -0.05506  -2.14698  -0.65642
C    -1.05336  -2.69363  -1.40214
C    -0.73260  -3.57701  -2.56995
C    -2.51279  -2.49170  -1.13044
C    -0.33313   0.99782  -0.64615
C    -1.02846   0.55201  -1.86409
C    -2.49135   0.86708  -2.04294
O    -0.41106  -0.08437  -2.72370
C    -0.91015   1.94080   0.32191
C    -0.25188   3.15688   0.59182
C    -0.79234   4.07228   1.49499
C    -2.00586   3.79905   2.13289
C    -2.67899   2.60345   1.85591
C    -2.13764   1.68175   0.96287
O     0.99832   0.93822  -0.80876
C     1.97011   0.69075   0.07622
C     2.25142   1.53175   1.18241
N     2.52834   2.15672   2.12727
C     3.11435  -0.07613  -0.48987
O     4.12427  -0.29031   0.19499
N     2.92736  -0.54503  -1.73800
C     3.83468  -1.50486  -2.33302
H     2.94947  -1.25597   2.98440
H     2.08913  -0.52046   4.47305
H    -1.20345  -0.46668   3.01069
H    -0.19016   0.14775   4.34562
H    -0.36911   1.08241   2.84271
H     1.84065  -1.62664   1.00783
H    -1.17016  -1.03982   0.87847
H     0.97235  -2.38740  -0.94678
H    -1.14581  -3.14314  -3.49750
H    -1.20514  -4.56863  -2.45560
H     0.35032  -3.71429  -2.70114
H    -2.71487  -1.79453  -0.30790
H    -3.02112  -2.12322  -2.03645
H    -2.98422  -3.46020  -0.88572
H    -2.79512   0.54575  -3.04749
H    -3.11216   0.34629  -1.30244
H    -2.67604   1.94539  -1.92209
H     0.67675   3.39531   0.07205
H    -0.26551   5.00839   1.69353
H    -2.42834   4.51610   2.84038
H    -3.62494   2.37931   2.35393
H    -2.65116   0.73637   0.78981
H     2.00428  -0.41788  -2.14913
H     3.66195  -1.54108  -3.41618
H     3.68868  -2.51768  -1.91875
H     4.87592  -1.20707  -2.14853
