49
Generated by autodE on: 2022-06-20. E = -1020.935441 Ha
C    -5.30773  -1.90960  -1.81645
C    -4.25275  -1.07820  -1.93447
C    -4.13056  -0.10286  -3.07481
C    -3.18676  -1.11607  -0.92827
C    -2.07966  -0.35110  -0.93680
C    -1.01779  -0.44767   0.10558
C    -0.63928   0.90313   0.78918
C    -0.62385   2.04609  -0.15224
N    -0.58219   2.96776  -0.85542
C    -1.70184   1.20803   1.87225
C    -1.36920   0.83214   3.27874
O    -2.75680   1.69730   1.52002
O     0.64560   0.71861   1.32240
C     1.27773  -0.51446   0.86185
C     1.27658  -1.47134   2.05564
C     2.70178  -0.17906   0.43857
C     3.10738   1.14850   0.24295
C     4.40573   1.44352  -0.18392
C     5.32033   0.41526  -0.42594
C     4.92447  -0.91228  -0.23546
C     3.62868  -1.20608   0.19636
C     0.37417  -0.99259  -0.34019
C     0.31420  -2.51299  -0.49612
C     0.82581  -0.38536  -1.67699
H    -5.38254  -2.61307  -0.98160
H    -6.12065  -1.90820  -2.54798
H    -4.06167   0.93303  -2.70310
H    -3.21358  -0.28891  -3.65841
H    -4.99290  -0.17173  -3.75265
H    -3.32365  -1.83361  -0.11092
H    -1.92362   0.37450  -1.73907
H    -1.37723  -1.10315   0.91206
H    -0.49119   1.40864   3.61011
H    -2.22942   1.03487   3.92882
H    -1.08721  -0.23008   3.33475
H     0.25231  -1.74228   2.34553
H     1.82683  -2.39509   1.83804
H     1.76051  -0.97412   2.90881
H     2.39847   1.95616   0.42290
H     4.70172   2.48559  -0.32829
H     6.33479   0.64572  -0.75994
H     5.62847  -1.72690  -0.42200
H     3.33852  -2.24859   0.33461
H    -0.34752  -2.76837  -1.33784
H     1.31141  -2.92238  -0.71668
H    -0.07865  -3.01143   0.40023
H     0.09690  -0.62545  -2.46427
H     1.79377  -0.80937  -1.97697
H     0.94217   0.70557  -1.63929
