23
Generated by autodE on: 2022-06-20. E = -351.521382 Ha
C     3.24072  -0.91664   1.71980
C     2.25132  -0.98796   0.80228
C     2.29188  -1.99732  -0.31651
C     1.11444  -0.07288   0.88199
C     0.06524  -0.03858   0.02246
C    -1.03761   0.89253   0.14596
C    -2.11470   0.99728  -0.67293
C    -2.34867   0.13854  -1.88339
C    -3.18206   2.02208  -0.41117
H     3.20854  -0.18233   2.53064
H     4.10305  -1.58818   1.68322
H     3.19659  -2.61882  -0.25959
H     1.41244  -2.66183  -0.28479
H     2.27454  -1.50032  -1.30073
H     1.13094   0.63976   1.71544
H     0.04268  -0.74546  -0.81129
H    -0.98158   1.58152   0.99745
H    -1.56193  -0.60710  -2.05619
H    -3.31260  -0.39293  -1.79407
H    -2.42983   0.76797  -2.78727
H    -4.16630   1.53754  -0.27965
H    -2.96892   2.62550   0.48339
H    -3.29081   2.70324  -1.27434
