26
Generated by autodE on: 2022-06-20. E = -669.350758 Ha
C     2.27281  -0.20701   2.05445
C     2.84985  -0.03006   0.66721
O     4.07752   0.01130   0.47979
C     1.93444   0.08344  -0.43375
C     2.41619   0.31210  -1.73354
N     2.89615   0.51822  -2.76882
O     0.60383   0.03385  -0.10263
C    -0.48486  -0.04510  -0.78585
C    -0.43959  -0.13025  -2.26187
C    -1.69796  -0.06337   0.01498
C    -1.62072   0.04088   1.42528
C    -2.77563   0.01658   2.19664
C    -4.03070  -0.10741   1.58481
C    -4.12144  -0.20767   0.19340
C    -2.96885  -0.18613  -0.58897
H     3.09949  -0.26118   2.77457
H     1.67085  -1.12688   2.11569
H     1.61216   0.63408   2.31609
H     0.19966  -0.97911  -2.55680
H    -1.43227  -0.26232  -2.69863
H     0.01324   0.78094  -2.68351
H    -0.64798   0.14090   1.90494
H    -2.70187   0.09692   3.28309
H    -4.93668  -0.12373   2.19470
H    -5.09682  -0.30405  -0.28754
H    -3.06403  -0.26962  -1.67084
