26
Generated by autodE on: 2022-07-27. E = -669.352942 Ha
C    -3.37986   1.76906   1.67982
C    -2.05106   1.15522   1.30057
O    -1.15428   1.01879   2.15971
C    -1.86603   0.75583  -0.05117
C    -2.70146   1.06410  -1.13513
N    -3.40395   1.30125  -2.04231
O    -0.59765   0.30105  -0.44842
C     0.03165  -0.66088   0.15041
C    -0.67538  -1.58075   1.06003
C     1.42931  -0.78833  -0.21271
C     2.01568   0.13258  -1.11369
C     3.35342   0.00919  -1.46671
C     4.13176  -1.02060  -0.92080
C     3.56712  -1.92869  -0.01834
C     2.22579  -1.81860   0.33558
H    -4.07153   1.88670   0.83557
H    -3.85288   1.12983   2.44275
H    -3.19921   2.75196   2.14237
H    -0.25509  -2.59109   1.00072
H    -1.74652  -1.58865   0.80621
H    -0.59551  -1.21602   2.09727
H     1.41190   0.94095  -1.52566
H     3.79865   0.72023  -2.16532
H     5.18472  -1.11142  -1.19692
H     4.17632  -2.72642   0.41066
H     1.79958  -2.53063   1.04165
