41
Generated by autodE on: 2022-06-19. E = -957.412514 Ha
C     4.87791   1.08682   1.21500
N     3.62262   0.44100   0.88209
C     2.72124   1.02917   0.08944
O     2.87094   2.13819  -0.43100
C     1.45230   0.24402  -0.19562
O     1.46021  -1.04667   0.54265
C     0.16165  -1.41462   0.64320
O    -0.17802  -2.44547   1.16830
C    -0.63531  -0.30363  -0.07721
C    -2.10175  -0.18292   0.22155
C    -2.89085  -1.32694   0.41916
C    -4.27104  -1.21238   0.60642
C    -4.88420   0.04343   0.59324
C    -4.10668   1.18588   0.38248
C    -2.72759   1.07321   0.19232
C    -0.28496  -0.56852  -1.60040
C    -1.19398   0.15204  -2.58445
C     1.19546  -0.10105  -1.67086
C     2.16783  -1.09954  -2.27694
N     0.21983   0.87351   0.21571
C     0.20826   1.34947   1.60070
H     5.49375   0.38835   1.79359
H     5.42213   1.37370   0.30259
H     4.71288   1.99712   1.81338
H     3.39504  -0.46219   1.28489
H    -2.42477  -2.31099   0.42749
H    -4.86957  -2.11323   0.76164
H    -5.96310   0.13121   0.74139
H    -4.57517   2.17264   0.36063
H    -2.13431   1.96952   0.01175
H    -0.35159  -1.65194  -1.78168
H    -1.22376   1.23399  -2.38874
H    -0.81257   0.00357  -3.60721
H    -2.22240  -0.23555  -2.54668
H     1.25337   0.85229  -2.21456
H     1.89177  -1.30741  -3.32198
H     3.19680  -0.70627  -2.27193
H     2.15927  -2.05186  -1.72602
H     0.48475   0.57466   2.33933
H    -0.79048   1.72303   1.85422
H     0.91301   2.18724   1.69393
