29
Generated by autodE on: 2022-06-19. E = -800.069521 Ha
C    -5.27965  -0.80991   0.48098
N    -3.85926  -0.90457   0.21701
C    -2.97879   0.05565   0.56486
O    -3.27567   1.10306   1.15472
C    -1.58855  -0.23891   0.16962
O    -1.28766  -1.32054  -0.55507
C     0.11521  -1.34951  -0.79723
O     0.60484  -2.26966  -1.43804
C     0.60674  -0.17548  -0.17280
C     1.98825   0.29526  -0.19230
C     3.03207  -0.65557  -0.18777
C     4.36541  -0.25186  -0.24543
C     4.69213   1.10730  -0.30299
C     3.66771   2.05880  -0.31713
C     2.33046   1.66196  -0.27174
N    -0.48131   0.45436   0.41774
C    -0.40709   1.64028   1.27669
H    -5.61516  -1.63831   1.12446
H    -5.48512   0.13892   0.98956
H    -5.85578  -0.84406  -0.45692
H    -3.50948  -1.72427  -0.27007
H     2.78744  -1.71708  -0.13599
H     5.15651  -1.00559  -0.23750
H     5.73732   1.42221  -0.34341
H     3.90894   3.12272  -0.37824
H     1.55062   2.42146  -0.32635
H    -0.56356   2.54925   0.68188
H    -1.18407   1.56829   2.04071
H     0.58293   1.66583   1.74248
