41
Generated by autodE on: 2022-06-19. E = -957.351873 Ha. Imaginary frequency = -425.0 cm-1
C     4.98541   0.47073   1.32919
N     3.64837   0.01353   1.00406
C     2.73399   0.84270   0.48048
O     2.93299   2.04748   0.28368
C     1.43526   0.20173   0.09231
O     1.38056  -1.16940   0.22952
C     0.03698  -1.53784   0.20553
O    -0.28059  -2.71701   0.13628
C    -0.70195  -0.30554   0.32815
C    -2.15155  -0.21215   0.50081
C    -2.86305  -1.34165   0.96373
C    -4.24785  -1.30303   1.11720
C    -4.96210  -0.13962   0.81253
C    -4.27386   0.98313   0.34511
C    -2.88797   0.95053   0.18477
C     0.03214  -0.25132  -2.16882
C    -1.16714   0.53490  -2.59412
C     1.28222   0.33077  -1.89968
C     2.54393  -0.37550  -2.35616
N     0.22828   0.69063   0.54447
C    -0.04426   2.10610   0.72800
H     4.96253   1.24394   2.11313
H     5.57296  -0.38192   1.68943
H     5.48112   0.89893   0.44360
H     3.40471  -0.96395   1.12673
H    -2.31798  -2.25341   1.20320
H    -4.77265  -2.18882   1.48290
H    -6.04725  -0.11004   0.93474
H    -4.81984   1.89510   0.09255
H    -2.38890   1.83217  -0.20838
H     0.01711  -1.32106  -2.40625
H    -1.14225   1.56246  -2.20246
H    -1.19007   0.60808  -3.69925
H    -2.11753   0.06921  -2.29271
H     1.32143   1.42562  -1.97623
H     2.64469  -0.30112  -3.45154
H     3.45176   0.06584  -1.91800
H     2.51813  -1.44439  -2.09614
H     0.84328   2.58592   1.14934
H    -0.88183   2.22171   1.42464
H    -0.28992   2.59332  -0.22802
