45
Generated by autodE on: 2022-06-20. E = -943.516950 Ha
C     4.54215   2.16782  -0.47428
C     3.62854   1.48542   0.24544
C     3.68154   1.43355   1.74965
C     2.54061   0.77871  -0.44007
C     1.57986   0.05653   0.16342
C     0.46037  -0.60860  -0.56901
C    -0.93412  -0.14055  -0.05627
C    -1.09605   1.31409   0.25193
C    -1.32731   2.23214  -0.78169
C    -1.39959   3.59872  -0.50298
C    -1.23533   4.05944   0.80754
C    -1.00123   3.14604   1.83950
C    -0.92960   1.77785   1.56358
N    -1.22341  -1.08374   0.98722
C    -1.14930  -2.29008   0.13505
C    -1.58470  -3.58701   0.76953
C    -2.02347  -1.85763  -1.04668
O    -2.71699  -2.51818  -1.78552
O    -1.87978  -0.52318  -1.16010
C     0.33853  -2.17778  -0.39153
C     1.30446  -2.73757   0.65643
C     0.56678  -2.90501  -1.71785
H     5.36109   2.70903   0.00793
H     4.49139   2.20122  -1.56697
H     3.76997   0.39464   2.10861
H     4.53361   2.00821   2.13914
H     2.75573   1.84021   2.18986
H     2.52498   0.86698  -1.53284
H     1.57503  -0.03935   1.25169
H     0.53031  -0.35220  -1.63424
H    -1.45227   1.87472  -1.80487
H    -1.58325   4.30750  -1.31377
H    -1.29009   5.12898   1.02361
H    -0.87286   3.49818   2.86563
H    -0.74091   1.06676   2.36853
H    -2.16926  -0.94099   1.35126
H    -2.64365  -3.53277   1.06472
H    -0.98603  -3.81404   1.66110
H    -1.47496  -4.41270   0.05168
H     2.34160  -2.50057   0.37655
H     1.21561  -3.83255   0.71271
H     1.11858  -2.32304   1.65585
H    -0.05720  -2.50634  -2.53143
H     0.35607  -3.98155  -1.61880
H     1.61871  -2.79425  -2.02370
