22
Generated by autodE on: 2022-06-20. E = -591.964875 Ha
C     3.85435   0.70125  -0.37028
C     2.51664   0.09258  -0.15853
N     1.31997   0.78594  -0.24651
C     0.28519  -0.00857  -0.01076
C    -1.12545   0.30808  -0.00268
C    -2.06556  -0.72554   0.18755
C    -3.42917  -0.43831   0.19305
C    -3.87609   0.87488   0.01043
C    -2.94650   1.90561  -0.17536
C    -1.58114   1.63145  -0.18094
O     0.74276  -1.23443   0.23527
C     2.19195  -1.23159   0.15401
O     2.80552  -2.28056   0.35274
H     3.96968   1.11734  -1.38616
H     4.06277   1.51410   0.34679
H     4.62115  -0.07450  -0.23406
H     1.24263   1.77673  -0.47024
H    -1.71742  -1.74984   0.32684
H    -4.14919  -1.24651   0.33944
H    -4.94562   1.09613   0.01420
H    -3.28888   2.93338  -0.31437
H    -0.86986   2.44887  -0.31811
