45
Generated by autodE on: 2022-06-20. E = -943.466632 Ha. Imaginary frequency = -409.6 cm-1
C     3.12137   3.34774   0.41459
C     2.86720   2.05489   0.72038
C     3.30949   1.46240   2.03357
C     2.10147   1.22302  -0.19909
C     1.70640  -0.05659   0.02760
C     0.81681  -0.79217  -0.84559
C    -1.13449  -0.21375  -0.01926
C    -1.05148   1.20098   0.29604
C    -1.26678   2.15700  -0.71301
C    -1.05358   3.51123  -0.45572
C    -0.61706   3.93176   0.80571
C    -0.40117   2.98545   1.81299
C    -0.60708   1.62986   1.56130
N    -1.22872  -1.24435   0.88336
C    -1.29786  -2.40839   0.11490
C    -1.50045  -3.75460   0.71978
C    -1.97485  -1.99076  -1.09614
O    -2.51504  -2.60611  -1.99567
O    -1.85854  -0.60506  -1.13046
C     0.66400  -2.22218  -0.79816
C     1.44408  -2.98665   0.25170
C     0.56136  -2.95112  -2.11948
H     3.66926   4.00055   1.09978
H     2.78125   3.78190  -0.53046
H     3.92558   0.56113   1.87997
H     3.89252   2.18462   2.62242
H     2.43828   1.15054   2.63402
H     1.78347   1.70728  -1.12942
H     2.00909  -0.54137   0.95953
H     0.62037  -0.31994  -1.81328
H    -1.59044   1.83086  -1.70247
H    -1.22325   4.24365  -1.24827
H    -0.44405   4.99215   1.00196
H    -0.05420   3.30302   2.79869
H    -0.41487   0.90411   2.35369
H    -0.64536  -1.22912   1.71819
H    -2.54579  -3.88590   1.04627
H    -0.84711  -3.90309   1.59016
H    -1.27975  -4.53513  -0.02204
H     1.18607  -4.05469   0.24311
H     1.28193  -2.60130   1.26939
H     2.52606  -2.90883   0.04359
H     1.57556  -3.14986  -2.51070
H     0.05849  -3.92530  -2.01360
H     0.02393  -2.36467  -2.87847
