23
Generated by autodE on: 2022-10-06. E = -476.155218 Ha
C     3.59189   0.62700  -0.65937
N     2.22031   0.60520  -1.12313
C     1.18828   0.48280  -0.20894
O     1.36702   0.78877   0.99398
N     0.04444   0.01889  -0.76835
N    -1.04030   0.08090   0.07296
C    -1.45438   1.39302   0.60632
C    -1.78176  -0.97610   0.26851
C    -1.32992  -2.28359  -0.28364
C    -3.07749  -0.85733   1.00231
H     3.72463   1.41337   0.09654
H     4.25826   0.85021  -1.50425
H     3.91952  -0.32911  -0.20709
H     2.05398   0.12562  -2.00214
H    -0.67326   2.12325   0.38578
H    -2.39381   1.69976   0.12460
H    -1.60745   1.33560   1.69119
H    -0.25687  -2.43503  -0.09741
H    -1.46052  -2.29504  -1.38028
H    -1.91348  -3.10738   0.14603
H    -3.72338  -0.08443   0.55480
H    -3.61155  -1.81452   0.99086
H    -2.91031  -0.56468   2.05295
