10
Generated by autodE on: 2022-10-06. E = -455.046585 Ha
O    -2.05091  -0.59867   0.87562
C    -1.54642  -0.21290  -0.21077
O    -1.69923  -0.74391  -1.34095
C    -0.75872   1.08371  -0.16909
C     0.56434   1.23648   0.00994
C     1.56209   0.12135   0.21729
O     1.14251  -1.07018   0.21937
O     2.76575   0.47321   0.37869
H    -1.37305   1.98489  -0.30414
H     0.99244   2.24561   0.01608
