46
Generated by autodE on: 2022-06-19. E = -906.591944 Ha
C     1.92693  -1.47546   1.92693
C     0.81926  -0.46792   1.71828
O     0.21767  -0.04334   2.69433
C     0.39090  -0.12114   0.25980
C     1.59887  -0.10248  -0.66951
C     1.55702  -0.67816  -1.94629
C     2.65183  -0.58450  -2.81000
C     3.80845   0.09243  -2.41245
C     3.86021   0.67369  -1.14178
C     2.76529   0.57440  -0.27967
N    -0.61077  -1.12930  -0.11026
C    -0.29384  -2.54144  -0.05402
C    -1.99637  -0.72572   0.24989
C    -2.58436  -1.53344   1.41963
C    -2.89305  -0.92247  -0.98477
C    -1.80854   0.75534   0.67967
C    -2.94628   1.70769   0.47305
O    -4.12452   1.40703   0.41934
C    -0.43393   1.21877   0.13230
C    -0.54993   1.64430  -1.34327
C     0.15154   2.39935   0.91342
H     2.22484  -2.01072   1.01973
H     2.80933  -0.93455   2.30673
H     1.61182  -2.18377   2.70729
H     0.65273  -1.19469  -2.26708
H     2.59836  -1.04190  -3.80108
H     4.66459   0.16554  -3.08735
H     4.75725   1.20675  -0.81762
H     2.82665   1.03187   0.70998
H    -0.26928  -2.97264   0.96558
H     0.68253  -2.73084  -0.52013
H    -1.04137  -3.10749  -0.63084
H    -1.91451  -1.52835   2.29098
H    -2.77921  -2.57783   1.13334
H    -3.54228  -1.08377   1.72081
H    -3.95093  -0.76292  -0.74024
H    -2.62117  -0.23702  -1.79880
H    -2.78289  -1.95355  -1.35432
H    -1.70484   0.76435   1.77906
H    -2.65547   2.78493   0.44987
H    -1.31390   2.43124  -1.44308
H     0.39946   2.05998  -1.70882
H    -0.83013   0.81306  -2.00072
H     0.21985   2.20160   1.98936
H    -0.47649   3.29163   0.76738
H     1.15489   2.65008   0.53844
