32
Generated by autodE on: 2022-07-27. E = -635.879805 Ha
C     1.41918   0.78463   2.46105
C     0.26181  -0.04647   1.92692
O    -0.49370  -0.58943   2.78595
C     0.05631  -0.15459   0.53206
C     0.89561   0.33695  -0.56254
C     0.29120   0.70861  -1.78928
C     1.04643   1.16820  -2.86798
C     2.43709   1.28285  -2.76405
C     3.05675   0.90913  -1.56622
C     2.30593   0.43237  -0.49069
N    -1.10889  -0.88188   0.11444
C    -0.88567  -2.09912  -0.68381
C    -2.31808  -0.57312   0.51551
C    -2.58964   0.70763   1.20897
C    -3.45496  -1.50733   0.26395
H     1.73713   1.59039   1.78644
H     1.09676   1.21871   3.41937
H     2.29515   0.14768   2.66902
H    -0.79481   0.64328  -1.88850
H     0.54159   1.44847  -3.79639
H     3.02979   1.64704  -3.60634
H     4.14445   0.96882  -1.47282
H     2.82614   0.10080   0.40715
H    -0.97764  -2.98289  -0.03483
H     0.12767  -2.06582  -1.09390
H    -1.60960  -2.17300  -1.50494
H    -2.49398   0.54966   2.29792
H    -3.61366   1.04208   0.99268
H    -1.85361   1.47513   0.93025
H    -4.32238  -1.22220   0.87171
H    -3.18561  -2.55095   0.48167
H    -3.75292  -1.45947  -0.79840
