36
Generated by autodE on: 2022-10-21. E = -3415.338789 Ha
C     4.51542   1.64685  -0.84787
N     3.26029   0.93861  -0.98231
C     2.74821   0.13367  -0.04239
O     3.29385  -0.08854   1.04726
C     1.42063  -0.55430  -0.40344
C     1.68558  -2.06609  -0.46831
N     0.96473  -0.13820  -1.73446
C    -0.26548   0.20568  -1.72732
C    -0.99805   0.64277  -2.95027
C    -0.91534   0.20259  -0.36194
Br   -2.48964  -0.96823  -0.34194
C    -1.24155   1.65885   0.11182
C    -1.81621   1.60062   1.51531
C    -0.78139   1.30072   2.30776
C     0.41746   1.16604   1.38195
O     0.10148   2.10716   0.34168
C     0.25329  -0.20619   0.61215
O    -0.09607  -1.27270   1.44488
C     0.72813  -1.48826   2.58549
H     4.36333   2.73433  -0.93145
H     5.22832   1.33592  -1.62753
H     4.94601   1.42389   0.13552
H     2.73022   1.00926  -1.84712
H     2.11325  -2.44180   0.46869
H     0.75062  -2.60422  -0.67503
H     2.39785  -2.26856  -1.28154
H    -1.35454   1.67949  -2.83535
H    -1.88598   0.01332  -3.11492
H    -0.34370   0.58454  -3.82932
H    -1.75607   2.27825  -0.63005
H    -2.86875   1.71358   1.77035
H    -0.77672   1.10760   3.37964
H     1.40890   1.35235   1.80178
H     0.47256  -0.79524   3.40508
H     1.79602  -1.37382   2.35124
H     0.53507  -2.51513   2.92650
