19
Generated by autodE on: 2022-10-21. E = -419.542699 Ha
C     3.31881  -1.36154  -0.58920
C     2.32594  -0.84029   0.38045
N     1.40738  -0.06539   0.25968
C     0.33542   0.66303   0.22971
C     0.39888   2.14339   0.48990
C    -0.92243  -0.06812  -0.02871
O    -0.95310  -1.29940  -0.20522
N    -2.04897   0.68440  -0.06298
C    -3.34903   0.09034  -0.29339
H     4.32783  -1.06636  -0.25961
H     3.29841  -2.46239  -0.56837
H     3.14766  -1.00615  -1.61996
H    -0.00139   2.72064  -0.36076
H     1.43812   2.45856   0.65371
H    -0.18814   2.42165   1.38259
H    -1.99350   1.67956   0.11729
H    -4.10023   0.88804  -0.34732
H    -3.36688  -0.47527  -1.23857
H    -3.63138  -0.60371   0.51601
