17
Generated by autodE on: 2022-10-21. E = -2995.673361 Ha
C    -2.71543   0.47341   0.68161
O    -1.78661  -0.26862   1.47652
C    -0.57186  -0.51645   0.98504
C     0.12383  -0.23902  -0.13485
Br   -0.22804   0.80642  -1.66131
C     1.54433  -0.78681   0.15184
C     2.17412   0.09586   1.25609
C     1.47599  -0.18974   2.35920
C     0.44280  -1.24444   1.90231
O     1.20868  -1.95887   0.91805
H    -3.64326   0.52648   1.26460
H    -2.90932  -0.03965  -0.27245
H    -2.34238   1.49039   0.48976
H     2.15697  -1.02173  -0.72552
H     2.97199   0.82158   1.10195
H     1.53776   0.23635   3.35972
H     0.00153  -1.89955   2.66155
