20
Generated by autodE on: 2022-06-01. E = -644.914178 Ha
N     4.39871  -1.34631   0.97304
C     3.38870  -0.89718   0.59183
C     2.19633  -0.34552   0.11757
N     0.92249  -0.64278   0.61770
C     0.00801   0.03982  -0.04168
C    -1.43023   0.04186   0.13521
C    -2.04502  -0.73318   1.13895
C    -3.42973  -0.70893   1.28066
C    -4.21272   0.08169   0.43094
C    -3.60553   0.85249  -0.56589
C    -2.22081   0.83686  -0.71762
O     0.59502   0.78988  -0.96965
C     2.02830   0.59188  -0.92684
O     2.74514   1.19201  -1.69994
H     0.73371  -1.29455   1.37825
H    -1.44929  -1.35320   1.81129
H    -3.90201  -1.31026   2.05998
H    -5.29857   0.09644   0.54766
H    -4.21459   1.46963  -1.22948
H    -1.74402   1.43602  -1.49398
