37
Generated by autodE on: 2022-06-01. E = -3950.957244 Ha. Imaginary frequency = -486.2 cm-1
N    -1.90755  -2.24007   3.65363
C    -1.14247  -1.64931   3.00363
C    -0.26824  -0.90790   2.18490
N     0.69946  -1.45069   1.36262
C     1.15066  -0.40969   0.59062
C     2.29873  -0.51952  -0.31735
C     3.16019   0.57225  -0.50513
C     4.22246   0.47244  -1.40504
C     4.42955  -0.70934  -2.12240
C     3.57004  -1.79824  -1.93701
C     2.50501  -1.70625  -1.04194
O     1.07441   0.71164   1.40423
C     0.15487   0.46700   2.41721
O    -0.15635   1.30252   3.22845
C    -0.53976   0.00728  -0.54826
Br   -0.09294   1.74145  -1.27231
C    -0.83092  -1.09277  -1.58246
C    -2.10852  -0.66313  -2.36195
C    -3.23350  -0.77747  -1.29241
C    -2.46752  -1.28288  -0.02745
C    -1.43546  -2.20599  -0.70077
C    -1.60612  -0.10522   0.40601
Cl   -2.43607   1.27145   1.08554
H     0.68491  -2.41197   1.03568
H     2.99856   1.49172   0.05673
H     4.89238   1.32357  -1.54508
H     5.26113  -0.78356  -2.82682
H     3.72801  -2.72362  -2.49490
H     1.83356  -2.55715  -0.91215
H     0.02544  -1.35786  -2.21316
H    -2.27433  -1.36102  -3.19508
H    -2.01638   0.34683  -2.78134
H    -3.98779  -1.52650  -1.57354
H    -3.75186   0.17226  -1.10638
H    -3.10083  -1.70696   0.76098
H    -0.74810  -2.71231  -0.02180
H    -1.92451  -2.97937  -1.30981
