20
Generated by autodE on: 2022-06-18. E = -457.715330 Ha
C    -3.06436  -0.83294   0.09830
N    -1.82349  -0.07722   0.14445
C    -1.86924   1.32181   0.19243
C    -0.76540   2.08467   0.15232
C     0.62780   1.51448   0.04922
C     0.57610  -0.00263  -0.02813
C     1.80384  -0.80416  -0.15437
N     2.96820  -0.10866  -0.19428
O     1.80835  -2.04999  -0.22620
C    -0.60703  -0.67776   0.01845
H    -2.84174  -1.90349   0.18960
H    -3.60501  -0.66542  -0.84876
H    -3.72500  -0.54147   0.92937
H    -2.87229   1.74568   0.26822
H    -0.88177   3.16984   0.19982
H     1.14647   1.93845  -0.83486
H     1.24075   1.84652   0.91261
H     3.83829  -0.62307  -0.27615
H     3.00637   0.90027  -0.12649
H    -0.61523  -1.76726  -0.04164
