19
Generated by autodE on: 2022-06-18. E = -605.942313 Ha
C    -3.55472  -0.87293  -0.48938
N    -2.25476  -0.38034  -0.08543
C    -2.08513   0.48078   0.92834
O    -2.97402   0.96433   1.63949
C    -0.68592   0.90291   1.23646
O     0.39304   0.57296   0.66371
N     0.43410  -0.29802  -0.40059
C     1.73134  -0.44936  -0.82130
O     1.98418  -1.19305  -1.76031
O     2.66236   0.25324  -0.15412
C     4.01270   0.09282  -0.60334
H    -4.32450  -0.44099   0.16009
H    -3.76530  -0.59429  -1.53369
H    -3.59098  -1.97068  -0.41202
H    -1.40246  -0.67837  -0.57263
H    -0.54408   1.60051   2.06707
H     4.62306   0.73536   0.04257
H     4.11480   0.40773  -1.65225
H     4.33479  -0.95431  -0.50502
