39
Generated by autodE on: 2022-06-18. E = -1063.659173 Ha. Imaginary frequency = -284.4 cm-1
C     2.66205   1.75030  -2.51155
N     1.93056   1.53067  -1.27972
C     2.36666   0.64847  -0.36561
O     3.46182   0.07191  -0.42369
C     1.49079   0.36381   0.81507
O     0.36573   0.99021   1.11172
N    -0.44896   1.18309   0.02030
C    -1.71768   1.53290   0.39784
O    -2.59940   1.61495  -0.45464
O    -1.91676   1.75816   1.70213
C    -3.26074   2.06578   2.09405
C    -0.32923  -1.14280  -0.61663
C     0.12654  -0.83087  -2.00935
N    -0.71017  -0.07924  -2.75117
O     1.19256  -1.28097  -2.44889
C    -1.78425  -1.45215  -0.35477
C    -2.03590  -1.57167   1.12625
C    -1.04189  -1.92113   1.95700
N     0.26331  -2.15120   1.50248
C     1.29077  -2.47799   2.47825
C     0.64405  -1.58543   0.29465
H     3.69740   2.05623  -2.30166
H     2.16643   2.54468  -3.08273
H     2.69123   0.83334  -3.12276
H     0.94166   1.78070  -1.21987
H     2.04277   0.08085   1.71415
H    -3.22614   2.23886   3.17610
H    -3.92971   1.22258   1.86796
H    -3.61997   2.96778   1.57804
H    -0.39165   0.21448  -3.66998
H    -1.44641   0.46209  -2.30437
H    -2.01658  -2.40414  -0.87924
H    -2.45131  -0.70586  -0.80781
H    -3.03562  -1.38497   1.52072
H    -1.18718  -2.04938   3.03151
H     2.19663  -2.81507   1.95722
H     1.55241  -1.61103   3.11180
H     0.94024  -3.29006   3.12990
H     1.62964  -1.86452  -0.08164
