40
Generated by autodE on: 2022-05-27. E = -1055.633973 Ha
C     4.06446   1.34759   1.26859
N     2.93347   1.04028   0.41642
C     2.18212  -0.05521   0.60846
O     2.39653  -0.86463   1.51540
C     1.05581  -0.25004  -0.41832
O     0.87244   0.94623  -1.18939
N    -0.09321   1.75937  -0.52508
C    -1.13115   0.82574  -0.09930
C    -2.24667   0.71546  -1.16295
C    -2.20433   1.67430  -2.31394
O    -3.14122  -0.09623  -1.02028
C    -1.74047   1.34445   1.23673
C    -2.95535   0.67140   1.79528
O    -1.20468   2.28789   1.78214
C    -0.36798  -0.52912   0.19072
F    -0.34053  -0.69871   1.57351
C    -0.80216  -1.81933  -0.51610
C     0.06929  -2.97591   0.03331
C     1.45395  -2.74632  -0.63888
C     1.24829  -1.42680  -1.40575
C    -0.19492  -1.61212  -1.91741
H     4.48704   2.31275   0.96478
H     4.84686   0.57542   1.19004
H     3.75624   1.40937   2.32374
H     2.70627   1.63845  -0.37152
H     0.35526   2.12584   0.32236
H    -3.04411   1.46703  -2.98918
H    -1.24696   1.59720  -2.84940
H    -2.26685   2.70545  -1.93184
H    -3.84383   1.05563   1.26825
H    -2.93184  -0.41535   1.65069
H    -3.03930   0.92430   2.86026
H    -1.87965  -1.99746  -0.46329
H     0.12383  -2.95943   1.12900
H    -0.37276  -3.93598  -0.26674
H     1.67596  -3.53967  -1.36701
H     2.27876  -2.70478   0.07968
H     2.01979  -1.20039  -2.15290
H    -0.58146  -0.74739  -2.47051
H    -0.30186  -2.50532  -2.54868
