16
Generated by autodE on: 2022-05-27. E = -475.327498 Ha
C    -1.64872  -1.54174  -1.09499
C    -1.43692  -0.26791  -0.33610
O    -2.38534   0.46286  -0.05676
C    -0.06402   0.17072   0.06478
N    -0.09200   1.38232   0.61913
O     0.82137   2.08675   1.06653
C     1.23825  -0.53772  -0.08202
C     1.26090  -2.03782  -0.20053
O     2.28130   0.10263  -0.06952
H    -2.68434  -1.56249  -1.45651
H    -0.95021  -1.62449  -1.93972
H    -1.48231  -2.40839  -0.43723
H    -1.07205   1.74398   0.68099
H     0.54100  -2.51585   0.47784
H     1.01184  -2.34143  -1.22908
H     2.27959  -2.38058   0.02322
