16
Generated by autodE on: 2022-07-26. E = -475.331095 Ha
C    -0.30345  -0.09949  -2.49108
C    -0.69125  -0.40401  -1.07189
O    -1.69639  -1.05858  -0.81955
C     0.15642   0.09627   0.03894
N     1.26893   0.79730  -0.15663
O     1.81845   1.16996  -1.20321
C    -0.10631  -0.10830   1.50123
C    -1.30791  -0.87072   1.96211
O     0.69163   0.36957   2.30431
H    -1.05465  -0.54201  -3.15794
H     0.69494  -0.50606  -2.71423
H    -0.23885   0.98759  -2.65143
H     1.71803   1.05157   0.75396
H    -2.22793  -0.40088   1.58459
H    -1.29107  -1.89289   1.55636
H    -1.30875  -0.89251   3.05946
