40
Generated by autodE on: 2022-05-27. E = -1055.577125 Ha. Imaginary frequency = -357.3 cm-1
C     4.46368   0.74642   0.98075
N     3.39427   0.08684   0.25805
C     2.10129   0.27145   0.58995
O     1.75933   0.99951   1.53838
C     1.08374  -0.40042  -0.25223
O     0.61024   1.42948  -1.10434
N    -0.25808   1.84696  -0.26013
C    -1.36144   1.08300  -0.03109
C    -2.24422   0.67604  -1.16971
C    -2.11964   1.43715  -2.46353
O    -3.10208  -0.18100  -1.01393
C    -1.94012   1.31869   1.34147
C    -3.15373   0.55661   1.77451
O    -1.37183   2.10794   2.08392
C    -0.16737  -0.81038   0.27573
F    -0.36758  -0.89221   1.61757
C    -0.64457  -1.97960  -0.55663
C     0.30971  -3.16053  -0.19062
C     1.67036  -2.71765  -0.80306
C     1.34007  -1.32294  -1.42883
C    -0.09180  -1.57876  -1.93709
H     4.41983   1.84092   0.85598
H     5.42607   0.38593   0.59797
H     4.40532   0.52782   2.05822
H     3.62782  -0.50078  -0.53431
H     0.11568   2.31468   0.58079
H    -2.67124   0.90767  -3.25056
H    -1.07550   1.59635  -2.75685
H    -2.57568   2.43083  -2.30969
H    -4.01457   0.81477   1.13972
H    -2.98702  -0.52428   1.66496
H    -3.36955   0.80464   2.82163
H    -1.71472  -2.19880  -0.47624
H     0.35703  -3.31781   0.89579
H    -0.06096  -4.08707  -0.65142
H     1.99776  -3.40468  -1.59679
H     2.47549  -2.65565  -0.05849
H     2.07352  -0.95670  -2.15835
H    -0.55672  -0.69215  -2.37954
H    -0.13748  -2.40721  -2.65762
