21
Generated by autodE on: 2022-10-06. E = -424.561377 Ha
C     1.89430   1.37065  -0.77619
C     1.79139   0.10288   0.06329
O     2.84678  -0.43271   0.49913
C     0.51014  -0.43428   0.32387
C     0.27398  -1.65304   1.15305
O    -0.49741   0.30766  -0.22847
C    -1.77337   0.24201  -0.28884
C    -2.42323   1.34054  -1.04853
C    -2.58650  -0.85069   0.31145
H     2.95630   1.63054  -0.88227
H     1.45633   1.23401  -1.77755
H     1.36455   2.21355  -0.30442
H     1.26700  -2.04148   1.41644
H    -0.26807  -2.45201   0.62365
H    -0.26110  -1.44549   2.09486
H    -3.13340   1.88116  -0.39785
H    -3.02037   0.92260  -1.87862
H    -1.68011   2.04337  -1.44663
H    -2.37640  -1.81062  -0.18800
H    -2.37995  -0.97639   1.38342
H    -3.65161  -0.62124   0.18145
