10
Generated by autodE on: 2022-10-06. E = -455.051713 Ha
O    -2.69381   1.24466   0.15450
C    -1.94762   0.27643  -0.16220
O    -2.32528  -0.80379  -0.69406
C    -0.47276   0.45521   0.13467
C     0.47275  -0.45524  -0.13468
C     1.94762  -0.27642   0.16219
O     2.69384  -1.24462  -0.15454
O     2.32525   0.80377   0.69412
H    -0.18380   1.40304   0.60135
H     0.18384  -1.40308  -0.60137
