62
Generated by autodE on: 2022-07-02. E = -6806.885239 Ha
C    -9.60185  -0.39062  -4.81072
N    -8.69770  -0.64292  -3.70365
C    -9.12914  -0.61376  -2.43931
O   -10.26645  -0.28566  -2.11111
C    -8.06201  -0.87667  -1.31800
C    -6.80498  -1.47985  -1.85020
N    -5.75737  -1.77763  -2.25086
C    -8.61724  -1.64271  -0.08181
C    -8.48791  -0.83303   1.01057
C    -8.75452  -1.10325   2.48339
Br   -9.30110   0.55800   3.48280
Br   -7.02535  -1.64527   3.35626
C    -9.80148  -2.12913   2.85674
C   -11.17297  -1.84725   2.21870
C   -11.56784  -2.92944   1.22686
C   -10.81522  -2.95731  -0.10449
C    -9.24053  -3.06914  -0.19551
C    -8.54473  -4.08442   0.73253
C    -9.22147  -5.21800   1.21271
C    -8.55161  -6.17939   1.96997
C    -7.18557  -6.04130   2.23735
C    -6.49630  -4.93971   1.72956
C    -7.17085  -3.97266   0.98047
C    -9.03939  -3.74535  -1.59606
F    -9.55765  -4.98622  -1.59909
F    -7.75028  -3.88264  -1.94204
F    -9.65062  -3.09558  -2.60324
C    -7.95650   0.55273   0.62096
C    -9.11242   1.62472   0.69379
C    -8.78689   3.07399   0.91365
O   -10.24177   1.26317   0.42563
C    -6.62183   0.91523   1.35108
C    -5.40330   0.16282   0.88055
O    -6.55502   1.79108   2.18614
N    -7.65784   0.39643  -0.77941
C    -7.25999   1.48548  -1.64258
H   -10.11203   0.57510  -4.68075
H    -9.02427  -0.36892  -5.74247
H   -10.36836  -1.17969  -4.88066
H    -7.75478  -0.95854  -3.90783
H    -9.43033  -3.11594   2.56294
H    -9.86538  -2.15249   3.95146
H   -11.93064  -1.79381   3.01396
H   -11.17831  -0.86393   1.72339
H   -11.51604  -3.90721   1.72844
H   -12.62656  -2.79152   0.95285
H   -11.07424  -2.05376  -0.67122
H   -11.23556  -3.80124  -0.66618
H   -10.27716  -5.36438   0.99292
H    -9.10067  -7.04594   2.34524
H    -6.66183  -6.79469   2.83027
H    -5.42733  -4.82202   1.91994
H    -6.61049  -3.12432   0.58787
H    -9.66057   3.67659   0.63266
H    -8.54029   3.23702   1.97163
H    -7.90480   3.38424   0.33709
H    -4.63305   0.20804   1.66106
H    -5.01329   0.65378  -0.02625
H    -5.62484  -0.87917   0.61955
H    -6.64003   2.19852  -1.08161
H    -6.63718   1.10055  -2.46349
H    -8.11503   2.03460  -2.07821
