29
Generated by autodE on: 2022-07-27. E = -779.153131 Ha
C    -2.78366  -0.83159  -2.85057
N    -1.38809  -0.84800  -2.45624
C    -1.01778  -0.58796  -1.18861
O    -1.82906  -0.27597  -0.31015
C     0.44121  -0.74988  -0.89492
C     1.25099  -1.43703  -1.83043
N     1.87588  -1.99262  -2.64488
N     0.95178  -0.45719   0.32519
C     2.14157  -1.21899   0.76929
C     0.42098   0.52692   1.09121
C    -0.19563   1.71492   0.45415
C     0.29496   2.18245  -0.90187
O    -1.01015   2.39998   1.06356
C     0.47247   0.38345   2.56739
C     0.26355   1.58906   3.44358
O     0.67781  -0.72107   3.06783
H    -3.32452  -1.71634  -2.47579
H    -3.27879   0.06552  -2.45265
H    -2.84147  -0.82009  -3.94562
H    -0.69798  -1.15244  -3.13592
H     1.84961  -2.24078   1.03933
H     2.84885  -1.24776  -0.06936
H     2.61210  -0.71195   1.61252
H    -0.50203   2.07122  -1.65268
H     1.19808   1.67624  -1.26422
H     0.49375   3.26001  -0.79947
H    -0.81126   1.81512   3.50954
H     0.75970   2.48448   3.04440
H     0.64240   1.35098   4.44655
