29
Generated by autodE on: 2022-07-02. E = -779.152413 Ha
C     3.43178   1.97370   0.78099
N     2.75294   0.90589   0.07102
C     1.41945   0.90598  -0.06996
O     0.68976   1.81053   0.33349
C     0.85588  -0.24586  -0.86725
C     1.67756  -0.84160  -1.85947
N     2.39748  -1.30686  -2.64961
N    -0.43868  -0.55738  -0.82686
C    -1.00810  -1.31569  -1.96139
C    -1.20908  -0.34869   0.30470
C    -2.59470   0.09920   0.15945
C    -2.99519   0.81614  -1.11769
O    -3.42290   0.00185   1.06886
C    -0.57046  -0.65359   1.58880
C    -1.42292  -0.79083   2.82569
O     0.64722  -0.85232   1.67264
H     4.51334   1.80632   0.71957
H     3.19370   2.95044   0.33421
H     3.13175   1.99932   1.84104
H     3.28907   0.09699  -0.22895
H    -0.92309  -0.72943  -2.88453
H    -0.44830  -2.25581  -2.06539
H    -2.04932  -1.56451  -1.74597
H    -2.14662   1.18779  -1.70532
H    -3.60080   0.14597  -1.74818
H    -3.63776   1.66104  -0.83098
H    -1.87909   0.17895   3.07623
H    -2.24827  -1.49931   2.67879
H    -0.77346  -1.11831   3.64800
