33
Generated by autodE on: 2022-07-02. E = -6027.672310 Ha
F    -2.79335   1.65999   1.69788
C    -1.56986   1.58862   2.24869
F    -0.91757   2.71258   1.90486
F    -1.72722   1.61122   3.58156
C    -0.81735   0.32450   1.79046
C    -1.66345  -0.90746   2.15052
C    -2.54603  -1.45506   1.20911
C    -3.34971  -2.54904   1.53769
C    -3.28189  -3.11010   2.81583
C    -2.40723  -2.56711   3.76094
C    -1.60384  -1.47193   3.43251
C    -0.55343   0.38854   0.35157
C     0.06736   0.24926  -0.67962
C     1.19002  -0.09350  -1.50436
Br    0.61371  -1.06127  -3.14702
Br    2.11684   1.58279  -2.07690
C     2.14934  -0.98044  -0.69088
C     2.50582  -0.46543   0.71886
C     1.55131  -0.79685   1.89986
C     0.61278   0.31084   2.42346
H    -2.60461  -1.02524   0.20725
H    -4.02931  -2.96395   0.78978
H    -3.90688  -3.96811   3.07407
H    -2.34543  -2.99750   4.76309
H    -0.93126  -1.06411   4.18706
H     1.66718  -1.96745  -0.60602
H     3.06284  -1.11763  -1.28767
H     2.70197   0.61879   0.68192
H     3.47611  -0.92968   0.95112
H     0.96947  -1.70484   1.67070
H     2.19191  -1.07088   2.75112
H     1.06696   1.29551   2.24015
H     0.49864   0.21888   3.51153
