37
Generated by autodE on: 2022-05-29. E = -1063.237634 Ha
C     3.19696   0.48830  -3.09210
O     2.77903   0.31384  -1.72171
C     1.62267   0.84326  -1.37937
O     0.90155   1.51178  -2.07621
C     1.21039   0.42620   0.06127
C     2.39343   0.18738   0.89236
N     3.31545   0.01652   1.57251
N     0.42981   1.52890   0.61362
C    -0.80157   1.21283   0.68122
C    -1.86408   2.19405   1.12075
C    -1.42332   3.55592   1.54635
O    -3.02446   1.82588   1.09280
C    -1.17408  -0.22158   0.32514
C    -2.13205  -0.25919  -0.77363
N    -2.87955  -0.30985  -1.65892
C    -1.61811  -1.03782   1.59022
C    -1.93304  -2.48261   1.15829
C    -0.52496  -3.08268   0.87570
C     0.42844  -1.89783   1.13656
C    -0.27393  -1.20314   2.31554
C     0.25111  -0.85532  -0.01530
C     0.33677  -1.48329  -1.32870
N     0.42210  -1.98080  -2.37266
H     3.28375   1.55809  -3.32484
H     2.46518   0.01287  -3.75994
H     4.17078  -0.00618  -3.16992
H    -2.29627   4.15045   1.84218
H    -0.71260   3.47535   2.38389
H    -0.88897   4.04864   0.71890
H    -2.42272  -0.52862   2.13061
H    -2.60058  -2.52396   0.28647
H    -2.43529  -3.00540   1.98349
H    -0.42639  -3.49796  -0.13590
H    -0.28439  -3.88622   1.58485
H     1.47713  -2.18424   1.27145
H    -0.35746  -1.87124   3.18356
H     0.18789  -0.26448   2.64728
