18
Generated by autodE on: 2022-05-29. E = -605.732115 Ha
C    -3.70292   1.56239   0.24289
O    -2.81991   0.46160  -0.01928
C    -1.51047   0.69993   0.11015
O    -1.02794   1.77144   0.42903
C    -0.71692  -0.50017  -0.18277
C    -1.28869  -1.74021  -0.54887
N    -1.76956  -2.75934  -0.85017
N     0.59884  -0.38571  -0.08982
C     1.74615  -0.18593   0.01705
C     3.18389  -0.02897   0.16650
C     3.64386   1.33611   0.56436
O     3.89066  -1.00016  -0.04563
H    -3.58014   1.91557   1.27691
H    -4.71716   1.17546   0.09237
H    -3.50397   2.38925  -0.45408
H     4.72665   1.31189   0.74494
H     3.10718   1.67156   1.46622
H     3.41169   2.04918  -0.24434
