18
Generated by autodE on: 2022-07-26. E = -605.732113 Ha
C     2.65202  -0.96832  -2.86597
O     2.19865  -1.02753  -1.50555
C     1.06705  -0.37367  -1.22259
O     0.40861   0.25624  -2.03028
C     0.71103  -0.50875   0.19535
C     1.48312  -1.24200   1.12516
N     2.12708  -1.84950   1.88468
N    -0.39592   0.09836   0.59427
C    -1.38640   0.66646   0.84678
C    -2.60216   1.36119   1.23860
C    -3.31573   2.07453   0.13593
O    -2.94396   1.30478   2.40800
H     2.84830   0.07267  -3.16063
H     1.90195  -1.40591  -3.54049
H     3.57837  -1.55297  -2.89887
H    -4.15764   2.63866   0.55842
H    -3.68434   1.33681  -0.59634
H    -2.62290   2.74841  -0.39294
