19
Generated by autodE on: 2022-05-29. E = -457.432005 Ha
N     2.35605   1.74441  -1.35681
C     1.42880   1.13077  -1.01053
C     0.28261   0.39876  -0.61497
C     0.25545  -0.72670   0.15175
C     1.36734  -1.39966   0.71479
N     2.26513  -1.97635   1.18132
C    -1.20515  -1.03244   0.44979
C    -1.65903   0.08501   1.44610
C    -1.62849   1.36855   0.57179
C    -1.16003   0.83593  -0.82261
C    -1.85384  -0.54141  -0.86097
H    -1.40595  -2.05803   0.77725
H    -2.67563  -0.13929   1.79908
H    -0.99827   0.14048   2.32184
H    -0.95101   2.14148   0.95936
H    -2.62922   1.81172   0.46931
H    -1.31969   1.52253  -1.66075
H    -1.57137  -1.14400  -1.73590
H    -2.94853  -0.46738  -0.79114
