14
Generated by autodE on: 2022-10-21. E = -361.925279 Ha
C     2.85550   0.70234   0.39834
O     1.59617   0.49464   0.24684
C     0.93800  -0.61637  -0.04644
C    -0.49713  -0.56261  -0.16049
O    -1.14284  -1.59693  -0.44264
N    -1.10133   0.64248   0.05195
C    -2.52747   0.84550  -0.05344
H     3.56002  -0.12656   0.28206
H     3.13532   1.72662   0.64054
H     1.50114  -1.53882  -0.19683
H    -0.51330   1.44042   0.26497
H    -3.00496  -0.11977  -0.26024
H    -2.78326   1.54170  -0.87035
H    -2.94858   1.25003   0.88185
