14
Generated by autodE on: 2022-10-26. E = -361.919069 Ha
C     1.47030   1.88633  -0.59864
O     1.82416   0.70162  -0.24404
C     1.22618  -0.40778   0.16773
C    -0.18887  -0.66090   0.29642
O    -0.57700  -1.68380   0.89925
N    -1.08664   0.22195  -0.24429
C    -2.50278  -0.09453  -0.23168
H     0.42955   2.21038  -0.57865
H     2.29731   2.55241  -0.84541
H     1.93430  -1.18373   0.45065
H    -0.76883   0.82177  -0.99902
H    -3.06185   0.76185  -0.63030
H    -2.74363  -0.98681  -0.83619
H    -2.84048  -0.28648   0.79659
