29
Generated by autodE on: 2022-10-21. E = -633.577705 Ha
C    -0.46299  -3.30178   0.75508
O    -1.21465  -2.09574   0.77323
C    -0.85380  -1.15521  -0.20511
O    -0.96324  -1.69269  -1.50819
C    -2.27477  -2.05068  -1.92964
C     0.54344  -0.66526  -0.07856
C     1.33983   0.24642  -0.00402
C     1.75296   1.64499   0.14979
C     2.91791   1.80928   1.02693
N     3.82602   1.95657   1.73369
C     0.51098   2.40215   0.71986
C    -0.69674   2.52621  -0.22497
C    -1.35753   1.28931  -0.87694
C    -1.73310   0.09899   0.03065
H    -0.78144  -3.89084   1.62556
H     0.61941  -3.09469   0.83524
H    -0.64392  -3.88276  -0.16341
H    -2.15593  -2.69429  -2.81230
H    -2.81318  -2.61227  -1.14997
H    -2.86835  -1.16579  -2.21388
H     2.02856   2.06748  -0.83298
H     0.22563   1.89677   1.65519
H     0.83321   3.41997   0.99000
H    -1.46646   3.05628   0.36156
H    -0.42193   3.21152  -1.04471
H    -0.72855   0.92334  -1.70259
H    -2.27401   1.66048  -1.36211
H    -2.78151  -0.19824  -0.11692
H    -1.62923   0.35490   1.09523
