43
Generated by autodE on: 2022-10-21. E = -995.519527 Ha. Imaginary frequency = -102.6 cm-1
C    -2.77892  -0.42566   1.45546
N    -1.45727   0.14266   1.64927
C    -0.50460  -0.60079   2.28594
O    -0.78680  -1.70405   2.80183
C     0.86338  -0.12238   2.39839
O     1.34131   1.09351   2.17543
C     0.90218   2.11526   1.52301
C     0.80981   0.54483  -0.71938
C     1.19272  -0.53507  -0.28967
C     1.36989  -1.99363  -0.35348
C     1.92398  -2.61396   0.85492
N     2.36558  -3.15895   1.77881
C     0.01809  -2.66070  -0.74115
C    -0.56210  -2.21861  -2.09297
C    -1.34482  -0.88590  -2.18730
C    -0.59659   0.35701  -2.70057
C    -0.07388   1.32764  -1.62343
O     0.55821   2.36609  -2.32564
C     1.22206   3.35043  -1.54628
O    -1.10777   1.83136  -0.78415
C    -2.22303   2.44537  -1.41898
H    -3.40134   0.31135   0.93105
H    -2.75490  -1.35346   0.85789
H    -3.24848  -0.66112   2.42153
H    -1.16933   0.77112   0.89972
H     1.55916  -0.73521   2.96561
H    -0.13952   2.22589   1.23805
H     1.60251   2.94973   1.48735
H     2.09657  -2.20731  -1.15855
H    -0.70370  -2.48600   0.07110
H     0.20509  -3.74524  -0.77645
H     0.23695  -2.23474  -2.85456
H    -1.25966  -3.02048  -2.38148
H    -2.17548  -1.05856  -2.88810
H    -1.82282  -0.66241  -1.22105
H    -1.24794   0.94715  -3.36228
H     0.27378   0.06488  -3.30663
H     0.53500   3.84545  -0.84151
H     1.61162   4.09811  -2.25065
H     2.06405   2.91324  -0.98421
H    -2.89896   1.70004  -1.86844
H    -1.89808   3.15916  -2.19169
H    -2.76515   2.99042  -0.63433
