52
Generated by autodE on: 2022-06-24. E = -1467.190218 Ha
C     0.06320  -3.08771   2.06603
N    -0.59705  -2.16737   1.15799
C    -0.55368  -0.84870   1.35227
O    -0.07902  -0.32525   2.36482
C    -1.09083   0.03925   0.20259
C    -2.24497   0.89770   0.70805
C    -2.07080   1.77293   1.79271
C    -3.12999   2.56772   2.23373
C    -4.37554   2.50184   1.60111
C    -4.55132   1.63632   0.51953
C    -3.49281   0.83878   0.07405
O    -1.57819  -0.82591  -0.84273
C    -0.83588  -0.71677  -2.03746
C    -1.55768   0.14484  -3.01644
N    -2.16088   0.75630  -3.79379
C    -0.83636  -2.04896  -2.69610
N    -1.05705  -3.02952  -3.27410
C     0.54591  -0.11554  -1.60834
C     1.32615   0.52051  -2.76405
C     1.43212  -1.26148  -1.07760
O     1.42883  -2.34846  -1.64101
C     2.32890  -1.00495   0.04194
O     3.20694  -1.95343   0.43106
C     4.02532  -2.61759  -0.54372
C     2.21588   0.11635   0.82894
O     3.06857   0.23557   1.84295
C     2.83969   1.09373   2.97344
C     1.24386   1.18197   0.49544
O     1.37828   2.30136   0.95772
C     0.09274   0.86825  -0.47863
C    -0.40995   2.21124  -1.02011
H     1.15728  -2.97136   2.00134
H    -0.20560  -4.11384   1.78925
H    -0.24700  -2.89932   3.10331
H    -0.98325  -2.51094   0.28385
H    -1.10305   1.84145   2.28551
H    -2.97722   3.24662   3.07585
H    -5.20284   3.12502   1.94861
H    -5.51803   1.57712   0.01411
H    -3.63829   0.16936  -0.77245
H     2.25269   0.97043  -2.38134
H     1.59058  -0.25486  -3.49715
H     0.74292   1.29787  -3.27252
H     4.94793  -2.90342  -0.02031
H     4.27474  -1.94040  -1.37407
H     3.52687  -3.51450  -0.93346
H     3.48832   0.69782   3.76543
H     3.12052   2.12848   2.74252
H     1.79192   1.04539   3.29401
H     0.38391   2.71112  -1.58865
H    -1.29055   2.09964  -1.65984
H    -0.68616   2.86529  -0.18817
