26
Generated by autodE on: 2022-06-24. E = -777.666652 Ha
C     0.11381   2.83468  -0.61413
N     0.64777   2.33777   0.64226
C     0.72492   1.05784   1.00471
O     1.33081   0.61293   1.98043
C    -0.03824   0.02576   0.19090
O     0.59241  -0.77325  -0.59238
C     1.89167  -0.76986  -1.03545
C     2.24182  -1.89282  -1.79693
N     2.55449  -2.82660  -2.42988
C     2.76088   0.30659  -0.83499
N     3.49782   1.20579  -0.69195
C    -1.43378  -0.24290   0.42869
C    -2.17359   0.59725   1.29219
C    -3.52353   0.34609   1.51784
C    -4.15127  -0.73526   0.88965
C    -3.42493  -1.57190   0.02957
C    -2.07721  -1.33282  -0.20450
H    -0.44469   2.04219  -1.12930
H    -0.56767   3.67766  -0.43281
H     0.93036   3.16691  -1.27380
H     1.18105   2.98528   1.22231
H    -1.69232   1.44530   1.78076
H    -4.09058   0.99733   2.18562
H    -5.21144  -0.92787   1.06813
H    -3.91891  -2.41364  -0.45974
H    -1.50993  -1.97900  -0.87513
