26
Generated by autodE on: 2022-06-24. E = -689.460851 Ha
C     2.89269  -1.29388  -1.21861
O     1.62431  -1.68181  -0.68048
C     0.69014  -0.79784  -0.33080
C     0.69543   0.55902  -0.45967
O     1.71511   1.24754  -1.05185
C     2.54161   2.02021  -0.17499
C    -0.47496   1.35403  -0.02953
O    -0.47576   2.57172  -0.20205
C    -1.64742   0.67155   0.59614
C    -2.78882   1.52704   1.04678
C    -1.66625  -0.67840   0.72381
C    -2.82819  -1.40656   1.32544
C    -0.50779  -1.48769   0.26598
O    -0.49438  -2.70642   0.37199
H     3.43818  -2.23286  -1.37676
H     3.44520  -0.66354  -0.50723
H     2.77248  -0.76674  -2.17372
H     3.30454   2.49771  -0.80408
H     3.03487   1.37017   0.56681
H     1.96006   2.79530   0.34537
H    -3.71468   1.25267   0.51402
H    -2.98885   1.37532   2.12027
H    -2.58207   2.58890   0.86977
H    -3.75531  -1.18823   0.77059
H    -2.99807  -1.07752   2.36408
H    -2.66175  -2.49016   1.32310
