32
Generated by autodE on: 2022-06-11. E = -656.749704 Ha
C    -2.02390   2.93008  -0.58333
C    -0.85491   2.10034  -0.11010
O     0.26542   2.60046  -0.00244
C    -1.13793   0.70056   0.24409
C    -0.26265  -0.34017   0.38474
C     1.17935  -0.43432   0.10856
C     1.75764   0.16180  -1.02848
C     3.12022   0.02125  -1.28922
C     3.93440  -0.71105  -0.41697
C     3.37173  -1.31440   0.71149
C     2.00412  -1.18845   0.96500
C    -1.09931  -1.57079   0.70424
C    -1.81871  -1.92806  -0.64047
C    -2.82737  -0.75874  -0.81629
C    -2.54250   0.12839   0.43580
C    -2.26124  -0.94920   1.49989
H    -2.72761   3.09081   0.25019
H    -1.66692   3.90268  -0.94682
H    -2.58244   2.40794  -1.37613
H     1.12790   0.72701  -1.71643
H     3.55071   0.48267  -2.18124
H     5.00251  -0.81631  -0.62148
H     3.99874  -1.89151   1.39526
H     1.57009  -1.66700   1.84542
H    -0.55080  -2.40713   1.15337
H    -2.33357  -2.89455  -0.53710
H    -1.10372  -2.01419  -1.47105
H    -2.68116  -0.19950  -1.75124
H    -3.86661  -1.11986  -0.79765
H    -3.32609   0.86004   0.66193
H    -3.10241  -1.64262   1.65312
H    -1.94370  -0.52788   2.46528
