32
Generated by autodE on: 2022-07-27. E = -950.769413 Ha
C    -2.56172   0.11662  -3.21788
N    -2.27332  -0.21154  -1.83720
C    -1.14522   0.20398  -1.24399
O    -0.23953   0.81807  -1.83010
C    -1.04024  -0.04610   0.21716
O     0.09181   0.13934   0.83433
C     1.34583   0.18403   0.42929
C     2.29906   0.58547   1.46381
C     1.73509   0.98648   2.80476
O     3.50884   0.58968   1.23740
C     1.72581  -0.47445  -0.84215
O     1.18926  -1.50035  -1.22228
O     2.74664   0.10975  -1.45493
C     3.21567  -0.52149  -2.65844
C    -2.21340  -0.18756   1.11945
O    -3.33876  -0.45276   0.65877
N    -1.98831  -0.05177   2.43614
C    -3.05969  -0.20592   3.40034
H    -1.68087  -0.08178  -3.84467
H    -2.83379   1.17900  -3.33989
H    -3.39754  -0.50315  -3.56510
H    -3.01306  -0.53344  -1.20647
H     2.55959   1.31217   3.45115
H     1.22306   0.12826   3.27069
H     0.99541   1.79467   2.70206
H     2.41059  -0.54890  -3.40659
H     3.55913  -1.54419  -2.44782
H     4.04843   0.09487  -3.01502
H    -1.05306   0.16564   2.76305
H    -2.64472  -0.09124   4.40849
H    -3.52608  -1.19994   3.31618
H    -3.84601   0.55086   3.24996
