41
Generated by autodE on: 2022-06-20. E = -1140.003539 Ha
C    -2.16650  -3.93774  -0.46209
N    -1.57736  -2.62280  -0.61724
C    -0.44681  -2.43450  -1.30738
O     0.16418  -3.33709  -1.89304
C     0.10398  -1.01144  -1.30720
O    -0.96858  -0.05872  -1.32179
C    -0.76095   0.98903  -0.39181
C    -1.05097   2.27024  -1.06307
N    -1.28808   3.26239  -1.61282
C    -1.75772   0.81293   0.78548
O    -2.26634  -0.24979   1.06030
O    -1.99950   1.96082   1.38743
C    -2.82492   1.92508   2.56671
C     0.74669   0.87513   0.03231
C     0.99419   1.32821   1.48233
N     1.89059   2.29719   1.69155
O     0.37721   0.78042   2.40063
C     1.64071   1.54168  -1.03502
C     3.01760   0.93997  -1.04495
C     3.24392  -0.29643  -0.55734
N     2.28022  -1.08719   0.04032
C     2.54491  -2.49726   0.27151
C     0.90756  -0.66790  -0.02872
H    -2.33559  -4.40946  -1.44206
H    -3.12956  -3.83797   0.05347
H    -1.51709  -4.60661   0.12680
H    -1.96719  -1.82469  -0.11251
H     0.72562  -0.89721  -2.20739
H    -2.32808   1.32449   3.34128
H    -2.92568   2.96585   2.89236
H    -3.80776   1.49664   2.32839
H     2.45224   2.69379   0.94797
H     2.09309   2.56852   2.64967
H     1.16489   1.42643  -2.02430
H     1.66864   2.62939  -0.86922
H     3.84759   1.51623  -1.45561
H     4.24467  -0.73572  -0.56890
H     2.44235  -3.10781  -0.64169
H     1.83764  -2.88351   1.02026
H     3.56446  -2.62309   0.66429
H     0.37503  -1.10031   0.82876
