20
Generated by autodE on: 2022-06-20. E = -457.715324 Ha
C     3.10039  -0.70303  -0.02617
N     1.81520  -0.07202   0.22477
C     1.73490   0.98953   1.13481
C     0.57438   1.58361   1.45446
C    -0.75372   1.16521   0.87342
C    -0.56925   0.00654  -0.09317
C    -1.71429  -0.58763  -0.80113
N    -2.92936  -0.04975  -0.52555
O    -1.60931  -1.52879  -1.61410
C     0.66195  -0.52230  -0.34346
H     2.98877  -1.45249  -0.81959
H     3.84341   0.04220  -0.35120
H     3.48544  -1.20328   0.87821
H     2.68978   1.30048   1.56255
H     0.59309   2.41008   2.16861
H    -1.23710   2.02727   0.36970
H    -1.45576   0.89425   1.68867
H    -3.05692   0.70810   0.13269
H    -3.74574  -0.43281  -0.98940
H     0.76540  -1.35569  -1.04012
