21
Generated by autodE on: 2022-07-27. E = -682.208694 Ha
C    -1.01444  -4.07314   0.87070
N    -0.59623  -2.77155   0.39454
C     0.21134  -2.60027  -0.66888
O     0.68455  -3.50364  -1.36856
C     0.54066  -1.19928  -1.01005
O     0.12834  -0.27698  -0.23379
C     0.26651   1.05394  -0.27287
C     0.97260   1.66218  -1.31996
N     1.55821   2.13238  -2.19301
C    -0.36735   1.74100   0.83979
O    -0.97777   1.18207   1.73604
O    -0.19408   3.06803   0.75065
C    -0.76263   3.86531   1.79824
H    -2.10967  -4.11274   0.96903
H    -0.69084  -4.83543   0.15250
H    -0.56937  -4.29971   1.85310
H    -0.90021  -1.94564   0.90397
H     1.12460  -0.96579  -1.90636
H    -0.43048   3.50693   2.78288
H    -0.40560   4.88736   1.62680
H    -1.86136   3.83584   1.74910
