41
Generated by autodE on: 2022-06-20. E = -1139.933342 Ha. Imaginary frequency = -321.2 cm-1
C    -1.54885  -4.28150   0.52968
N    -1.25799  -2.90713   0.17525
C    -0.64238  -2.59740  -0.98022
O    -0.32129  -3.41860  -1.84890
C    -0.31280  -1.15328  -1.13994
O    -1.20384  -0.32918  -0.60674
C    -0.95755   0.98536  -0.50585
C    -0.30845   1.67486  -1.55605
N     0.23336   2.23783  -2.42182
C    -1.83941   1.68751   0.43211
O    -2.67051   1.13846   1.12971
O    -1.56198   2.99679   0.46396
C    -2.28464   3.78307   1.42332
C     1.11410   0.38312   0.73463
C     0.23118   0.23993   1.91551
N     0.14852   1.30219   2.74683
O    -0.40248  -0.80770   2.14264
C     1.94673   1.63266   0.52981
C     2.84507   1.48995  -0.67135
C     3.10430   0.29750  -1.23058
N     2.54849  -0.89571  -0.76338
C     2.80924  -2.13263  -1.48277
C     1.46680  -0.82802   0.09601
H    -2.05844  -4.79078  -0.30061
H    -2.20424  -4.29430   1.40954
H    -0.63113  -4.84817   0.76392
H    -1.25443  -2.18950   0.90509
H     0.20151  -0.83916  -2.05310
H    -2.08185   3.42041   2.44109
H    -1.91968   4.80953   1.30572
H    -3.36441   3.73671   1.22255
H     0.55660   2.19999   2.51442
H    -0.54891   1.27548   3.48403
H     1.30016   2.52244   0.43184
H     2.55108   1.82079   1.44199
H     3.32447   2.38238  -1.07615
H     3.78136   0.18730  -2.07971
H     2.21726  -2.20921  -2.41098
H     2.55669  -2.98946  -0.84339
H     3.87573  -2.19214  -1.74024
H     1.23145  -1.75425   0.62028
