44
Generated by autodE on: 2022-06-20. E = -1163.068900 Ha
C    -2.72032   2.51279  -1.41775
C    -2.24776   2.35759  -0.00830
O    -2.68340   2.99371   0.93142
C    -1.16344   1.31452   0.23043
N    -0.09965   1.25727  -0.73035
C     0.76326   0.34180   0.04967
C     2.13809   0.09213  -0.50565
C     3.06104  -0.67274   0.22535
C     4.33626  -0.91754  -0.28803
C     4.70735  -0.40127  -1.53386
C     3.79314   0.36204  -2.26410
C     2.51502   0.60722  -1.75331
C     0.74100   1.06999   1.41439
O     1.60489   1.26641   2.22776
O    -0.49922   1.61301   1.51250
C    -0.22023  -0.89912   0.10429
C     0.03168  -1.85735   1.27086
N    -0.56046  -3.05696   1.16941
O     0.69202  -1.52348   2.25898
C    -0.14533  -1.61641  -1.26544
C    -1.44139  -2.25077  -1.66139
C    -2.60881  -1.72255  -1.25003
N    -2.72532  -0.62243  -0.41378
C    -4.01878  -0.41262   0.22629
C    -1.59745  -0.18542   0.37914
H    -1.89444   2.88932  -2.04312
H    -3.00525   1.53041  -1.82466
H    -3.56636   3.21047  -1.45425
H     0.34046   2.17241  -0.85920
H     2.77539  -1.07729   1.19552
H     5.04429  -1.51592   0.29015
H     5.70575  -0.59402  -1.93346
H     4.07168   0.76916  -3.23885
H     1.80826   1.19861  -2.33665
H    -1.13016  -3.29958   0.36155
H    -0.47056  -3.71580   1.93721
H     0.14283  -0.87028  -2.02158
H     0.67235  -2.35101  -1.23483
H    -1.44479  -3.09490  -2.35218
H    -3.56637  -2.13794  -1.57340
H    -4.82354  -0.60490  -0.49593
H    -4.11680   0.62563   0.57089
H    -4.15888  -1.07501   1.10160
H    -1.86206  -0.30268   1.44089
