20
Generated by autodE on: 2022-06-20. E = -457.715017 Ha
C    -3.00379   0.87105   0.56879
N    -1.81727   0.14404   0.14829
C    -1.95873  -1.06046  -0.55263
C    -0.90802  -1.77220  -0.99035
C     0.52346  -1.34963  -0.76994
C     0.57679  -0.02555  -0.02535
C     1.85754   0.61755   0.29654
N     2.97106  -0.03779  -0.10165
O     1.94873   1.69210   0.89765
C    -0.55969   0.61436   0.37320
H    -3.57824   0.29917   1.31620
H    -3.66276   1.07641  -0.28990
H    -2.70466   1.82745   1.01517
H    -2.99014  -1.37869  -0.71487
H    -1.09939  -2.70171  -1.53138
H     1.07360  -2.13833  -0.21637
H     1.05137  -1.27799  -1.74292
H     3.87484   0.38397   0.08226
H     2.93826  -0.90726  -0.61852
H    -0.49119   1.56305   0.90799
