24
Generated by autodE on: 2022-06-16. E = -497.998119 Ha
C    -3.67542   1.22132  -0.41399
N    -2.72109   0.17866  -0.09971
C    -2.63472  -0.22762   1.31543
C    -1.23237  -0.83186   1.39383
C    -0.57543  -0.13023   0.22124
C     0.85987  -0.13118  -0.06820
C     1.75891  -0.79209   0.79065
C     3.13060  -0.79468   0.52286
C     3.63020  -0.13831  -0.60482
C     2.74453   0.52256  -1.46752
C     1.37710   0.52638  -1.20488
N    -1.44734   0.41745  -0.56415
H    -3.65550   1.43177  -1.49228
H    -3.46694   2.16244   0.13478
H    -4.68562   0.88230  -0.14308
H    -3.44356  -0.92131   1.58050
H    -2.71486   0.66667   1.96572
H    -1.23784  -1.92276   1.21883
H    -0.73100  -0.65163   2.35414
H     1.38395  -1.31084   1.67475
H     3.81191  -1.31412   1.20110
H     4.70261  -0.14019  -0.81348
H     3.12680   1.03779  -2.35225
H     0.68857   1.03958  -1.87797
