18
Generated by autodE on: 2022-06-16. E = -419.268628 Ha
C    -4.18231   0.10529   0.00162
N    -3.19840  -0.51285   0.88663
N    -2.01352  -0.31108   0.53037
C    -0.87583  -0.17198   0.26521
C     0.50518  -0.01188  -0.01132
C     0.92772   0.71824  -1.14584
C     2.28813   0.86924  -1.40632
C     3.24421   0.30345  -0.55476
C     2.82865  -0.42069   0.56878
C     1.47306  -0.58270   0.84731
H    -4.11607  -0.28004  -1.03281
H    -4.07314   1.20480  -0.04332
H    -5.18326  -0.12343   0.38835
H     0.18240   1.15891  -1.81013
H     2.60483   1.43558  -2.28526
H     4.30865   0.42616  -0.76598
H     3.56905  -0.86524   1.23794
H     1.14928  -1.14695   1.72356
