20
Generated by autodE on: 2022-06-25. E = -457.715302 Ha
C    -3.16686  -0.15578  -0.23052
N    -1.78871   0.30653  -0.23182
C    -1.50559   1.62772  -0.60009
C    -0.25607   2.11663  -0.64093
C     0.96271   1.29609  -0.29702
C     0.55908  -0.11924   0.08417
C     1.56267  -1.12765   0.46065
N     2.85573  -0.71652   0.44690
O     1.27506  -2.30045   0.77622
C    -0.74711  -0.50943   0.09103
H    -3.19925  -1.20066   0.10216
H    -3.78469   0.44900   0.45276
H    -3.60712  -0.09495  -1.23935
H    -2.37969   2.23133  -0.85123
H    -0.11550   3.15872  -0.93705
H     1.66968   1.29015  -1.15196
H     1.52824   1.78236   0.52431
H     3.57861  -1.37752   0.70926
H     3.12653   0.22918   0.20987
H    -1.00722  -1.53203   0.36875
