37
Generated by autodE on: 2022-07-27. E = -863.620211 Ha
C     3.68664   3.48788   2.14058
O     3.04676   2.48448   1.36193
C     1.77026   2.13109   1.75524
O     1.25095   2.68699   2.73287
C     1.27731   1.12209   0.89062
N     0.06130   0.48048   0.98432
C    -0.71643   0.66771   2.22781
C    -0.42796  -0.28657   0.00265
C     0.13890  -0.21943  -1.36233
C     0.43833  -1.40526  -2.05689
C     0.90153  -1.36192  -3.37427
C     1.05695  -0.13481  -4.02355
C     0.74901   1.05234  -3.34553
C     0.30187   1.01322  -2.02702
C    -1.49501  -1.27575   0.24257
C    -1.46372  -2.15603   1.34345
C    -2.46034  -3.11766   1.51295
C    -3.50354  -3.22451   0.58741
C    -3.53779  -2.36663  -0.51782
C    -2.54073  -1.40813  -0.69382
H     3.80661   3.17105   3.18901
H     4.67560   3.64265   1.68949
H     3.12295   4.43433   2.12365
H     1.90396   0.83153   0.05405
H    -0.76138   1.73924   2.43791
H    -1.72332   0.26815   2.09840
H    -0.21004   0.17039   3.06454
H     0.30717  -2.36663  -1.55657
H     1.13835  -2.29255  -3.89523
H     1.41342  -0.09986  -5.05559
H     0.85570   2.01480  -3.85141
H     0.06725   1.94381  -1.50667
H    -0.64274  -2.09991   2.06008
H    -2.41566  -3.79505   2.36898
H    -4.28258  -3.97835   0.72226
H    -4.34731  -2.44491  -1.24730
H    -2.57103  -0.74330  -1.55913
