37
Generated by autodE on: 2022-06-25. E = -863.620213 Ha
C     4.53577  -3.11971  -0.18153
O     3.23130  -2.59088  -0.38500
C     2.99105  -1.33998   0.15076
O     3.89084  -0.74928   0.76381
C     1.65688  -0.95761  -0.13658
N     1.05189   0.23352   0.20052
C     1.91534   1.31577   0.71961
C    -0.26662   0.43291   0.08519
C    -0.85218   1.78595   0.05647
C    -0.30550   2.81850  -0.73273
C    -0.91452   4.07274  -0.78347
C    -2.08163   4.32097  -0.05367
C    -2.64245   3.30000   0.72209
C    -2.04013   2.04350   0.77080
C    -1.19061  -0.70853  -0.09500
C    -1.15775  -1.82098   0.77032
C    -2.09354  -2.84479   0.64233
C    -3.07190  -2.78764  -0.35927
C    -3.11295  -1.69101  -1.22375
C    -2.18532  -0.65522  -1.08799
H     4.54545  -4.10683  -0.66208
H     5.30761  -2.48073  -0.63977
H     4.76480  -3.23073   0.89043
H     1.03467  -1.67473  -0.66131
H     2.56336   1.69501  -0.08034
H     1.29806   2.11884   1.12480
H     2.54682   0.89444   1.50581
H     0.59133   2.63083  -1.32526
H    -0.47955   4.85834  -1.40577
H    -2.55681   5.30373  -0.09509
H    -3.55545   3.48448   1.29303
H    -2.48352   1.24999   1.37530
H    -0.39774  -1.87640   1.55213
H    -2.06369  -3.69311   1.33017
H    -3.80028  -3.59551  -0.46078
H    -3.87249  -1.63744  -2.00721
H    -2.22720   0.20525  -1.75851
