35
Generated by autodE on: 2022-05-29. E = -1338.266626 Ha
C    -4.03384  -0.95115   0.55784
C    -2.54182  -1.09771   0.68383
O    -2.03491  -1.84069   1.49868
C    -1.67115  -0.22577  -0.26423
C    -2.15571   1.22220   0.00307
C    -2.57829   2.12201  -1.11697
O    -2.20325   1.58655   1.16827
C    -0.14593  -0.40066   0.04077
C     0.57665   0.77274   0.75325
O     0.74081   1.71036  -0.31955
C     1.48864   0.84723  -1.19030
C     2.61515   0.38622  -0.24592
C     3.90775  -0.03759  -0.61500
N     4.97357  -0.37886  -0.93962
C     2.01760   0.32318   0.96263
Cl    2.62472  -0.28695   2.43594
C     0.53660  -0.36572  -1.35958
C    -0.62732  -0.15637  -2.34426
N    -1.84592  -0.64299  -1.67482
C    -1.98131  -2.09587  -1.82944
H    -4.35837  -0.18498   1.28112
H    -4.33482  -0.61679  -0.44368
H    -4.52514  -1.89757   0.82074
H    -3.06728   1.56621  -1.92508
H    -1.67451   2.59784  -1.53090
H    -3.23160   2.90964  -0.71898
H    -0.00452  -1.34135   0.58237
H     0.07637   1.21482   1.61749
H     1.79773   1.36557  -2.10369
H     1.09819  -1.28179  -1.57731
H    -0.73528   0.91188  -2.57698
H    -0.48410  -0.68753  -3.29360
H    -2.01551  -2.33416  -2.90159
H    -2.92507  -2.44955  -1.39128
H    -1.15518  -2.67828  -1.37821
