21
Generated by autodE on: 2022-05-29. E = -478.762312 Ha
C    -0.78910   1.99417  -0.92384
N    -0.87637   1.07684  -0.02060
C    -1.69645   1.31782   1.18408
C     0.01236  -0.04954  -0.05971
C     1.39934   0.31644  -0.23686
C     2.47100  -0.74005  -0.07589
O     1.75257   1.48217  -0.50906
C    -0.49796  -1.37621   0.13297
C    -2.00371  -1.59174   0.16304
O     0.23245  -2.38166   0.24714
H    -0.24905   1.79337  -1.84702
H    -1.29416   2.95100  -0.76994
H    -1.19271   0.87389   2.04978
H    -2.68607   0.86202   1.05902
H    -1.81632   2.39858   1.32839
H     2.40530  -1.24148   0.89959
H     2.35777  -1.52586  -0.83718
H     3.44954  -0.25335  -0.18846
H    -2.20424  -2.61872  -0.17222
H    -2.37425  -1.50082   1.19719
H    -2.56498  -0.88645  -0.46536
