35
Generated by autodE on: 2022-05-29. E = -1338.186030 Ha. Imaginary frequency = -317.3 cm-1
C    -3.18522  -0.85978   1.83352
C    -2.60973  -1.40935   0.54719
O    -2.43402  -2.63299   0.46240
C    -2.24345  -0.49900  -0.54080
C    -2.46885   0.94865  -0.44938
C    -2.76973   1.76006  -1.69852
O    -2.49501   1.54042   0.63594
C     0.20390  -0.61455   0.27050
C     0.56837   0.79437   0.74720
O     0.68208   1.49174  -0.50164
C     1.60170   0.57553  -1.11417
C     2.73244   0.58989  -0.04001
C     4.10851   0.39889  -0.25813
N     5.24681   0.24417  -0.45835
C     2.06393   0.72262   1.12572
Cl    2.65120   0.68519   2.72451
C     0.82107  -0.75058  -0.95925
C    -0.79767  -0.44573  -2.38042
N    -1.82616  -1.03416  -1.76381
C    -2.19702  -2.38236  -2.22269
H    -3.57862  -1.71010   2.40727
H    -3.97263  -0.11342   1.66592
H    -2.39616  -0.36786   2.42193
H    -3.67173   2.35120  -1.47807
H    -1.95255   2.47661  -1.87503
H    -2.93541   1.16912  -2.60686
H    -0.12384  -1.40872   0.93584
H    -0.09994   1.29662   1.45223
H     1.89369   0.89014  -2.12092
H     1.16071  -1.69211  -1.39151
H    -0.48212  -0.86352  -3.33895
H    -0.62966   0.61240  -2.20988
H    -2.13986  -2.38782  -3.31859
H    -3.21953  -2.61485  -1.91240
H    -1.51505  -3.13892  -1.81422
