56
Generated by autodE on: 2022-06-29. E = -1396.107374 Ha
C     2.86220  -2.87895  -2.70802
C     3.04077  -1.56513  -1.98956
O     3.73700  -0.67307  -2.46773
C     2.37287  -1.43462  -0.68234
C     2.12298  -0.34662   0.10581
C     2.33259   1.09203  -0.09168
C     2.28786   1.68408  -1.37036
C     2.45352   3.05802  -1.52448
C     2.67470   3.87181  -0.40766
C     2.71270   3.30080   0.86706
C     2.53234   1.92655   1.02578
C     1.41371  -0.92283   1.33672
O     1.99993  -2.22842   1.44122
C     1.77296  -2.61391   0.08106
C     0.21614  -2.49172  -0.01036
C    -0.05893  -1.35171   0.99386
C    -1.03418  -0.40409   0.25011
C    -0.93150   1.05685   0.67003
C    -0.79865   1.38472   2.02768
C    -0.74162   2.71847   2.43481
C    -0.81209   3.74578   1.48910
C    -0.94940   3.42686   0.13596
C    -1.01878   2.09131  -0.27094
C    -2.49168  -0.87122   0.44696
C    -2.98455  -1.18911   1.72214
C    -4.31840  -1.56353   1.90053
C    -5.18619  -1.62675   0.80588
C    -4.70658  -1.30497  -0.46591
C    -3.37203  -0.92676  -0.64235
N    -0.66775  -0.58037  -1.17574
N    -0.29150  -1.94761  -1.28900
C    -1.00141  -2.70216  -2.11808
N    -1.56785  -3.38319  -2.88083
H     3.31263  -2.81831  -3.70704
H     1.79598  -3.14293  -2.78862
H     3.35037  -3.68583  -2.13654
H     2.10110   1.06366  -2.24523
H     2.40194   3.49923  -2.52237
H     2.80501   4.94941  -0.53062
H     2.87161   3.92929   1.74586
H     2.55445   1.49747   2.02784
H     1.51731  -0.36517   2.27046
H     2.17809  -3.60831  -0.12415
H    -0.28756  -3.43574   0.22682
H    -0.48371  -1.73585   1.92455
H    -0.73428   0.59356   2.77606
H    -0.63152   2.95497   3.49564
H    -0.75528   4.78984   1.80515
H    -1.00144   4.22074  -0.61250
H    -1.13516   1.85992  -1.33024
H    -2.33184  -1.14116   2.59497
H    -4.67929  -1.80796   2.90244
H    -6.22848  -1.92336   0.94484
H    -5.37296  -1.34710  -1.33094
H    -3.00653  -0.67173  -1.63656
H     0.16049  -0.02509  -1.38906
