28
Generated by autodE on: 2022-06-29. E = -691.408509 Ha
C    -3.25921   1.57147  -0.24802
C    -1.80010   1.38790  -0.59304
O    -1.12131   2.34700  -0.96299
C    -1.27843   0.02570  -0.45675
C    -0.02912  -0.45858  -0.19248
C     1.28982   0.13613  -0.02005
C     1.67837   1.34063  -0.64547
C     2.95590   1.86255  -0.44656
C     3.87040   1.20430   0.38244
C     3.50146   0.00838   1.00782
C     2.23173  -0.52705   0.80046
C    -0.27295  -1.97202   0.09518
C    -1.00739  -2.06097   1.44785
C    -2.23088  -1.58553   1.19753
C    -2.20926  -1.21207  -0.30037
O    -1.34438  -2.23171  -0.81887
H    -3.50224   1.10712   0.72099
H    -3.50160   2.64178  -0.22480
H    -3.88505   1.07541  -1.00855
H     0.96374   1.85624  -1.28235
H     3.24129   2.79173  -0.94551
H     4.86969   1.61825   0.53639
H     4.20916  -0.51295   1.65635
H     1.96230  -1.46074   1.29702
H     0.57869  -2.63914  -0.06874
H    -0.55690  -2.38557   2.38496
H    -3.06820  -1.41744   1.87386
H    -3.16746  -1.17795  -0.82766
