28
Generated by autodE on: 2022-06-29. E = -704.635066 Ha
N     2.67425   1.74425   2.14222
C     1.54252   1.44434   2.27989
N     0.30194   1.19234   2.61452
N    -0.55606   0.74802   1.67588
C    -0.39238   0.19998   0.48625
C     0.91976  -0.28052   0.02179
C     1.71308  -1.09977   0.84660
C     2.92362  -1.60574   0.37462
C     3.36307  -1.28939  -0.91469
C     2.57977  -0.47452  -1.73966
C     1.35921   0.01870  -1.28055
C    -1.59093   0.04350  -0.35242
C    -2.65641   0.96434  -0.28339
C    -3.79881   0.78097  -1.06218
C    -3.89191  -0.31247  -1.92907
C    -2.83346  -1.22380  -2.01559
C    -1.69019  -1.04868  -1.23808
H    -1.52439   0.87443   1.97998
H     1.37239  -1.35117   1.85246
H     3.52793  -2.24867   1.01822
H     4.31583  -1.68063  -1.27870
H     2.91990  -0.22577  -2.74728
H     0.74323   0.64703  -1.92625
H    -2.58123   1.84644   0.35658
H    -4.61339   1.50621  -1.00399
H    -4.78481  -0.45001  -2.54309
H    -2.90087  -2.07952  -2.69097
H    -0.87448  -1.77018  -1.30040
