43
Generated by autodE on: 2022-06-07. E = -3963.003966 Ha
C     1.46333   3.30972   1.98952
O     1.08160   1.97006   1.63399
C     1.71436   1.42025   0.60858
O     2.62178   1.94345   0.00485
C     1.15072   0.00798   0.27111
C     2.32341  -0.87021  -0.17506
C     2.82057  -1.86983   0.67175
C     3.87370  -2.69039   0.25932
C     4.44962  -2.51757  -1.00127
C     3.97138  -1.50771  -1.84174
C     2.92088  -0.68586  -1.43051
N     0.57687  -0.51742   1.51181
C    -0.68335  -0.66807   1.42422
C    -1.49605  -1.27633   2.54057
C    -0.93347  -1.21053   3.92344
O    -2.55746  -1.80428   2.25800
C    -1.30649  -0.32621   0.10078
Br   -2.69409   1.05441   0.40570
C    -1.90840  -1.54486  -0.70249
C    -0.98262  -2.72732  -0.46246
C     0.11611  -2.46246  -1.17890
C    -0.15636  -1.12446  -1.85279
O    -1.57376  -1.16774  -2.03529
C    -0.06328   0.06095  -0.77670
C    -0.16377   1.38276  -1.56184
F     0.91645   1.54454  -2.35469
F    -1.23054   1.44058  -2.36165
F    -0.21348   2.46470  -0.76357
H     1.27641   3.98846   1.14528
H     0.83671   3.58158   2.84602
H     2.52684   3.34315   2.26393
H     2.37253  -2.01743   1.65261
H     4.24135  -3.47079   0.92956
H     5.26884  -3.16283  -1.32669
H     4.41743  -1.35588  -2.82724
H     2.56602   0.09443  -2.09965
H    -1.62081  -1.69123   4.63047
H     0.05052  -1.70357   3.95154
H    -0.76952  -0.15679   4.20237
H    -2.98186  -1.69159  -0.56402
H    -1.18096  -3.55252   0.21960
H     1.03672  -3.03420  -1.26103
H     0.36381  -0.91698  -2.79171
