27
Generated by autodE on: 2022-06-07. E = -744.617444 Ha
C     1.89108   3.50377   0.83109
O     1.48502   2.13996   0.66213
C     0.18670   1.93037   0.38841
O    -0.62333   2.83550   0.28698
C    -0.11310   0.49366   0.22688
N     0.89683  -0.32210   0.33205
C     1.76077  -1.13084   0.48155
C     2.72417  -1.94872  -0.23722
C     4.12894  -1.42588  -0.26931
O     2.35636  -3.01809  -0.70888
C    -1.44198  -0.07231  -0.07191
C    -1.54407  -1.41848  -0.48667
C    -2.78671  -1.98922  -0.75497
C    -3.95656  -1.23296  -0.62324
C    -3.86609   0.10103  -0.21646
C    -2.62624   0.68082   0.05884
H     2.96564   3.47322   1.04541
H     1.70376   4.07981  -0.08690
H     1.35035   3.96785   1.66882
H     4.60207  -1.61490   0.70921
H     4.14053  -0.33872  -0.44240
H     4.69318  -1.95241  -1.05102
H    -0.64280  -2.02262  -0.60918
H    -2.84009  -3.03200  -1.07640
H    -4.92960  -1.68040  -0.83818
H    -4.77187   0.70220  -0.10662
H    -2.57161   1.71843   0.37920
