43
Generated by autodE on: 2022-06-07. E = -3962.908267 Ha. Imaginary frequency = -287.7 cm-1
C     1.21817   3.45003   1.88794
O     1.11779   2.03047   1.70909
C     1.94320   1.47870   0.81958
O     2.80430   2.08755   0.21580
C     1.68037   0.02034   0.65419
C     2.61671  -0.88214  -0.03427
C     2.80970  -2.18487   0.46265
C     3.62563  -3.08573  -0.21894
C     4.26160  -2.69909  -1.40358
C     4.08118  -1.40188  -1.89625
C     3.26855  -0.49305  -1.21894
N     0.72088  -0.48937   1.37848
C    -0.43014  -0.80551   1.56712
C    -1.16400  -1.41336   2.70705
C    -1.43262  -0.50196   3.86280
O    -1.51584  -2.57594   2.62777
C    -1.50583  -0.24310  -0.22204
Br   -2.80236   0.90139   0.61671
C    -1.96219  -1.65708  -0.74246
C    -0.76733  -2.60567  -0.59766
C     0.11027  -2.19529  -1.51966
C    -0.55782  -0.99627  -2.19511
O    -1.94860  -1.40648  -2.15806
C    -0.60238   0.17960  -1.17657
C    -0.30457   1.54740  -1.64363
F     0.91217   1.63227  -2.23402
F    -1.18793   1.96558  -2.59075
F    -0.33744   2.47569  -0.66802
H     1.05405   3.96730   0.93250
H     0.43415   3.71716   2.60535
H     2.20748   3.71709   2.28665
H     2.31302  -2.48818   1.38627
H     3.76657  -4.09397   0.17672
H     4.89872  -3.40580  -1.94008
H     4.57109  -1.09630  -2.82355
H     3.10732   0.50389  -1.62286
H    -2.11702  -0.98847   4.57015
H    -0.47339  -0.27222   4.35722
H    -1.84998   0.45364   3.51127
H    -2.93829  -1.99464  -0.38097
H    -0.67055  -3.37399   0.16698
H     1.11633  -2.55257  -1.72632
H    -0.23267  -0.72979  -3.20593
