38
Generated by autodE on: 2022-10-21. E = -1175.594054 Ha
C     3.69649   0.77832   2.78926
N     2.89195   0.53816   1.60570
C     1.66033   0.02641   1.69605
O     1.14101  -0.33792   2.75280
C     0.87811  -0.12445   0.39122
C     1.58617   0.15621  -0.96091
O     2.54065   0.83499  -1.23064
O     0.87926  -0.53867  -1.88906
C    -0.19032  -1.22813  -1.10693
C    -0.65451  -2.37660  -1.87750
N    -1.05320  -3.27731  -2.48513
N     0.39324  -1.49778   0.16618
C     1.40745  -2.55450   0.22817
C    -1.23901  -0.11533  -0.81611
C    -1.59265   0.59999  -2.03086
N    -1.90651   1.13737  -3.00913
C    -2.51742  -0.52522   0.03250
C    -3.32241   0.76291   0.16516
C    -2.64928   1.50508   1.05395
C    -1.45370   0.65630   1.46825
O    -1.96368  -0.66822   1.32966
C    -0.44595   0.73644   0.25722
O    -0.20687   2.02032  -0.22523
C     0.39231   2.94881   0.67986
H     3.21471   1.51332   3.45376
H     3.84126  -0.15270   3.35756
H     4.67462   1.16395   2.47889
H     3.21910   0.86214   0.69703
H     1.74558  -2.64701   1.26767
H     0.94576  -3.50722  -0.06332
H     2.28066  -2.36548  -0.42057
H    -3.01778  -1.43519  -0.31448
H    -4.19745   1.02164  -0.42934
H    -2.83741   2.52902   1.37396
H    -1.00855   0.81444   2.45276
H    -0.11887   2.95366   1.65476
H     0.29180   3.93891   0.21720
H     1.46022   2.73085   0.82768
