20
Generated by autodE on: 2022-10-26. E = -661.182108 Ha
C     2.15214   1.78171   3.00284
N     1.53075   1.46040   1.73493
C     0.75300   0.36679   1.59349
O     0.52298  -0.41948   2.52510
C     0.19931   0.18367   0.24562
C     0.38789   1.01844  -0.89076
O     1.00219   2.04877  -1.10188
O    -0.35697   0.39391  -1.92659
C    -0.92500  -0.70721  -1.42393
C    -1.73413  -1.54896  -2.20980
N    -2.40183  -2.23829  -2.86971
N    -0.61454  -0.85744  -0.14104
C    -1.08151  -1.96502   0.69616
H     1.39915   1.91933   3.79533
H     2.83976   0.98434   3.32824
H     2.72067   2.71285   2.89163
H     1.67999   2.06133   0.92715
H    -1.65013  -1.55909   1.53949
H    -1.71528  -2.61787   0.08576
H    -0.21385  -2.51684   1.07342
