20
Generated by autodE on: 2022-10-21. E = -661.174003 Ha
C    -3.01956  -0.19381   1.37048
N    -2.63626  -1.13551   0.33264
C    -1.43057  -1.29411  -0.25284
O    -1.15578  -2.30052  -0.92551
C    -0.44174  -0.21092  -0.08439
C    -0.63159   1.19971  -0.11976
O    -1.57859   1.95479  -0.19201
O     0.69978   1.73466  -0.08377
C     1.55928   0.71632  -0.05976
C     2.95145   0.91825   0.00967
N     4.10090   1.09806   0.06203
N     0.91794  -0.44517  -0.07580
C     1.57217  -1.75470  -0.05054
H    -3.68633  -0.70483   2.07887
H    -2.13534   0.14925   1.92324
H    -3.54277   0.68589   0.96822
H    -3.29816  -1.87410   0.10571
H     2.64633  -1.60740   0.10703
H     1.38744  -2.26409  -1.00183
H     1.14897  -2.34585   0.77006
