34
Generated by autodE on: 2022-06-29. E = -877.682338 Ha
C     2.36541   3.53780  -0.29668
O     1.86032   2.22176  -0.59409
C     1.16799   1.62267   0.35932
O     0.92671   2.08583   1.45322
C     0.62907   0.27869  -0.06553
O     1.35701  -0.28358  -1.22759
C     1.06794  -1.60414  -1.17494
O     1.38463  -2.40588  -2.00871
N     0.27172  -1.84705   0.02681
C    -1.07954  -1.31942  -0.38897
C    -2.23052  -1.43057   0.62359
C    -3.48720  -0.96899  -0.15593
C    -3.27868   0.57371  -0.29067
C    -1.93467   0.81032   0.43930
C    -2.03555  -0.22912   1.57292
C    -0.85378   0.23382  -0.49490
N     0.73818  -0.78590   0.90394
C     2.05502  -1.05112   1.47065
H     2.89866   3.86293  -1.19650
H     3.04968   3.49433   0.56204
H     1.53299   4.21976  -0.07390
H    -1.33451  -1.80587  -1.33725
H    -2.31614  -2.42531   1.07996
H    -3.58027  -1.47210  -1.12967
H    -4.39165  -1.19862   0.42533
H    -3.24413   0.90690  -1.33838
H    -4.08435   1.12966   0.21012
H    -1.75745   1.85143   0.73847
H    -2.92334  -0.06086   2.20201
H    -1.14655  -0.28715   2.20511
H    -0.92994   0.63504  -1.51241
H     2.32898  -0.20656   2.11690
H     2.84862  -1.19096   0.71389
H     1.99166  -1.95500   2.09024
