28
Generated by autodE on: 2022-06-28. E = -795.253657 Ha
C    -4.19693  -1.45968   0.85034
N    -3.04553  -0.60037   0.65935
C    -1.87686  -1.08493   0.22045
O    -1.68734  -2.26895  -0.09483
C    -0.74510  -0.11148   0.11006
N     0.40126  -0.69094  -0.15154
C     1.70676  -0.32893  -0.24237
C     2.17644   0.96389   0.06266
N     2.61535   2.01430   0.32293
C     2.60431  -1.43076  -0.59424
C     4.07442  -1.13903  -0.68450
O     2.13191  -2.55239  -0.80034
C    -0.93476   1.35969   0.29377
O    -1.57985   1.78592   1.26134
N    -0.43213   2.14506  -0.66943
C    -0.41533   3.59108  -0.54940
H    -4.39133  -2.04876  -0.05754
H    -5.07271  -0.83643   1.06686
H    -4.04473  -2.16232   1.68661
H    -3.05135   0.34908   1.02916
H     0.29553  -1.71715  -0.31185
H     4.26186  -0.33771  -1.41706
H     4.45225  -0.78363   0.28778
H     4.61408  -2.04719  -0.98033
H     0.08219   1.72415  -1.43749
H    -0.21220   4.02770  -1.53464
H    -1.38738   3.95173  -0.18689
H     0.36655   3.91915   0.15526
