28
Generated by autodE on: 2022-07-28. E = -795.247216 Ha
C    -2.76357  -3.52418  -0.69285
N    -1.88912  -2.51916  -0.12273
C    -1.45382  -1.47997  -0.84053
O    -1.76573  -1.26051  -2.02084
C    -0.52167  -0.52547  -0.14979
N    -0.05100   0.38182  -0.97268
C     0.92622   1.33760  -0.86489
C     0.95522   2.31385  -1.88813
N     0.98298   3.13356  -2.71921
C     2.02819   1.20991   0.07688
C     3.10281   2.26599   0.01748
O     2.09916   0.25480   0.85571
C    -0.33861  -0.54866   1.33504
O    -0.20150  -1.62459   1.93189
N    -0.49313   0.62786   1.96054
C    -0.25469   0.75266   3.38697
H    -3.08839  -4.20404   0.10351
H    -2.24984  -4.10883  -1.47379
H    -3.64838  -3.05435  -1.14697
H    -1.47939  -2.64695   0.80330
H    -0.50882   0.28621  -1.89968
H     2.66703   3.26786   0.15769
H     3.84340   2.07001   0.80296
H     3.60168   2.26013  -0.96478
H    -0.51115   1.47930   1.40582
H     0.81330   0.61651   3.62434
H    -0.56915   1.75108   3.71358
H    -0.83101  -0.00357   3.93772
