26
Generated by autodE on: 2022-06-28. E = -689.460847 Ha
C    -2.97077   1.61206  -0.32282
O    -1.56113   1.80692  -0.47824
C    -0.66742   0.86032  -0.19220
C    -0.86383  -0.37765   0.34323
O    -2.08999  -0.83293   0.73543
C    -2.66832  -1.85786  -0.07940
C     0.28712  -1.26713   0.60983
O     0.09745  -2.35895   1.14321
C     1.66676  -0.82653   0.24282
C     2.79054  -1.78035   0.49776
C     1.87504   0.40648  -0.28184
C     3.24226   0.89925  -0.64286
C     0.72806   1.31873  -0.52317
O     0.88511   2.43554  -0.99711
H    -3.43061   2.54725  -0.66658
H    -3.32364   0.77860  -0.94695
H    -3.23199   1.43238   0.72790
H    -3.64309  -2.09847   0.36528
H    -2.04055  -2.76090  -0.09374
H    -2.81669  -1.49640  -1.11062
H     3.52164  -1.34273   1.19784
H     2.42177  -2.72372   0.91692
H     3.33888  -1.99341  -0.43471
H     3.90895   0.87795   0.23473
H     3.70277   0.24755  -1.40382
H     3.20492   1.92312  -1.03305
