40
Generated by autodE on: 2022-06-20. E = -1118.931482 Ha
C     4.95421  -0.41270  -0.75356
N     3.58306  -0.01841  -0.48784
C     2.77092  -0.76160   0.26735
O     3.08573  -1.83168   0.78792
C     1.33204  -0.21474   0.41028
C     0.89865  -0.40985   1.79682
N     0.51948  -0.57215   2.88034
N     1.25420   1.21808   0.05950
C     0.21577   1.40324  -0.66517
C    -0.16474   2.75765  -1.19088
O    -1.23501   2.95385  -1.73076
O     0.77002   3.67585  -1.00046
C     0.47383   5.00460  -1.46522
C    -0.67068   0.21540  -0.89880
C    -1.88829   0.26703   0.05792
C    -2.40644  -1.11552   0.34815
C    -3.77961  -1.36497   0.81263
N    -4.57093  -0.27653   0.99091
O    -4.22303  -2.50838   1.04196
C    -1.57499  -2.18937   0.23814
N    -0.28624  -2.15785  -0.19187
C     0.51749  -3.37239  -0.20958
C     0.32412  -0.92418  -0.59927
H     5.37654   0.26134  -1.50821
H     5.57163  -0.36019   0.15769
H     4.99053  -1.44417  -1.13287
H     3.25380   0.89635  -0.78335
H     1.35504   5.60943  -1.22491
H    -0.41433   5.39665  -0.94951
H     0.29658   4.99663  -2.55009
H    -1.02415   0.15980  -1.93618
H    -2.65336   0.89691  -0.41777
H    -1.60697   0.77942   0.99552
H    -5.51064  -0.41817   1.34442
H    -4.23405   0.67162   0.88532
H    -1.95208  -3.18300   0.48629
H    -0.14498  -4.24664  -0.26186
H     1.15385  -3.45528   0.68416
H     1.17173  -3.37137  -1.09413
H     0.91919  -1.11007  -1.50602
