40
Generated by autodE on: 2022-06-20. E = -1118.848790 Ha. Imaginary frequency = -256.0 cm-1
C     4.84433  -2.06969  -0.30186
N     3.78801  -1.65968   0.60155
C     2.92453  -0.67357   0.27172
O     3.00419  -0.05808  -0.80280
C     1.89432  -0.33622   1.28474
C     1.95136  -0.83133   2.60647
N     2.00745  -1.28509   3.68316
N     1.00025   0.60844   0.99681
C     0.26791   1.16279   0.21221
C    -0.30056   2.51936   0.13317
O    -0.94219   2.99725   1.04535
O    -0.04904   3.10015  -1.03098
C    -0.62521   4.40377  -1.23657
C    -0.36823   0.18470  -1.75192
C    -1.85767   0.42683  -1.66216
C    -2.48498  -0.56018  -0.70083
C    -3.85312  -0.36918  -0.15841
N    -4.51761   0.72526  -0.59155
O    -4.37122  -1.16282   0.64511
C    -1.82398  -1.68194  -0.33035
N    -0.55139  -1.99641  -0.77431
C     0.15614  -3.11790  -0.16635
C     0.15408  -1.04976  -1.45967
H     4.44314  -2.54846  -1.21085
H     5.45132  -1.20656  -0.61441
H     5.49245  -2.78814   0.21483
H     3.65548  -2.17691   1.46430
H    -1.71975   4.34817  -1.15247
H    -0.23007   5.11485  -0.49787
H    -0.33254   4.70123  -2.24923
H     0.23313   0.85255  -2.37000
H    -2.32025   0.34452  -2.66618
H    -2.05933   1.46378  -1.34502
H    -5.45635   0.89174  -0.24429
H    -4.12332   1.38211  -1.25314
H    -2.28002  -2.40362   0.34752
H     0.57305  -2.82502   0.81332
H    -0.53290  -3.96084  -0.02928
H     0.98039  -3.42893  -0.82020
H     1.19091  -1.29550  -1.68132
