38
Generated by autodE on: 2022-05-26. E = -3321.445394 Ha
C     0.36703  -1.82198  -3.59021
N     0.36450  -1.14785  -2.30770
C    -0.48831  -1.50454  -1.33793
O    -1.35048  -2.37401  -1.49303
C    -0.36123  -0.77830   0.02796
Br    0.97252  -1.99544   1.03732
C    -1.67444  -0.87571   0.80691
C    -2.90511  -0.22111   0.14430
C    -2.77048   1.19476  -0.42423
C    -2.50251   2.30796   0.58865
C    -1.23006   2.13348   1.45209
C    -0.03886   1.73875   0.64601
C     0.28094   0.57334   0.02408
N     1.50597   0.75711  -0.69740
N     1.95345   1.92092  -0.57646
C     1.05377   2.70954   0.28627
C     1.84633   3.17435   1.51743
C     0.52858   3.90480  -0.52321
H     0.68735  -2.87360  -3.49705
H     1.05833  -1.30124  -4.26431
H    -0.63864  -1.81476  -4.03616
H     1.12136  -0.50564  -2.06039
H    -1.50532  -0.48418   1.81612
H    -1.89761  -1.94328   0.92342
H    -3.23313  -0.88088  -0.67206
H    -3.71165  -0.23243   0.89734
H    -1.99274   1.20735  -1.20630
H    -3.71157   1.43530  -0.94606
H    -2.43042   3.26347   0.04507
H    -3.35977   2.39875   1.27610
H    -1.41568   1.39013   2.23820
H    -1.02069   3.08230   1.96681
H     2.68560   3.81044   1.20135
H     1.19331   3.75895   2.18116
H     2.24121   2.31385   2.07743
H     1.36883   4.54152  -0.83544
H    -0.15182   4.50271   0.09964
H    -0.01508   3.56626  -1.41721
