63
Generated by autodE on: 2022-06-24. E = -1255.307713 Ha
C     0.65180   2.58909  -1.12629
C     0.65823   1.08138  -1.38262
C    -0.74455   0.46187  -1.55860
C    -1.71122   1.27502  -2.41054
C    -1.19886   0.06020  -0.10718
C    -1.82111  -1.36353  -0.04294
C    -2.70271  -1.69977   1.00042
C    -3.18860  -2.99892   1.16324
C    -2.79929  -4.01254   0.28347
C    -1.91402  -3.70346  -0.75098
C    -1.43217  -2.39972  -0.90717
C    -2.19596   1.08234   0.47401
C    -3.53361   1.09618   0.04241
C    -4.44169   2.03741   0.52917
C    -4.03470   2.98680   1.47372
C    -2.71196   2.97729   1.92026
C    -1.80538   2.03410   1.42217
N     0.07360   0.09173   0.64782
C     0.13592  -0.64988   1.88395
C     1.25489   0.22819  -0.22035
C     2.39821   0.98811   0.46317
C     3.67859   0.96751  -0.11331
C     4.72321   1.72418   0.42248
C     4.51072   2.51240   1.55844
C     3.24103   2.54095   2.14067
C     2.19528   1.79049   1.59357
C     1.79630  -1.14724  -0.69315
C     1.76060  -1.59017  -2.02385
C     2.21762  -2.86351  -2.38138
C     2.73078  -3.72822  -1.41311
C     2.80674  -3.29146  -0.08691
C     2.35619  -2.01672   0.26117
H     1.67516   2.98252  -1.05202
H     0.11766   2.85819  -0.20565
H     0.16324   3.10915  -1.96303
H     1.24693   0.91880  -2.29565
H    -0.59201  -0.47328  -2.10190
H    -2.63852   0.71468  -2.60007
H    -1.98702   2.23629  -1.95728
H    -1.24696   1.48163  -3.38843
H    -3.01445  -0.93396   1.71059
H    -3.87257  -3.21847   1.98693
H    -3.17735  -5.03034   0.40603
H    -1.58717  -4.48033  -1.44668
H    -0.72817  -2.21703  -1.71533
H    -3.87488   0.35411  -0.68052
H    -5.47462   2.02685   0.17224
H    -4.74494   3.72200   1.85983
H    -2.37746   3.70618   2.66282
H    -0.77506   2.03251   1.77133
H    -0.71031  -0.36551   2.52840
H     1.05598  -0.40135   2.42965
H     0.10338  -1.74958   1.76328
H     3.86014   0.35601  -0.99916
H     5.70898   1.69531  -0.04853
H     5.32802   3.09925   1.98448
H     3.05742   3.15429   3.02641
H     1.20635   1.83981   2.04551
H     1.37323  -0.94749  -2.81316
H     2.17058  -3.17571  -3.42759
H     3.08276  -4.72484  -1.68989
H     3.22921  -3.94292   0.68219
H     2.46826  -1.68647   1.29322
