12
Generated by autodE on: 2022-06-24. E = -157.299004 Ha
C     1.53832  -0.65455   0.16753
C     0.70939   0.58966   0.05235
C    -0.62386   0.67658  -0.07961
C    -1.61282  -0.44872  -0.14369
H     0.93916  -1.57553   0.13053
H     2.11044  -0.65878   1.11221
H     2.28675  -0.70312  -0.64310
H     1.27406   1.53028   0.08068
H    -1.05709   1.68241  -0.15079
H    -2.17936  -0.41934  -1.09130
H    -2.36180  -0.35829   0.66280
H    -1.14375  -1.43956  -0.06028
