51
Generated by autodE on: 2022-06-24. E = -1097.952988 Ha
C     0.02121   2.68988  -0.34508
N     0.01506   1.22203  -0.19112
C     1.17953   0.54900   0.03520
C     2.26943   1.16121   0.79109
C     3.61549   0.85310   0.48010
C     4.66577   1.42350   1.19403
C     4.40847   2.31389   2.24576
C     3.08431   2.61677   2.57824
C     2.02815   2.04588   1.86716
C     1.27228  -0.86093  -0.37484
C     0.80629  -1.29015  -1.63776
C     0.90356  -2.62477  -2.01874
C     1.46175  -3.57470  -1.14975
C     1.92289  -3.16629   0.10332
C     1.82910  -1.82539   0.48752
C    -1.19330   0.55583  -0.20493
C    -2.19131   0.86701  -1.22223
C    -1.82087   1.30207  -2.51844
C    -2.78267   1.58807  -3.48765
C    -4.14414   1.43395  -3.20500
C    -4.53017   0.98781  -1.93342
C    -3.57415   0.71045  -0.95948
C    -1.37230  -0.58245   0.70416
C    -2.01545  -1.76508   0.28215
C    -2.19171  -2.84377   1.15289
C    -1.72585  -2.77609   2.46817
C    -1.07626  -1.61053   2.90221
C    -0.89903  -0.53550   2.03714
H     1.00928   3.02437  -0.68034
H    -0.72605   2.97942  -1.08899
H    -0.23791   3.17508   0.60470
H     3.82861   0.16811  -0.34260
H     5.69630   1.17719   0.92642
H     5.23411   2.76048   2.80449
H     2.86955   3.29359   3.40897
H     1.00260   2.26685   2.16472
H     0.36717  -0.56384  -2.32333
H     0.54699  -2.93036  -3.00555
H     1.53365  -4.62216  -1.45145
H     2.35271  -3.89600   0.79408
H     2.17622  -1.52026   1.47601
H    -0.76302   1.40003  -2.77034
H    -2.46380   1.91956  -4.47926
H    -4.89614   1.65230  -3.96659
H    -5.59014   0.86347  -1.69716
H    -3.89350   0.37750   0.02980
H    -2.36614  -1.84274  -0.74814
H    -2.68855  -3.74875   0.79371
H    -1.86165  -3.61930   3.14923
H    -0.70925  -1.54029   3.92937
H    -0.38700   0.36124   2.39175
