63
Generated by autodE on: 2022-06-24. E = -1255.211909 Ha. Imaginary frequency = -290.3 cm-1
C     1.22772   2.69320  -1.43663
C     0.81603   1.27775  -1.72252
C    -0.49812   0.93386  -1.96342
C    -1.59037   1.94215  -2.16891
C    -1.21389  -0.01946   0.25417
C    -1.50855  -1.40845  -0.18259
C    -1.09813  -2.49187   0.61910
C    -1.38312  -3.80893   0.25781
C    -2.10860  -4.07847  -0.90733
C    -2.56505  -3.01180  -1.69033
C    -2.27537  -1.69551  -1.32840
C    -2.35652   0.81893   0.64619
C    -3.67062   0.30398   0.73920
C    -4.75267   1.12312   1.06553
C    -4.56255   2.48414   1.32500
C    -3.26905   3.01562   1.24303
C    -2.19161   2.20360   0.90015
N     0.00208   0.25472   0.88815
C    -0.07439   0.64929   2.31921
C     1.25077   0.02906   0.31673
C     2.41703   0.79159   0.77486
C     3.72600   0.36500   0.42755
C     4.85359   1.11986   0.74485
C     4.73155   2.33643   1.42486
C     3.45122   2.79262   1.75546
C     2.32004   2.04757   1.42956
C     1.53942  -1.35837  -0.21569
C     1.30231  -1.84126  -1.50915
C     1.55971  -3.17645  -1.83917
C     2.07127  -4.05900  -0.88686
C     2.32929  -3.59169   0.40596
C     2.06594  -2.26192   0.73113
H     2.30027   2.77192  -1.21680
H     0.67747   3.12057  -0.58240
H     1.01791   3.34692  -2.30361
H     1.60721   0.61249  -2.06587
H    -0.68875  -0.05195  -2.38791
H    -2.59127   1.49944  -2.06252
H    -1.52644   2.79009  -1.47425
H    -1.52445   2.36400  -3.19073
H    -0.54444  -2.29165   1.53632
H    -1.03658  -4.62915   0.89134
H    -2.32665  -5.10912  -1.19701
H    -3.14818  -3.20709  -2.59391
H    -2.64449  -0.87582  -1.94619
H    -3.84531  -0.75772   0.56494
H    -5.75360   0.68854   1.13006
H    -5.40955   3.12376   1.58372
H    -3.10162   4.07944   1.43010
H    -1.20131   2.64813   0.80075
H    -0.26912   1.71251   2.49272
H     0.86366   0.37911   2.81496
H    -0.88542   0.07463   2.78460
H     3.86119  -0.56998  -0.11380
H     5.84086   0.75012   0.45612
H     5.61618   2.92439   1.67961
H     3.32626   3.75319   2.26181
H     1.34766   2.47475   1.65532
H     0.88716  -1.19667  -2.27768
H     1.34877  -3.52535  -2.85283
H     2.26676  -5.10183  -1.14756
H     2.73052  -4.26649   1.16616
H     2.25967  -1.91010   1.74681
