41
Generated by autodE on: 2022-06-03. E = -3751.378042 Ha
C    -2.97774  -2.62292  -2.58889
O    -1.81170  -1.82395  -2.30842
C    -1.32849  -1.89874  -1.08689
O    -1.73973  -2.60683  -0.19641
C    -0.11271  -1.01079  -0.86973
O     0.23379  -0.24395  -2.11146
C     1.52474   0.10849  -1.95584
O     2.17435   0.75509  -2.72512
C     1.93570  -0.50561  -0.56299
C     3.35567  -0.74436  -0.38438
N     4.48196  -0.99117  -0.27815
C     1.14688   0.38595   0.42043
C    -0.13942   0.04631   0.24187
C    -1.31127   0.53827   1.01266
Br   -2.89310   0.76648  -0.17447
C    -1.64190  -0.32905   2.23013
C    -0.41260  -0.62308   3.10642
C     0.43382   0.58731   3.55802
C     1.77797   0.82536   2.85667
C     1.72492   1.40519   1.39132
C     3.09000   1.81816   1.00664
N     4.15986   2.17664   0.74636
C     0.94247   2.66136   1.38008
N     0.35149   3.65774   1.40041
N     1.10127  -1.73210  -0.55793
C     1.48725  -2.78268  -1.50650
H    -3.80456  -2.31949  -1.93135
H    -2.75115  -3.68686  -2.43535
H    -3.22716  -2.42744  -3.63704
H    -1.12348   1.56386   1.33971
H    -2.40530   0.20675   2.81506
H    -2.07793  -1.28133   1.89906
H    -0.79618  -1.13298   4.00301
H     0.23290  -1.35638   2.60000
H    -0.16696   1.51257   3.54389
H     0.70334   0.43950   4.61449
H     2.35713  -0.10784   2.78912
H     2.36659   1.54205   3.44729
H     2.48416  -3.15079  -1.23311
H     1.50112  -2.45290  -2.55892
H     0.78004  -3.61587  -1.40200
