19
Generated by autodE on: 2022-06-03. E = -681.046420 Ha
C     4.05672  -0.70249  -0.58243
O     2.79484  -0.11695  -0.21179
C     1.70953  -0.81287  -0.51823
O     1.68712  -1.88857  -1.08112
C     0.48905  -0.10796  -0.08244
O     0.53009   1.06144   0.55135
C    -0.80434   1.48350   0.84618
O    -1.01299   2.52623   1.42340
C    -1.60501   0.43333   0.31322
C    -3.00271   0.34297   0.32475
N    -4.16861   0.29118   0.34658
N    -0.75610  -0.51626  -0.24450
C    -1.19820  -1.75441  -0.89547
H     4.18966  -1.66634  -0.07112
H     4.09988  -0.85101  -1.67052
H     4.82197   0.01188  -0.26068
H    -2.29292  -1.76820  -0.88910
H    -0.82552  -1.77600  -1.92536
H    -0.80645  -2.61541  -0.34189
