22
Generated by autodE on: 2022-06-03. E = -3070.278637 Ha
N    -1.47682  -4.01784  -0.28187
C    -1.11821  -3.02552  -0.76006
C    -0.69520  -1.73741  -1.34568
C    -0.26578  -1.97341  -2.74180
N     0.05603  -2.11979  -3.84508
C     0.39160  -1.10007  -0.59042
C     0.97797  -0.15420  -0.11301
C     1.26143   1.20343   0.28828
Br    0.90861   1.38271   2.25897
C     0.34174   2.13140  -0.52483
C    -1.14022   1.72153  -0.62274
C    -1.56283   0.71695  -1.73166
C    -1.91089  -0.72604  -1.32441
H     2.31481   1.48930   0.18844
H     0.77964   2.18367  -1.53680
H     0.42583   3.14091  -0.09537
H    -1.49054   1.36615   0.36091
H    -1.69503   2.65273  -0.81067
H    -2.48260   1.11076  -2.18901
H    -0.81771   0.70801  -2.54517
H    -2.31466  -0.75616  -0.30195
H    -2.67269  -1.14475  -1.99782
