41
Generated by autodE on: 2022-06-03. E = -3751.320189 Ha. Imaginary frequency = -340.8 cm-1
C    -3.83459  -1.57353  -2.16619
O    -2.63455  -0.79841  -1.97971
C    -1.49349  -1.46799  -1.95238
O    -1.36846  -2.66259  -2.09300
C    -0.34992  -0.52773  -1.72260
O    -0.39328   0.65948  -2.40589
C     0.87506   1.23574  -2.35881
O     1.11187   2.32501  -2.81092
C     1.68463   0.22854  -1.67959
C     3.08714   0.26896  -1.51504
N     4.23831   0.32931  -1.35937
C     0.62947   0.98120   0.33338
C    -0.45847   0.36967   0.25278
C    -1.73031   0.10056   0.93707
Br   -1.84854  -1.88270   1.31248
C    -1.85281   0.87363   2.24845
C    -0.65197   0.69613   3.19780
C     0.22509   1.93598   3.41366
C     0.75306   2.68558   2.18980
C     1.55417   1.83339   1.13211
C     2.53545   0.95287   1.80383
N     3.27038   0.24335   2.35034
C     2.29667   2.78503   0.27679
N     2.85617   3.56466  -0.37114
N     0.94568  -0.92631  -1.62220
C     1.39999  -2.09785  -0.87811
H    -3.94612  -2.29138  -1.34155
H    -4.65783  -0.85151  -2.16236
H    -3.79247  -2.10916  -3.12424
H    -2.58620   0.27076   0.27467
H    -2.79353   0.57574   2.73275
H    -1.97815   1.93248   1.96432
H    -1.01665   0.38247   4.18734
H    -0.02599  -0.13973   2.84689
H    -0.34426   2.68505   3.98884
H     1.07709   1.64839   4.05065
H     1.42821   3.48281   2.53306
H    -0.05661   3.16383   1.62098
H     2.39347  -2.38005  -1.24725
H     0.69834  -2.91949  -1.03685
H     1.46436  -1.84056   0.19079
