17
Generated by autodE on: 2022-06-30. E = -472.501815 Ha
C     3.79285   1.01385   0.07518
C     2.47638   0.43639  -0.03075
N     1.42009  -0.03591  -0.11651
C     0.14144  -0.47279  -0.17368
C    -0.11054  -1.78509  -0.60242
N    -0.36268  -2.87374  -0.95582
C    -0.88851   0.49478   0.22131
O    -0.58879   1.64947   0.57160
N    -2.17399   0.06697   0.17716
C    -3.26652   0.92110   0.59394
H     4.38855   0.48671   0.83665
H     3.67307   2.06655   0.37973
H     4.30576   0.98242  -0.89875
H    -2.37110  -0.90171  -0.04936
H    -3.22602   1.15114   1.67247
H    -3.25413   1.87641   0.04684
H    -4.21477   0.41098   0.38297
