70
Generated by autodE on: 2022-06-30. E = -1517.460189 Ha. Imaginary frequency = -326.8 cm-1
C   -11.52255  -8.27249  -2.68574
N   -11.19766  -7.18390  -1.78493
C   -10.88941  -7.41635  -0.49001
O   -11.01042  -8.53213   0.03228
C   -10.41115  -6.24453   0.29907
C   -10.36369  -4.94062  -0.25766
N   -10.34757  -3.87479  -0.73329
N   -10.52610  -6.36139   1.62441
C   -10.08454  -6.88267   2.61197
C   -10.53342  -7.24843   3.96051
C    -7.98060  -7.42842   1.85994
C    -7.94035  -7.17899   0.64654
C    -7.26068  -7.15736  -0.67372
C    -7.91116  -8.16380  -1.63812
C    -7.23337  -5.73264  -1.24100
C    -6.84560  -4.67032  -0.40565
C    -6.77270  -3.36361  -0.88709
C    -7.09026  -3.08831  -2.22255
C    -7.47766  -4.13391  -3.06192
C    -7.54699  -5.44544  -2.57562
C    -5.78077  -7.60565  -0.40939
C    -5.63684  -8.91127   0.39564
C    -5.04345  -8.73904   1.80057
C    -5.68094  -7.71059   2.74111
C    -7.21055  -7.84570   3.07808
C    -7.47618  -6.83733   4.21923
C    -7.63739  -7.20713   5.55995
C    -7.86893  -6.24359   6.54776
C    -7.93948  -4.88935   6.21389
C    -7.76904  -4.50619   4.87932
C    -7.53929  -5.47061   3.89684
C    -7.54082  -9.29834   3.44999
C    -8.61153  -9.98617   2.85997
C    -8.88973 -11.31529   3.19658
C    -8.09426 -11.98877   4.12558
C    -7.01265 -11.32115   4.70928
C    -6.73830  -9.99440   4.37137
H   -11.80214  -7.85362  -3.66013
H   -12.36703  -8.86004  -2.29666
H   -10.66717  -8.95555  -2.82483
H   -10.99651  -6.27265  -2.18490
H   -11.61829  -7.43294   3.95413
H   -10.00175  -8.13396   4.32522
H   -10.30509  -6.41485   4.64216
H    -7.27161  -8.31405  -2.52007
H    -8.05131  -9.13528  -1.14638
H    -8.88618  -7.81084  -1.98336
H    -6.60717  -4.87171   0.64131
H    -6.47355  -2.55444  -0.21622
H    -7.03907  -2.06506  -2.60228
H    -7.73159  -3.93335  -4.10582
H    -7.85359  -6.24122  -3.25409
H    -5.25996  -6.78819   0.11006
H    -5.30082  -7.69624  -1.39662
H    -6.61015  -9.41813   0.47360
H    -4.98554  -9.60986  -0.15371
H    -5.03068  -9.72395   2.29380
H    -3.98454  -8.44222   1.69848
H    -5.53511  -6.69381   2.34771
H    -5.13116  -7.74317   3.69450
H    -7.61312  -8.25708   5.84773
H    -8.00407  -6.56053   7.58481
H    -8.12650  -4.13850   6.98520
H    -7.82157  -3.45128   4.59913
H    -7.42709  -5.15967   2.85652
H    -9.23441  -9.48487   2.11819
H    -9.73180 -11.82479   2.72183
H    -8.30845 -13.02760   4.38757
H    -6.37322 -11.83705   5.42969
H    -5.88292  -9.49821   4.83147
