43
Generated by autodE on: 2022-06-21. E = -1066.935725 Ha
C     0.86560   4.94672  -0.33569
N     0.43960   3.65514   0.16494
C    -0.59255   2.99754  -0.39301
O    -1.27756   3.43797  -1.32156
N    -0.93798   1.77260   0.20790
O     0.05550   1.26775   1.10381
C     0.45652  -0.05242   0.66193
C     1.94938  -0.21884   0.75292
C     2.48082  -1.40732   1.27044
C     3.86432  -1.61090   1.30216
C     4.72805  -0.62099   0.82586
C     4.20268   0.57119   0.31295
C     2.82159   0.76966   0.27240
C    -0.11232  -0.18461  -0.75817
C    -0.33510  -1.62887  -1.19243
C    -1.56081  -2.21047  -0.53105
C    -1.78343  -3.65666  -0.40282
N    -0.83598  -4.46771  -0.94074
O    -2.78216  -4.14801   0.16258
C    -2.54241  -1.37881  -0.07810
N    -2.50460  -0.02023  -0.08952
C    -3.72495   0.75345   0.06477
C    -1.37074   0.68433  -0.66503
H     0.02422   5.65570  -0.35552
H     1.27756   4.87811  -1.35611
H     1.64268   5.34304   0.32956
H     0.99369   3.16316   0.85776
H    -0.03205  -0.78832   1.32081
H     1.80381  -2.17641   1.65092
H     4.26718  -2.54260   1.70633
H     5.80928  -0.77550   0.85539
H     4.87348   1.34910  -0.05961
H     2.41414   1.69710  -0.13305
H     0.57220   0.32246  -1.45300
H    -0.42220  -1.67232  -2.29217
H     0.57026  -2.20248  -0.93479
H    -0.04320  -4.11503  -1.46113
H    -0.98119  -5.47035  -0.90008
H    -3.45216  -1.80984   0.34578
H    -4.44530   0.18967   0.67222
H    -4.18672   0.98103  -0.91314
H    -3.50538   1.70458   0.56838
H    -1.64775   1.13190  -1.62959
