20
Generated by autodE on: 2022-06-21. E = -457.715332 Ha
C    -3.11918   0.52806  -0.30259
N    -1.82980  -0.06802   0.00608
C    -1.76830  -1.40912   0.40493
C    -0.60811  -2.04816   0.62304
C     0.73942  -1.39038   0.45621
C     0.57411   0.05170   0.00494
C     1.74146   0.91444  -0.23769
N     2.95569   0.34415  -0.03375
O     1.65477   2.10263  -0.60942
C    -0.65843   0.59992  -0.19008
H    -3.81863   0.39320   0.53690
H    -2.98952   1.60325  -0.47835
H    -3.56827   0.07619  -1.20328
H    -2.73728  -1.89570   0.53005
H    -0.64210  -3.09313   0.93962
H     1.35547  -1.96322  -0.26698
H     1.30994  -1.44467   1.40616
H     3.06673  -0.61641   0.26446
H     3.78719   0.90213  -0.19351
H    -0.74769   1.63674  -0.51845
