23
Generated by autodE on: 2022-06-21. E = -609.135908 Ha
C     4.63202   0.70576  -0.52732
N     3.82216  -0.20747   0.25325
C     2.45325  -0.19585   0.12633
O     1.86230   0.76138  -0.43212
N     1.86854  -1.29893   0.67197
O     0.46612  -1.23188   0.39061
C    -0.15496  -0.15303   0.67811
C    -1.49961   0.04846   0.22269
C    -2.12747  -0.85112  -0.66857
C    -3.43762  -0.61844  -1.06640
C    -4.12625   0.50904  -0.59264
C    -3.50712   1.40872   0.28291
C    -2.19618   1.18277   0.69257
H     4.64529   0.46568  -1.60676
H     5.66598   0.67697  -0.15699
H     4.25437   1.73159  -0.41741
H     4.22880  -1.11536   0.45668
H     0.30603   0.55968   1.36723
H    -1.57633  -1.71740  -1.03751
H    -3.93056  -1.30958  -1.75288
H    -5.15489   0.68769  -0.91418
H    -4.04989   2.28454   0.64339
H    -1.69771   1.87305   1.37663
