43
Generated by autodE on: 2022-06-21. E = -1066.867625 Ha. Imaginary frequency = -213.5 cm-1
C    -0.30203   5.33582   0.09948
N    -0.14395   3.90685   0.26717
C    -1.17294   3.14441   0.75959
O    -2.33448   3.60972   0.84575
N    -0.96820   1.84838   1.12586
O     0.40779   1.52934   0.94756
C     0.62709   0.25806   0.78770
C     1.99912  -0.20312   0.70248
C     2.26434  -1.57074   0.91419
C     3.56983  -2.05434   0.81499
C     4.61620  -1.18212   0.50253
C     4.35774   0.18031   0.28957
C     3.05957   0.67106   0.38506
C    -0.05208  -0.07925  -1.40063
C     0.01306  -1.57876  -1.54100
C    -1.19423  -2.20920  -0.88014
C    -1.22607  -3.63780  -0.48813
N    -0.08553  -4.33751  -0.69008
O    -2.23381  -4.17761   0.00000
C    -2.31609  -1.47812  -0.66685
N    -2.41494  -0.13566  -0.97577
C    -3.60977   0.61180  -0.59678
C    -1.26989   0.55125  -1.27624
H    -0.39323   5.87759   1.05926
H     0.57050   5.73322  -0.43679
H    -1.20095   5.55743  -0.49334
H     0.79621   3.54751   0.38253
H    -0.15443  -0.42316   1.13341
H     1.44314  -2.24603   1.16240
H     3.76985  -3.11476   0.98264
H     5.63766  -1.56102   0.42298
H     5.17793   0.85859   0.04442
H     2.85311   1.72872   0.21132
H     0.78205   0.51414  -1.77593
H     0.06651  -1.86613  -2.61088
H     0.95367  -1.94956  -1.10143
H     0.75860  -3.91426  -1.05495
H    -0.05948  -5.31350  -0.41410
H    -3.20651  -1.93160  -0.23081
H    -4.49102  -0.03486  -0.68981
H    -3.72735   1.47657  -1.26268
H    -3.52386   0.98127   0.43635
H    -1.38934   1.61931  -1.44291
