49
Generated by autodE on: 2022-06-02. E = -1113.038190 Ha
C    -1.20917   3.38411   1.95761
C    -1.63332   2.42548   0.88512
O    -2.79388   2.31343   0.52440
C    -0.56473   1.57891   0.24159
N     0.66955   1.83030   0.44888
C     1.52278   0.93639  -0.31462
C     2.56256   0.24615   0.54027
C     3.73152  -0.23617  -0.06674
C     4.68330  -0.93212   0.68058
C     4.48087  -1.14681   2.04853
C     3.32331  -0.65962   2.66155
C     2.36798   0.03304   1.91085
C     0.56496  -0.02488  -1.13323
C     0.89344  -1.42764  -0.93334
N     1.16918  -2.55004  -0.82024
C     0.56386   0.33288  -2.65772
C    -0.28682  -0.68628  -3.43153
C    -1.72978  -0.37046  -2.94631
C    -1.54034   0.85299  -2.01505
C    -0.35498   1.56572  -2.68756
C    -0.90936   0.39825  -0.66466
C    -1.71125  -0.59651   0.16716
C    -1.11273  -1.22824   1.26971
C    -1.84289  -2.08918   2.09246
C    -3.19550  -2.32632   1.83477
C    -3.80955  -1.68485   0.75516
C    -3.07644  -0.82478  -0.06639
H    -2.07951   3.95348   2.30737
H    -0.43325   4.06519   1.57820
H    -0.76185   2.82624   2.79600
H     2.06438   1.55410  -1.04754
H     3.88943  -0.06861  -1.13534
H     5.58844  -1.30499   0.19534
H     5.22619  -1.68946   2.63483
H     3.16037  -0.81851   3.73020
H     1.46748   0.41347   2.39492
H     1.58584   0.46119  -3.03738
H    -0.17672  -0.50423  -4.51032
H     0.01290  -1.72593  -3.24177
H    -2.18966  -1.22540  -2.43689
H    -2.38613  -0.09599  -3.78471
H    -2.44358   1.45432  -1.86887
H    -0.58055   1.88209  -3.71602
H     0.02451   2.43362  -2.13186
H    -0.06392  -1.04271   1.50114
H    -1.35033  -2.57099   2.94029
H    -3.77019  -2.99890   2.47586
H    -4.87034  -1.84875   0.55106
H    -3.58544  -0.31885  -0.88577
