21
Generated by autodE on: 2022-06-02. E = -516.633907 Ha
C    -4.37948  -0.01806   0.55751
C    -3.06287  -0.59836   0.12068
O    -2.78365  -1.79563   0.19233
C    -2.14098   0.31014  -0.53385
N    -1.15744   0.92642  -0.17040
C    -0.02333   1.46261   0.09463
C     1.22134   0.70497   0.00955
C     2.44656   1.37694   0.18747
C     3.65228   0.68084   0.09997
C     3.65512  -0.69311  -0.16513
C     2.44042  -1.36949  -0.33657
C     1.23130  -0.68231  -0.24668
H    -4.26391   1.01091   0.93053
H    -5.06329   0.01115  -0.30767
H    -4.81875  -0.66418   1.33059
H    -0.00818   2.51630   0.38916
H     2.44343   2.45077   0.38994
H     4.59605   1.21364   0.23834
H     4.59985  -1.23738  -0.23209
H     2.43677  -2.44400  -0.53449
H     0.28644  -1.22002  -0.35779
