49
Generated by autodE on: 2022-06-02. E = -1112.956942 Ha. Imaginary frequency = -302.0 cm-1
C    -1.98561   2.30355   2.16019
C    -1.54178   2.57337   0.75291
O    -2.10584   3.34253  -0.01865
C    -0.43998   1.74757   0.26451
N     0.77756   1.77413   0.27852
C     1.88016   1.22007  -0.16847
C     2.74044   0.41644   0.67796
C     3.93731  -0.09665   0.14163
C     4.74797  -0.93820   0.90298
C     4.37956  -1.27767   2.20894
C     3.19029  -0.77153   2.75058
C     2.37516   0.06815   1.99562
C     0.27344  -0.41969  -1.46152
C     1.03419  -1.52645  -1.03830
N     1.70101  -2.43935  -0.73634
C     0.33992   0.05501  -2.91776
C    -0.63360  -0.86968  -3.70616
C    -2.02553  -0.45910  -3.14079
C    -1.67593   0.67235  -2.12308
C    -0.49223   1.34640  -2.83996
C    -0.97611  -0.01100  -0.94339
C    -1.72162  -0.67906   0.14812
C    -1.05218  -1.26921   1.23900
C    -1.76465  -1.84786   2.28857
C    -3.16452  -1.85170   2.27733
C    -3.84114  -1.26539   1.20464
C    -3.12898  -0.68220   0.15277
H    -2.74876   3.03734   2.45273
H    -1.12775   2.33393   2.84980
H    -2.41101   1.28693   2.21059
H     2.26379   1.59619  -1.12167
H     4.21856   0.16325  -0.88153
H     5.67258  -1.33239   0.47507
H     5.01635  -1.93505   2.80524
H     2.89994  -1.03303   3.77077
H     1.45163   0.46409   2.42268
H     1.35183   0.12509  -3.33588
H    -0.56209  -0.66740  -4.78587
H    -0.40030  -1.93220  -3.54560
H    -2.55500  -1.29330  -2.66033
H    -2.67875  -0.05860  -3.93004
H    -2.51792   1.31764  -1.84900
H    -0.76563   1.73132  -3.83341
H    -0.02324   2.15225  -2.26023
H     0.03646  -1.24892   1.28360
H    -1.22201  -2.29184   3.12670
H    -3.72167  -2.30248   3.10183
H    -4.93364  -1.25601   1.18487
H    -3.67687  -0.21908  -0.66828
