33
Generated by autodE on: 2022-06-17. E = -711.106459 Ha
C    -2.59183   2.11082  -0.53283
C    -2.92612   0.66494  -0.74260
O    -4.06517   0.25700  -0.90766
C    -1.78671  -0.34232  -0.71391
O    -0.50526   0.26118  -0.85576
N     0.18943   0.07882   0.40054
C     1.54608   0.39447   0.27687
C     2.04143   1.11436  -0.82624
C     3.39114   1.47351  -0.87839
C     4.26917   1.12606   0.15117
C     3.77530   0.40744   1.24704
C     2.43223   0.04216   1.31723
C    -0.25421  -1.23934   0.88701
C     0.42287  -2.41340   0.18683
C    -1.76625  -1.11515   0.63112
C    -2.57961  -2.39838   0.61030
H    -2.00242   2.23052   0.38996
H    -3.51159   2.70753  -0.48091
H    -1.95588   2.46466  -1.36014
H    -1.92885  -1.03821  -1.55681
H     1.36953   1.38901  -1.63692
H     3.75673   2.03204  -1.74401
H     5.32292   1.40851   0.10258
H     4.44478   0.12426   2.06320
H     2.06578  -0.51073   2.18308
H    -0.06504  -1.27781   1.96851
H     0.24215  -2.39144  -0.89863
H     0.04339  -3.36604   0.58329
H     1.50920  -2.39014   0.35474
H    -2.16563  -0.45002   1.41269
H    -2.51345  -2.92027   1.57750
H    -3.63781  -2.16601   0.41914
H    -2.23861  -3.08341  -0.18007
