21
Generated by autodE on: 2022-07-27. E = -553.709677 Ha
C    -3.04650   0.71708   0.91957
C    -3.19647  -0.08360  -0.34070
O    -4.30577  -0.34343  -0.82392
C    -2.04170  -0.59797  -1.06318
O    -0.77529  -0.47185  -0.78525
N    -0.27869   0.17683   0.25146
C     1.10374   0.10851   0.23862
C     1.88892  -0.54802  -0.73845
C     3.27608  -0.53839  -0.62836
C     3.90827   0.11394   0.43987
C     3.13396   0.76460   1.40833
C     1.74527   0.76532   1.31333
H    -2.50245   0.13906   1.68244
H    -4.04547   0.99090   1.28479
H    -2.44367   1.61968   0.73504
H    -2.20022  -1.17733  -1.97407
H     1.40601  -1.05741  -1.57219
H     3.87640  -1.04697  -1.38663
H     4.99770   0.11399   0.51525
H     3.61771   1.27513   2.24418
H     1.12970   1.26833   2.06163
