21
Generated by autodE on: 2022-06-17. E = -553.717720 Ha
C     3.08107   1.10174  -0.50766
C     3.24523  -0.19979   0.23643
O     4.35136  -0.65952   0.54080
C     2.05661  -0.93748   0.60683
O     0.90696  -0.43026   0.27522
N    -0.22821  -1.03201   0.56763
C    -1.30192  -0.28931   0.11160
C    -1.21863   0.95067  -0.56583
C    -2.38429   1.59413  -0.96953
C    -3.64287   1.03007  -0.71474
C    -3.72825  -0.19661  -0.04509
C    -2.57239  -0.85396   0.36641
H     2.48126   1.81249   0.08252
H     2.55051   0.93846  -1.45905
H     4.07242   1.52920  -0.70543
H     2.07918  -1.88912   1.14486
H    -0.24516   1.39742  -0.76785
H    -2.31332   2.55138  -1.49152
H    -4.55015   1.54556  -1.03671
H    -4.70415  -0.64378   0.15747
H    -2.62376  -1.81078   0.88951
