61
Generated by autodE on: 2022-06-07. E = -1547.416794 Ha
C   -10.60007  -3.82280  10.61684
N    -9.23698  -3.90105  11.10553
C    -8.92510  -3.55835  12.36077
O    -9.77278  -3.11319  13.14825
C    -7.46699  -3.87076  12.81049
C    -6.92043  -2.86753  13.86091
O    -5.72624  -2.53513  13.83258
N    -7.76658  -2.45679  14.80907
C    -7.36769  -1.48347  15.80628
C    -7.58287  -5.26427  13.50264
C    -6.36834  -5.76376  14.28513
C    -5.04832  -5.87817  13.52440
C    -5.06111  -6.77474  12.28766
C    -5.84537  -6.27197  11.03744
C    -7.17960  -6.93769  10.70178
C    -7.36814  -8.38139  11.06313
O    -8.03238  -6.32959  10.06788
C    -5.91001  -4.77529  10.89116
C    -6.53860  -3.81196  11.61378
C    -6.18440  -2.52311  10.96504
C    -6.64616  -1.15804  11.40466
C    -5.69467  -0.02065  11.21271
O    -7.75811  -1.02622  11.89047
N    -5.44210  -2.64060   9.91639
C    -5.25046  -4.06606   9.71420
C    -3.73769  -4.34002   9.51900
C    -3.05981  -3.56205   8.43070
O    -3.15037  -5.11444  10.24378
C    -6.04955  -4.51238   8.46852
O    -7.02625  -3.94458   8.04361
O    -5.54960  -5.64127   7.97886
C    -6.28150  -6.27139   6.90998
H   -10.99177  -2.79996  10.71951
H   -11.27045  -4.50202  11.16946
H   -10.60844  -4.10066   9.55570
H    -8.56669  -4.44372  10.56067
H    -8.75586  -2.63342  14.61192
H    -8.17078  -1.38045  16.54685
H    -7.17210  -0.49587  15.35482
H    -6.45122  -1.80899  16.31922
H    -7.89256  -5.99571  12.74620
H    -8.43149  -5.19275  14.19779
H    -6.21317  -5.11578  15.16318
H    -6.63724  -6.75648  14.68496
H    -4.29913  -6.29472  14.21787
H    -4.67981  -4.87736  13.25574
H    -4.01925  -6.90528  11.96773
H    -5.42644  -7.77430  12.56189
H    -5.25746  -6.64230  10.17998
H    -8.24439  -8.78128  10.53725
H    -7.52909  -8.46439  12.15067
H    -6.47011  -8.97009  10.82263
H    -6.18423   0.92777  11.46749
H    -4.82570  -0.18403  11.87245
H    -5.31717  -0.00392  10.18024
H    -2.11644  -4.05347   8.15904
H    -2.83915  -2.55413   8.81850
H    -3.70286  -3.43743   7.54801
H    -7.29494  -6.52071   7.25351
H    -6.33226  -5.60169   6.04067
H    -5.72358  -7.18102   6.66301
