39
Generated by autodE on: 2022-06-07. E = -881.110786 Ha
C     2.23137  -3.30278   2.34067
N     2.08068  -2.25788   1.34778
C     0.89202  -1.70840   1.07892
O    -0.15283  -2.03817   1.65065
C     0.88473  -0.54464   0.05236
C     1.90671  -0.75670  -1.08543
O     3.11010  -0.91119  -0.82697
N     1.43855  -0.74823  -2.33665
C     2.31606  -0.90506  -3.48144
C    -0.47211  -0.30829  -0.42641
C    -1.48334   0.30267  -0.69534
C    -2.39963   1.43650  -0.73124
C    -3.44148   1.38133   0.40472
C    -3.88406   0.02496   0.87015
O    -3.88966   2.41257   0.87126
C    -1.53165   2.71778  -0.68201
C    -0.45302   2.74837   0.42248
C     0.93341   2.09987   0.14004
C     1.27431   0.76663   0.83701
H     1.88655  -2.96273   3.32987
H     3.29127  -3.57607   2.41037
H     1.65115  -4.20002   2.07147
H     2.87668  -1.93236   0.79830
H     0.44755  -0.57813  -2.48258
H     3.04219  -0.07899  -3.54267
H     1.70888  -0.91266  -4.39433
H     2.87847  -1.84898  -3.41769
H    -3.01091   1.44115  -1.65296
H    -3.03969  -0.47429   1.37368
H    -4.15084  -0.60650   0.00753
H    -4.73236   0.11521   1.56068
H    -2.21939   3.56400  -0.53873
H    -1.05728   2.85297  -1.66666
H    -0.26953   3.81331   0.63386
H    -0.87140   2.33525   1.35666
H     1.09270   2.00626  -0.94729
H     1.69750   2.81410   0.48399
H     2.35561   0.70604   1.02620
H     0.76785   0.72193   1.81347
