22
Generated by autodE on: 2022-06-07. E = -666.179317 Ha
C    -0.68018   1.13429   3.44849
O    -0.34913   0.63640   2.14622
C    -1.06936   1.11940   1.11803
O    -1.96201   1.93874   1.25741
C    -0.64591   0.54106  -0.15831
N     0.34252  -0.34028  -0.15140
C     1.19024  -1.12594  -0.32701
C     2.26550  -2.07227  -0.54364
C     2.41922  -2.51447  -1.96805
O     2.94147  -2.45108   0.39925
C    -1.19705   0.82717  -1.49365
C    -2.32764   1.81088  -1.61829
O    -0.72521   0.25950  -2.47973
H    -0.00129   0.62908   4.14537
H    -1.72464   0.89874   3.69995
H    -0.53065   2.22286   3.49720
H     1.91450  -1.83247  -2.66672
H     1.96613  -3.51615  -2.06399
H     3.49035  -2.59624  -2.20417
H    -3.19729   1.47607  -1.03320
H    -2.59781   1.90181  -2.67837
H    -2.03472   2.79167  -1.21516
