61
Generated by autodE on: 2022-06-07. E = -1547.298267 Ha. Imaginary frequency = -281.5 cm-1
C   -10.44555  -3.32308  10.59446
N    -9.20617  -3.73609  11.22262
C    -8.88710  -3.36585  12.46847
O    -9.68220  -2.76285  13.20442
C    -7.48944  -3.79804  12.97964
C    -6.74268  -2.68864  13.76082
O    -5.50870  -2.60991  13.68842
N    -7.48471  -1.89423  14.53692
C    -6.90211  -0.80504  15.29485
C    -7.72874  -5.02788  13.92490
C    -6.51277  -5.61492  14.65535
C    -5.32538  -6.20183  13.86070
C    -5.67478  -7.18208  12.72084
C    -5.54209  -6.57132  11.28231
C    -6.31515  -7.46639  10.30951
C    -5.53169  -8.52909   9.60441
O    -7.51640  -7.31361  10.15740
C    -6.08400  -5.21303  11.31395
C    -6.63980  -4.26565  11.86974
C    -6.42621  -2.39034  10.47725
C    -6.82287  -1.03627  10.93185
C    -5.68992  -0.16219  11.36378
O    -8.00342  -0.74713  10.97073
N    -5.97689  -2.96522   9.53073
C    -5.60263  -4.10756   8.97849
C    -4.17385  -4.47147   9.04784
C    -3.27077  -3.48064   9.74068
O    -3.74995  -5.54232   8.62398
C    -6.70052  -4.82611   8.28961
O    -7.86598  -4.46936   8.36429
O    -6.29655  -5.89264   7.60642
C    -7.31678  -6.67619   6.96733
H   -11.31796  -3.66712  11.17015
H   -10.48570  -3.75678   9.58808
H   -10.49451  -2.22552  10.51232
H    -8.50880  -4.20433  10.64835
H    -8.49798  -1.97717  14.42196
H    -7.64550  -0.42648  16.00751
H    -6.58856   0.02438  14.63829
H    -6.01898  -1.15194  15.84994
H    -8.20827  -5.80030  13.30439
H    -8.46728  -4.71786  14.67952
H    -6.11175  -4.86269  15.35480
H    -6.92279  -6.41920  15.29012
H    -4.69816  -6.73325  14.59389
H    -4.69848  -5.38610  13.47211
H    -5.02302  -8.06736  12.76006
H    -6.70805  -7.54372  12.84326
H    -4.47971  -6.56017  10.99434
H    -6.19559  -9.20319   9.04835
H    -4.92002  -9.09336  10.32654
H    -4.83220  -8.03111   8.91340
H    -6.08161   0.80970  11.69123
H    -5.15215  -0.65903  12.18703
H    -4.97914  -0.03719  10.53089
H    -2.23881  -3.85091   9.70552
H    -3.58324  -3.36054  10.79096
H    -3.33161  -2.48864   9.26723
H    -8.02018  -7.06324   7.71636
H    -7.85511  -6.07004   6.22500
H    -6.79105  -7.50273   6.47628
