26
Generated by autodE on: 2022-06-27. E = -689.460868 Ha
C     3.07759  -1.01995  -0.18351
O     2.28367  -0.13348   0.61216
C     0.95565  -0.08102   0.29741
C     0.37841   0.98547  -0.32464
O     0.94024   2.11039  -0.76661
C     2.34416   2.36834  -0.65956
C    -1.10636   0.98970  -0.57711
O    -1.60660   1.95607  -1.13607
C    -1.92437  -0.17617  -0.15550
C    -3.39373  -0.13327  -0.44152
C    -1.33898  -1.23145   0.46312
C    -2.12232  -2.42696   0.90475
C     0.12924  -1.22448   0.74011
O     0.65968  -2.15690   1.34141
H     4.10606  -0.94315   0.19355
H     3.05375  -0.71705  -1.24357
H     2.73173  -2.06017  -0.09121
H     2.48971   3.36020  -1.10595
H     2.92614   1.62414  -1.22141
H     2.66385   2.38182   0.39045
H    -3.97511  -0.22262   0.49090
H    -3.69103  -0.98128  -1.08032
H    -3.67349   0.80059  -0.94307
H    -2.62842  -2.89882   0.04624
H    -2.91517  -2.13347   1.61267
H    -1.47483  -3.16872   1.38651
