51
Generated by autodE on: 2022-06-27. E = -1486.333512 Ha. Imaginary frequency = -200.6 cm-1
C     1.20510   5.11733  -0.47276
N     1.18526   3.76382   0.04997
C     0.61520   2.76758  -0.63168
O     0.10677   2.88825  -1.74699
C     0.62299   1.41709   0.07167
O     1.27219   1.44345   1.30845
C     1.67202   0.14326   1.60244
O     2.11350  -0.14269   2.68987
C     1.42821  -0.60400   0.38293
C     1.70385  -2.02544   0.16503
O     1.74472  -2.57302  -0.92317
O     1.85025  -2.66933   1.32505
C     2.03251  -4.09133   1.25510
N     1.11164   0.29739  -0.60260
C     1.19855   0.10165  -2.05013
C    -0.99593  -0.15881   1.43191
O    -0.87830   0.06132   2.73352
C    -0.77302  -0.97040   3.73238
C    -1.21932  -1.47933   0.83297
O    -1.22715  -2.52164   1.49730
C    -1.50017  -1.52315  -0.63521
C    -1.51418  -2.87330  -1.27933
C    -1.81584  -0.40138  -1.33808
C    -2.18876  -0.44014  -2.78716
C    -1.89240   0.90275  -0.64536
O    -2.54435   1.83874  -1.07851
C    -1.08769   1.05768   0.62911
O    -1.33931   2.22726   1.32856
C    -2.63259   2.35425   1.92615
H     1.72166   5.15482  -1.44376
H     1.73402   5.76150   0.23900
H     0.18206   5.50032  -0.61368
H     1.55514   3.57414   0.97586
H     2.94746  -4.33473   0.69664
H     2.11794  -4.43129   2.29316
H     1.16676  -4.56303   0.76941
H     0.82955  -0.89024  -2.31991
H     0.60362   0.87368  -2.54164
H     2.24996   0.19029  -2.36449
H    -1.72420  -1.50925   3.82601
H     0.03701  -1.66585   3.49272
H    -0.55125  -0.43205   4.66179
H    -2.53905  -3.13981  -1.58966
H    -1.14844  -3.64628  -0.59447
H    -0.89802  -2.87259  -2.19129
H    -2.36497   0.56980  -3.17681
H    -1.39070  -0.91855  -3.37675
H    -3.10124  -1.03954  -2.94294
H    -2.84822   1.51277   2.60125
H    -2.60869   3.28462   2.50877
H    -3.41826   2.42548   1.16011
