50
Generated by autodE on: 2022-10-22. E = -1617.583969 Ha
C     4.44019  -1.68629  -1.44408
O     3.17700  -0.99395  -1.45819
C     2.17343  -1.54962  -0.80780
O     2.18555  -2.62095  -0.25875
C     0.93341  -0.61624  -0.84789
C     0.74534  -0.14482  -2.23761
N     0.57755   0.10095  -3.35758
O    -0.20576  -1.34923  -0.46567
C    -1.04021  -0.65285   0.48112
C    -0.84520  -1.30768   1.87208
C    -0.39840  -2.73863   1.88013
O    -1.13254  -0.70719   2.89025
C    -2.49287  -0.81578   0.04244
C    -2.78231  -1.02613  -1.31492
C    -4.10359  -1.15567  -1.74557
C    -5.15631  -1.08208  -0.82818
C    -4.87429  -0.88336   0.52507
C    -3.55203  -0.75456   0.95923
C    -0.49400   0.83919   0.39991
O    -0.67021   1.66264   1.48042
C    -1.99964   2.05673   1.84327
O    -1.02917   1.35034  -0.78613
C    -1.01019   2.75655  -1.05380
C     1.04442   0.51388   0.23832
O     1.53947  -0.17368   1.35228
C     1.86564   0.49392   2.58044
C     1.97150   1.70580  -0.11254
F     1.80259   2.15268  -1.36295
F     1.76027   2.73970   0.71512
F     3.25590   1.35098   0.01960
H     5.13130  -1.05595  -2.01346
H     4.33291  -2.67116  -1.91880
H     4.78710  -1.80389  -0.40821
H     0.63025  -2.81641   1.50352
H    -0.46464  -3.12943   2.90339
H    -1.03064  -3.33304   1.20186
H    -1.97062  -1.08897  -2.03815
H    -4.31010  -1.31529  -2.80646
H    -6.19008  -1.18376  -1.16655
H    -5.68583  -0.83054   1.25441
H    -3.35475  -0.60312   2.01921
H    -2.36840   1.41068   2.64993
H    -2.68605   2.00822   0.98847
H    -1.93552   3.09481   2.19629
H    -0.45089   3.31799  -0.29591
H    -0.55161   2.91227  -2.03965
H    -2.04670   3.12484  -1.07201
H     2.00272  -0.31156   3.31256
H     2.80725   1.05364   2.48274
H     1.05761   1.15607   2.90861
