29
Generated by autodE on: 2022-10-26. E = -857.972478 Ha
C     4.62905  -0.27290   0.89049
O     3.65130  -0.50515  -0.13257
C     2.36971  -0.28551   0.20062
O     2.01490   0.09361   1.31525
C     1.47192  -0.50500  -0.89854
C     1.90010  -0.70925  -2.22087
N     2.26024  -0.90658  -3.31591
O     0.15022  -0.17241  -0.79789
C    -0.63955  -0.09483   0.22181
C    -0.31973  -0.74341   1.55642
C     0.18630  -2.15764   1.51790
O    -0.65731  -0.18780   2.58427
C    -1.91382   0.54154  -0.03080
C    -2.10348   1.26249  -1.23628
C    -3.32272   1.86943  -1.50572
C    -4.37494   1.77436  -0.58423
C    -4.20082   1.06498   0.60901
C    -2.98454   0.45068   0.89136
H     5.59420  -0.54853   0.45005
H     4.42206  -0.89652   1.77228
H     4.63755   0.78661   1.18513
H     0.90024  -2.31158   2.33854
H    -0.69003  -2.80491   1.69371
H     0.64173  -2.44424   0.56142
H    -1.27927   1.34995  -1.94445
H    -3.45674   2.42826  -2.43407
H    -5.33138   2.25680  -0.79766
H    -5.02235   0.98574   1.32363
H    -2.86810  -0.10806   1.81785
