26
Generated by autodE on: 2022-06-22. E = -595.074074 Ha
C     0.92834  -1.36813   0.61506
N    -0.10740  -1.36949  -0.04490
C    -1.27009  -1.33780  -0.58810
C    -2.27018  -0.32910  -0.24941
C    -2.01379   0.69510   0.68636
C    -2.99754   1.63477   0.99127
C    -4.25113   1.57839   0.36875
C    -4.51309   0.56825  -0.56390
C    -3.53473  -0.37768  -0.87063
C     2.16035  -0.65295   0.26248
C     2.21663   0.23053  -0.83590
C     3.39719   0.90890  -1.13013
C     4.53604   0.70937  -0.33785
C     4.49142  -0.16609   0.75173
C     3.30714  -0.84094   1.05381
H    -1.51804  -2.11174  -1.32298
H    -1.03586   0.75185   1.17020
H    -2.78459   2.42200   1.71872
H    -5.01771   2.31901   0.60778
H    -5.48803   0.51634  -1.05482
H    -3.74293  -1.16799  -1.59637
H     1.32535   0.38006  -1.45042
H     3.43562   1.59507  -1.97945
H     5.46118   1.24157  -0.57198
H     5.37996  -0.31920   1.36821
H     3.25439  -1.52240   1.90561
