28
Generated by autodE on: 2022-07-27. E = -575.434165 Ha
C    -3.32119   1.14424  -0.74036
C    -2.19542   0.32405  -0.20302
C    -2.11263  -1.10193  -0.60055
N    -1.30024   0.84687   0.60895
C    -1.49439   2.19341   1.17338
C    -0.06807   0.19798   0.90778
C     0.30180   0.15238   2.25577
N     0.62742   0.10806   3.38583
C     0.83174  -0.27263  -0.13184
C     0.67737   0.07095  -1.49846
C     1.59381  -0.35554  -2.46115
C     2.69493  -1.14345  -2.11039
C     2.86392  -1.49323  -0.76380
C     1.95516  -1.07269   0.20389
H    -4.18062   1.10376  -0.04697
H    -3.65672   0.72221  -1.69767
H    -3.05119   2.19803  -0.88689
H    -3.12692  -1.48748  -0.77875
H    -1.59488  -1.69712   0.16545
H    -1.54632  -1.21764  -1.54247
H    -1.07461   2.94522   0.48915
H    -2.55593   2.39601   1.35143
H    -0.95711   2.24520   2.12708
H    -0.15655   0.70150  -1.81301
H     1.44165  -0.06203  -3.50345
H     3.40509  -1.48057  -2.86857
H     3.71549  -2.10937  -0.46213
H     2.10879  -1.36400   1.24568
