46
Generated by autodE on: 2022-06-19. E = -811.371180 Ha. Imaginary frequency = -324.7 cm-1
C     0.00286   2.52314  -0.63056
N    -0.55245   1.36563   0.08598
C    -1.91190   1.15230   0.03336
C    -2.70088   2.10923  -0.82273
C    -2.65163   0.81146   1.30922
C    -1.97400  -0.80564  -0.98278
C    -1.68232  -0.37389  -2.40885
C    -3.43245  -1.18093  -0.77800
C    -0.98939  -1.57483  -0.32212
C    -1.31622  -2.42734   0.87258
C     0.23094  -2.04983  -1.05636
C     0.31747   0.47731   0.73792
C     0.05123   0.09573   2.07377
N    -0.08171  -0.26409   3.18159
C     1.70508   0.28318   0.29440
C     2.11820   0.48768  -1.04476
C     3.43058   0.24257  -1.44745
C     4.38257  -0.23360  -0.54063
C     3.99247  -0.45945   0.78381
C     2.68525  -0.20199   1.19436
H    -0.02616   2.40917  -1.72260
H     1.03991   2.67528  -0.32004
H    -0.56377   3.42429  -0.35958
H    -2.83428   3.07459  -0.30129
H    -3.70484   1.69738  -0.99042
H    -2.24224   2.31003  -1.79719
H    -2.31234  -0.09647   1.80782
H    -2.52229   1.65064   2.01622
H    -3.72449   0.71567   1.10689
H    -0.74030   0.18618  -2.49338
H    -2.48866   0.25889  -2.80520
H    -1.60403  -1.25100  -3.07692
H    -3.66988  -2.04870  -1.42162
H    -4.11386  -0.36999  -1.07608
H    -3.67478  -1.46928   0.25098
H    -2.10922  -2.02251   1.51212
H    -1.65468  -3.42580   0.53246
H    -0.42607  -2.59038   1.49884
H     1.03753  -2.34978  -0.37132
H    -0.04479  -2.94738  -1.64679
H     0.63866  -1.32254  -1.76479
H     1.40175   0.81777  -1.79359
H     3.70595   0.41355  -2.49135
H     5.40823  -0.42987  -0.86093
H     4.71614  -0.83387   1.51245
H     2.41593  -0.37875   2.23651
