36
Generated by autodE on: 2022-06-17. E = -750.506499 Ha
C     0.70318   3.55489  -0.58926
O     0.49392   2.15153  -0.81280
C    -0.14718   1.47497   0.13841
O    -0.57431   1.99480   1.15091
C    -0.25178  -0.03852  -0.15545
C     1.14646  -0.60841   0.09907
C     2.15971  -0.48274  -0.86447
C     3.44084  -0.98254  -0.61800
C     3.73103  -1.60879   0.59870
C     2.72894  -1.73179   1.56519
C     1.44626  -1.23368   1.31653
C    -0.77992  -0.28624  -1.58225
C    -2.27718  -0.05219  -1.41022
C    -2.59138  -0.66601  -0.02523
C    -3.64364   0.14329   0.73361
C    -3.05347  -2.12126  -0.17040
N    -1.28013  -0.63665   0.69398
H     1.23928   3.92438  -1.47084
H     1.30560   3.71134   0.31707
H    -0.26034   4.07342  -0.48359
H     1.94986   0.00989  -1.81500
H     4.21589  -0.88341  -1.38199
H     4.73321  -1.99933   0.79112
H     2.94426  -2.21961   2.51914
H     0.66311  -1.34286   2.06709
H    -0.56682  -1.33075  -1.85424
H    -0.31157   0.36493  -2.32893
H    -2.88204  -0.49632  -2.21367
H    -2.48231   1.03090  -1.39623
H    -4.59965   0.14787   0.18677
H    -3.82812  -0.28887   1.73108
H    -3.31450   1.18569   0.86455
H    -2.32109  -2.70826  -0.74675
H    -4.02548  -2.17880  -0.68620
H    -3.15903  -2.59241   0.81975
H    -1.35841  -0.09828   1.55465
