30
Generated by autodE on: 2022-06-17. E = -671.818459 Ha
C    -1.83296   3.39748   0.84381
O    -1.35842   2.06402   0.67781
C    -0.13313   1.92496   0.09764
O     0.51075   2.92225  -0.27545
C     0.30546   0.57753  -0.06536
N     1.50755   0.52044  -0.77444
C     2.44352  -0.38974  -0.87864
C     3.57656  -0.13236  -1.81301
C     2.41413  -1.64839  -0.08991
C    -0.50831  -0.61750   0.18605
C    -1.24031  -0.77819   1.38337
C    -2.04200  -1.89990   1.59533
C    -2.13183  -2.90557   0.62559
C    -1.41249  -2.76527  -0.56572
C    -0.61834  -1.63851  -0.78532
H    -1.95443   3.90325  -0.12668
H    -1.14851   3.99120   1.46931
H    -2.80811   3.31398   1.34043
H     1.70277   1.41109  -1.24644
H     3.50991   0.86349  -2.27459
H     3.58364  -0.89045  -2.61614
H     4.53820  -0.22641  -1.28203
H     3.43757  -2.03092   0.02834
H     1.96036  -1.48822   0.89918
H     1.81962  -2.43102  -0.59368
H    -1.16639  -0.01331   2.15710
H    -2.59337  -1.99596   2.53445
H    -2.75409  -3.78702   0.79697
H    -1.47755  -3.53553  -1.33870
H    -0.08621  -1.53686  -1.73364
