36
Generated by autodE on: 2022-06-17. E = -750.431368 Ha. Imaginary frequency = -415.9 cm-1
C     1.48018   3.62696  -0.57669
O     1.23720   2.23419  -0.36842
C     0.00504   1.89211   0.05803
O    -0.85736   2.74053   0.29768
C    -0.21203   0.45838   0.17306
C     0.91026  -0.50110   0.25392
C     1.88692  -0.60063  -0.75662
C     2.94513  -1.50324  -0.64479
C     3.05425  -2.33629   0.47484
C     2.09606  -2.24442   1.48896
C     1.04309  -1.33365   1.38397
C    -1.17774   0.26020  -2.05529
C    -2.42362  -0.24374  -1.72948
C    -2.26129  -0.83885   0.37480
C    -3.65410  -0.76877   0.93333
C    -1.71609  -2.22200   0.15256
N    -1.43721   0.17520   0.74320
H     2.51265   3.70353  -0.93875
H     1.36964   4.19023   0.36193
H     0.78817   4.03856  -1.32663
H     1.80627   0.02961  -1.64231
H     3.68661  -1.56423  -1.44556
H     3.87991  -3.04712   0.55653
H     2.17160  -2.88084   2.37437
H     0.31005  -1.25784   2.18882
H    -0.39311  -0.38941  -2.44949
H    -1.02759   1.33135  -2.20077
H    -2.69293  -1.26432  -2.01024
H    -3.26408   0.44539  -1.60321
H    -4.35599  -1.28013   0.25858
H    -3.70997  -1.27841   1.91211
H    -3.98515   0.27258   1.06553
H    -0.84496  -2.23612  -0.51142
H    -2.50124  -2.85836  -0.27801
H    -1.41290  -2.66572   1.11759
H    -1.94092   1.03828   0.95942
