56
Generated by autodE on: 2022-10-23. E = -6209.836646 Ha
C     0.67074  -1.51005   2.44351
O     1.05598  -0.36439   3.18539
C     2.38734   0.13432   3.02534
C     2.59420   0.39073   1.51839
C     2.42383   1.49422   3.76407
C     1.66862   1.58579   5.09070
C     2.05764   0.57300   6.16949
C     1.47745  -0.84315   5.95234
C     2.50870  -1.93020   5.68012
Br    1.48642  -3.65683   5.46676
Br    3.48947  -2.05462   7.46334
C     3.47692  -1.77211   4.54986
C     3.46835  -0.83565   3.56010
C     4.80546  -0.86550   2.82849
C     5.59213   0.45304   2.88928
N     5.56117  -1.90775   3.51416
C     6.64122  -2.49688   2.74515
C     4.63462  -2.77412   4.25659
C     4.14252  -3.81821   3.17383
C     4.88011  -5.12360   2.98899
O     3.28403  -3.50707   2.36816
C     5.34299  -3.45020   5.42591
C     4.86585  -4.64773   5.97755
C     5.50281  -5.23986   7.06846
C     6.63543  -4.64379   7.62930
C     7.12843  -3.45691   7.07908
C     6.48956  -2.87071   5.98526
H     0.45434  -1.26361   1.38921
H    -0.25448  -1.88584   2.90443
H     1.43065  -2.30234   2.48073
H     3.47551   1.00838   1.31652
H     1.71134   0.93607   1.15480
H     2.68872  -0.54185   0.94693
H     3.47736   1.76661   3.91982
H     2.00428   2.25070   3.08131
H     1.84244   2.60062   5.48567
H     0.58530   1.51507   4.90183
H     1.69234   0.94256   7.13958
H     3.15422   0.53367   6.26336
H     0.78058  -0.83185   5.11121
H     0.91764  -1.16220   6.83976
H     4.64380  -1.13666   1.76689
H     6.59724   0.29728   2.47005
H     5.70245   0.78000   3.93394
H     5.12331   1.26069   2.31460
H     7.17508  -3.24495   3.34605
H     6.31222  -2.97315   1.79880
H     7.36654  -1.71422   2.47899
H     4.26182  -5.93342   3.40937
H     4.97888  -5.30846   1.90956
H     5.85830  -5.15976   3.47837
H     3.96745  -5.11411   5.57651
H     5.10559  -6.16781   7.48702
H     7.13433  -5.10427   8.48567
H     8.01596  -2.98246   7.50542
H     6.86942  -1.94021   5.56513
