29
Generated by autodE on: 2022-10-23. E = -596.535451 Ha
C    -3.74278  -1.31531   0.25966
C    -2.59321  -0.38857   0.37885
N    -1.41714  -0.62775  -0.12168
C    -1.16524  -1.91187  -0.79908
C    -0.42495   0.40168  -0.21429
C    -0.87745   1.66159  -0.68357
C     0.11394   2.80551  -0.83652
O    -2.08057   1.91038  -0.98517
C     0.93183  -0.00310   0.16543
C     2.10071   0.45736  -0.48534
C     3.36961   0.03995  -0.08014
C     3.52304  -0.87329   0.96864
C     2.37924  -1.36649   1.60612
C     1.11105  -0.93651   1.21641
H    -3.53362  -2.26696   0.77948
H    -4.64038  -0.86567   0.70147
H    -3.94547  -1.56823  -0.79480
H    -2.70309   0.55330   0.91510
H    -0.10950  -1.97100  -1.07542
H    -1.78111  -1.96514  -1.70894
H    -1.42339  -2.75123  -0.14068
H     0.54679   2.81539  -1.85065
H    -0.43955   3.74644  -0.70371
H     0.94225   2.76653  -0.11682
H     2.01682   1.12729  -1.34013
H     4.24950   0.41883  -0.60700
H     4.51767  -1.20358   1.27696
H     2.47493  -2.08581   2.42388
H     0.23418  -1.32212   1.74171
