29
Generated by autodE on: 2022-10-26. E = -596.535438 Ha
C    -0.92260   2.83540  -2.64034
C    -1.10480   1.64887  -1.77189
N    -0.13709   1.07875  -1.11534
C     1.21494   1.66401  -1.16972
C    -0.30390  -0.20580  -0.50471
C    -0.98166  -1.18494  -1.27541
C    -1.18171  -2.58133  -0.70459
O    -1.45111  -0.97401  -2.43119
C     0.28803  -0.34576   0.83010
C     0.94399  -1.51727   1.27516
C     1.49306  -1.60006   2.55582
C     1.43577  -0.51000   3.43112
C     0.81830   0.66965   3.00104
C     0.25126   0.74828   1.72909
H    -0.58365   3.70500  -2.05017
H    -1.86795   3.09383  -3.13293
H    -0.15194   2.65486  -3.40882
H    -2.09258   1.20634  -1.64964
H     1.88165   1.08950  -0.52192
H     1.58617   1.61670  -2.20382
H     1.19364   2.71172  -0.84309
H    -1.25373  -2.60291   0.39066
H    -0.35551  -3.24744  -1.00398
H    -2.10695  -2.98802  -1.13839
H     1.05327  -2.36513   0.59981
H     1.99177  -2.52266   2.86465
H     1.87430  -0.57573   4.42952
H     0.76734   1.53533   3.66679
H    -0.24111   1.67420   1.42266
