56
Generated by autodE on: 2022-10-23. E = -6209.749691 Ha. Imaginary frequency = -195.5 cm-1
C     0.73291  -0.12353   2.15550
O     1.21433   0.52195   3.31939
C     2.63909   0.52321   3.50945
C     3.29958   1.33362   2.39792
C     2.89640   1.23603   4.86216
C     1.93744   0.96367   6.02585
C     1.87199  -0.44592   6.62902
C     1.05828  -1.47983   5.82209
C     1.92002  -2.54735   5.14219
Br    0.67839  -3.69725   4.03704
Br    2.62100  -3.73074   6.60629
C     2.92177  -1.96905   4.25658
C     3.12615  -0.90146   3.63169
C     4.75906  -1.63492   2.02242
C     5.37993  -0.66347   1.07371
N     5.48736  -2.25964   2.95347
C     6.79557  -1.67843   3.29705
C     4.95479  -3.31239   3.69832
C     4.20347  -4.34563   2.98656
C     3.77849  -5.60098   3.72178
O     3.92103  -4.27461   1.77714
C     5.61810  -3.55989   5.00886
C     6.26954  -4.76958   5.30377
C     6.90610  -4.96371   6.53314
C     6.93065  -3.94006   7.48401
C     6.31380  -2.71823   7.19213
C     5.66294  -2.53548   5.97459
H     1.11794  -1.15428   2.07141
H     0.98623   0.42803   1.23345
H    -0.36212  -0.16902   2.24436
H     2.82969   2.32768   2.35710
H     3.18905   0.85490   1.41885
H     4.37077   1.46164   2.60199
H     2.86095   2.31936   4.66150
H     3.93250   1.00949   5.16066
H     2.24290   1.65148   6.83223
H     0.92176   1.27766   5.73594
H     1.40522  -0.35791   7.62215
H     2.89088  -0.82232   6.81558
H     0.50353  -0.97199   5.02214
H     0.32502  -1.99187   6.46009
H     3.87661  -2.16033   1.68912
H     5.87644   0.18436   1.56366
H     4.62078  -0.27780   0.38432
H     6.14194  -1.18664   0.46660
H     7.36962  -2.38444   3.89999
H     7.35257  -1.47917   2.37399
H     6.67327  -0.73787   3.85293
H     3.73147  -5.49027   4.80875
H     4.48717  -6.40896   3.47597
H     2.79264  -5.89628   3.33894
H     6.29652  -5.56647   4.56018
H     7.40032  -5.91631   6.73991
H     7.43325  -4.08991   8.44267
H     6.32670  -1.90804   7.92544
H     5.16515  -1.58806   5.76464
