58
Generated by autodE on: 2022-06-26. E = -1317.815155 Ha
C     1.14644   1.99252   3.26386
N     1.28735   1.17183   2.07806
C     0.64463   1.45531   0.93869
O     0.01861   2.51379   0.77595
C     0.71487   0.38893  -0.19759
C     2.10813   0.36525  -0.84736
C     2.32625  -0.49980  -1.93464
C     3.56384  -0.55446  -2.57450
C     4.61481   0.26477  -2.14572
C     4.40556   1.14126  -1.08045
C     3.16165   1.19356  -0.43996
C     0.30455  -1.05597   0.26170
N     0.87325  -1.55350   1.50440
C     1.97469  -2.49602   1.36268
C     0.04200  -1.67885   2.61120
C    -1.19772  -1.15953   2.68698
C    -1.80899  -0.45705   1.50924
C    -1.23233  -1.05329   0.19809
C    -1.75850  -2.49132   0.04489
N    -3.09694  -2.61271  -0.02406
O    -0.99953  -3.46432   0.01516
C    -1.49720  -0.18221  -1.09508
C    -1.64601  -1.02682  -2.37211
C    -2.79742   0.62242  -0.86434
O    -3.91067   0.07715  -0.97231
N    -2.64288   1.89760  -0.49490
C    -3.76288   2.70358  -0.05429
N    -0.32841   0.68148  -1.15949
C    -0.08205   1.52232  -2.30642
H     1.37415   3.04410   3.03741
H     1.84437   1.63572   4.03187
H     0.12018   1.94158   3.66762
H     1.61494   0.21029   2.17236
H     1.51300  -1.13334  -2.29313
H     3.70760  -1.23778  -3.41484
H     5.58587   0.22274  -2.64453
H     5.21234   1.79467  -0.73986
H     3.02799   1.89119   0.38593
H     0.64799  -1.72221  -0.53546
H     2.42801  -2.68248   2.34660
H     2.74781  -2.07395   0.70564
H     1.64074  -3.46075   0.93838
H     0.49438  -2.20658   3.45478
H    -1.76307  -1.25734   3.61489
H    -2.90211  -0.55717   1.52208
H    -1.61378   0.62496   1.54499
H    -3.66715  -1.78971  -0.22981
H    -3.48301  -3.53330  -0.21197
H    -2.57663  -1.60419  -2.37568
H    -0.79675  -1.71809  -2.46967
H    -1.65829  -0.36990  -3.25319
H    -1.68475   2.19485  -0.27969
H    -4.15965   2.35132   0.91368
H    -4.57981   2.66418  -0.78929
H    -3.43556   3.74505   0.05745
H     0.41787   1.00937  -3.15011
H     0.54819   2.37465  -2.01324
H    -1.03024   1.93559  -2.68067
