38
Generated by autodE on: 2022-06-26. E = -860.043812 Ha
C     3.19846  -1.56727  -2.86123
N     2.99109  -1.44621  -1.43248
C     2.13212  -0.53600  -0.92558
O     1.56147   0.28811  -1.65780
C     1.99667  -0.51985   0.56033
C     3.17089  -0.84928   1.43153
N     0.85296  -0.10485   1.10915
C     0.87972   0.26546   2.54096
C    -0.37660  -0.11550   0.47012
C    -0.65481  -1.17383  -0.49719
O     0.00560  -2.23510  -0.57819
N    -1.70944  -0.98105  -1.33687
C    -2.17623  -2.03027  -2.21586
C    -1.30985   0.97695   0.76612
C    -0.82923   2.30223   0.87993
C    -1.68641   3.36080   1.18044
C    -3.05598   3.13469   1.35577
C    -3.55305   1.83128   1.23795
C    -2.69512   0.76745   0.95854
H     3.52636  -0.60930  -3.29166
H     2.27327  -1.87171  -3.37935
H     3.97297  -2.32172  -3.04599
H     3.34480  -2.17831  -0.82672
H     4.03713  -1.14149   0.82853
H     3.48134   0.01522   2.04145
H     2.94476  -1.67235   2.13154
H    -0.12259   0.56264   2.85540
H     1.18712  -0.61043   3.12812
H     1.58753   1.08472   2.71871
H    -2.26433  -0.13871  -1.25022
H    -2.98108  -1.63227  -2.84703
H    -2.56709  -2.89995  -1.65945
H    -1.36462  -2.39101  -2.86723
H     0.23272   2.49627   0.71380
H    -1.28391   4.37368   1.26326
H    -3.72916   3.96436   1.58338
H    -4.61859   1.63723   1.38506
H    -3.09771  -0.24585   0.90948
