58
Generated by autodE on: 2022-06-26. E = -1317.725289 Ha. Imaginary frequency = -286.6 cm-1
C     1.08071   1.43867   3.20017
N     1.29895   1.06452   1.82084
C     0.27489   1.04902   0.92561
O    -0.84475   1.46123   1.28152
C     0.58521   0.46350  -0.39775
C     2.02085   0.58943  -0.83431
C     2.76512  -0.49540  -1.32631
C     4.09037  -0.33185  -1.73375
C     4.69938   0.92472  -1.66627
C     3.96784   2.01925  -1.19579
C     2.64312   1.85148  -0.78755
C     0.11191  -1.64050   0.37224
N     0.83784  -1.87237   1.52922
C     2.25595  -2.17637   1.45885
C     0.19058  -1.89052   2.75812
C    -1.12726  -1.66436   2.89130
C    -1.99845  -1.28403   1.72583
C    -1.31978  -1.59440   0.39116
C    -1.96959  -2.50633  -0.56728
N    -3.31006  -2.72308  -0.41952
O    -1.34755  -3.09950  -1.47375
C    -1.70286   0.16782  -1.21446
C    -2.51751  -0.36495  -2.37162
C    -2.57671   1.15047  -0.46970
O    -3.59835   0.79676   0.13083
N    -2.32969   2.45316  -0.76750
C    -2.99569   3.50859  -0.03083
N    -0.36881   0.41997  -1.42990
C     0.14499   0.13872  -2.78412
H     0.69990   2.46943   3.28178
H     2.03598   1.37555   3.73711
H     0.35459   0.77026   3.69278
H     2.19740   0.67946   1.56079
H     2.30564  -1.47934  -1.40241
H     4.64949  -1.19316  -2.10683
H     5.73713   1.05137  -1.98369
H     4.42782   3.00925  -1.14964
H     2.07661   2.71318  -0.42862
H     0.56447  -2.07428  -0.51741
H     2.88701  -1.27634   1.38698
H     2.46759  -2.80679   0.58284
H     2.55104  -2.73005   2.36020
H     0.83077  -2.13544   3.60739
H    -1.57674  -1.73796   3.88430
H    -2.95506  -1.82170   1.80712
H    -2.25287  -0.21484   1.78749
H    -3.87460  -2.03307   0.06354
H    -3.76383  -3.21095  -1.18571
H    -3.50659  -0.64804  -1.99518
H    -2.06254  -1.24075  -2.84773
H    -2.67482   0.41519  -3.13634
H    -1.38604   2.65197  -1.08383
H    -2.65412   3.55178   1.01836
H    -4.08140   3.34278  -0.03134
H    -2.78761   4.47424  -0.51018
H     0.37114  -0.92807  -2.92419
H     1.05358   0.72060  -2.95729
H    -0.59487   0.45138  -3.52536
