74
Generated by autodE on: 2022-07-03. E = -4279.274176 Ha
C    -9.34602 -13.34137  -8.79917
N   -10.21549 -13.21343  -9.95163
C   -11.28148 -12.40315  -9.94541
O   -11.64834 -11.82855  -8.92005
C   -12.05037 -12.19361 -11.30751
Br  -12.36138 -14.16926 -11.85618
C   -13.41596 -11.52751 -10.97488
C   -13.98230 -10.43928 -11.88555
C   -14.72167 -10.91647 -13.13375
C   -14.07601 -12.07305 -13.88549
C   -12.66430 -11.84387 -14.53594
C   -12.09311 -13.22431 -14.97452
C   -13.02299 -14.29814 -15.47441
O   -10.89821 -13.45642 -14.88758
C   -13.05835 -10.98645 -15.78198
C   -13.27033 -11.62778 -17.12857
O   -13.35020  -9.81993 -15.60740
C   -11.58143 -11.18000 -13.66205
C   -11.24328 -11.46048 -12.37402
C    -9.87338 -10.85159 -12.02471
C    -9.86125  -9.93665 -10.79256
C    -8.74833 -11.92654 -11.92257
O    -7.74722 -11.73587 -11.22510
N    -8.88377 -13.00765 -12.71915
C    -7.77384 -13.91014 -12.95621
N    -9.54575 -10.11904 -13.23284
C    -8.46080  -9.17488 -13.30125
C   -10.50507 -10.24082 -14.29222
C    -9.91127 -10.94908 -15.53647
O   -10.50481 -11.05964 -16.59174
O    -8.69664 -11.43443 -15.33005
C    -8.12281 -12.22404 -16.38183
C   -11.00247  -8.81871 -14.65574
C   -11.58439  -8.06219 -13.62796
C   -11.97725  -6.74165 -13.83885
C   -11.77090  -6.13799 -15.08504
C   -11.15804  -6.87033 -16.10245
C   -10.77372  -8.19971 -15.88972
H    -9.90103 -13.70455  -7.92069
H    -8.88652 -12.37312  -8.54345
H    -8.55061 -14.05634  -9.04067
H    -9.96152 -13.69687 -10.80634
H   -13.24154 -11.06859  -9.99451
H   -14.16466 -12.31454 -10.80247
H   -13.18864  -9.73259 -12.15303
H   -14.69303  -9.86030 -11.27411
H   -14.89541 -10.06352 -13.80558
H   -15.71868 -11.28141 -12.83326
H   -14.75682 -12.37552 -14.69364
H   -14.01919 -12.93889 -13.22031
H   -13.91687 -13.92460 -15.98212
H   -13.36297 -14.87333 -14.59808
H   -12.46047 -14.97838 -16.12720
H   -12.52180 -12.38944 -17.37214
H   -13.25952 -10.83506 -17.88775
H   -14.26680 -12.09861 -17.14194
H   -10.72715  -9.26098 -10.81994
H    -9.87482 -10.48357  -9.84599
H    -8.94703  -9.33036 -10.79364
H    -9.63511 -13.01315 -13.40907
H    -8.12442 -14.74107 -13.58179
H    -6.93787 -13.40554 -13.47056
H    -7.39451 -14.31720 -12.00690
H    -8.14273  -9.05147 -14.34617
H    -7.59132  -9.55374 -12.74269
H    -8.71432  -8.17096 -12.90931
H    -7.13158 -12.52544 -16.02546
H    -8.03474 -11.63267 -17.30408
H    -8.74756 -13.10871 -16.56814
H   -11.72502  -8.51144 -12.64573
H   -12.44108  -6.17915 -13.02498
H   -12.07528  -5.10255 -15.25492
H   -10.97361  -6.40913 -17.07584
H   -10.30613  -8.74562 -16.70711
