37
Generated by autodE on: 2022-07-03. E = -879.910473 Ha
C     4.11508   1.44948   0.90490
N     3.50341   0.38520   0.13310
C     2.30171  -0.11396   0.47275
O     1.72941   0.17832   1.52866
C     1.73431  -1.15155  -0.46037
C     2.62467  -2.21473  -1.01645
N     0.43216  -1.18562  -0.66640
C    -0.14809  -2.39700  -1.28180
C    -0.42813  -0.09102  -0.46244
C     0.04450   1.20063  -0.85053
O     1.11855   1.46211  -1.41123
O    -0.83666   2.20365  -0.56306
C    -0.46887   3.51229  -0.98958
C    -1.70901  -0.36985   0.19550
C    -2.92306   0.26017  -0.15875
C    -4.11297  -0.05256   0.49775
C    -4.13713  -1.01275   1.51705
C    -2.94696  -1.65330   1.87568
C    -1.75154  -1.33099   1.23170
H     3.54019   2.38742   0.81985
H     4.16339   1.17306   1.96747
H     5.13322   1.62075   0.53436
H     3.84112   0.21920  -0.81018
H     3.67826  -1.98476  -0.82490
H     2.47877  -2.33751  -2.10163
H     2.40774  -3.19023  -0.54806
H     0.24653  -2.50222  -2.30216
H    -1.23335  -2.28482  -1.33256
H     0.11190  -3.29001  -0.69996
H     0.47466   3.83344  -0.52179
H    -0.35682   3.56164  -2.08372
H    -1.28380   4.17542  -0.67229
H    -2.92932   0.99381  -0.96432
H    -5.03712   0.44998   0.20025
H    -5.07316  -1.25778   2.02439
H    -2.94482  -2.40021   2.67388
H    -0.82305  -1.81389   1.54446
