52
Generated by autodE on: 2022-06-05. E = -1358.907983 Ha
C    -1.02158   4.40148   1.92087
O    -0.46594   3.36613   1.09346
C    -1.27760   2.80985   0.20904
O    -2.42117   3.16178  -0.00149
C    -0.63316   1.68926  -0.59902
O     0.76255   1.58468  -0.39038
C     1.11537   0.42366   0.34089
C     1.06315   0.74869   1.79446
N     1.05161   1.01053   2.92335
C     2.55053   0.05078  -0.03740
C     3.44514  -0.49466   0.89200
C     4.73820  -0.85436   0.50290
C     5.15571  -0.66089  -0.81561
C     4.27423  -0.09398  -1.74095
C     2.98140   0.26354  -1.35500
C    -0.01694  -0.63147  -0.00868
C    -0.27897  -1.66685   1.09388
C     0.87549  -2.49118   1.58988
O    -1.41043  -1.87353   1.49403
C     0.23226  -1.42838  -1.34862
C    -0.80404  -2.56838  -1.46080
C    -2.14383  -1.79700  -1.62870
C    -1.69384  -0.32096  -1.76271
C    -0.31844  -0.48734  -2.43539
C    -1.26506   0.26567  -0.39061
C    -2.32867   0.37388   0.69877
O    -2.09451   0.82111   1.80543
O    -3.54865   0.05648   0.28329
C    -4.61307   0.21701   1.23367
H    -0.20906   4.72762   2.57951
H    -1.85616   3.99876   2.51229
H    -1.37479   5.23867   1.30273
H    -0.78404   1.99730  -1.64297
H     3.14782  -0.63602   1.93087
H     5.42187  -1.28013   1.24055
H     6.16731  -0.94021  -1.11882
H     4.59387   0.07621  -2.77147
H     2.30693   0.71564  -2.07951
H     1.36166  -1.95955   2.42315
H     0.48958  -3.44325   1.97703
H     1.63161  -2.66412   0.81367
H     1.27033  -1.76034  -1.45021
H    -0.80685  -3.26956  -0.61686
H    -0.56617  -3.15464  -2.35962
H    -2.67040  -2.10371  -2.54361
H    -2.82603  -1.95256  -0.78636
H    -2.41586   0.32848  -2.27300
H     0.24438   0.44191  -2.57333
H    -0.38681  -0.99354  -3.40873
H    -4.68225   1.26776   1.54887
H    -5.52852  -0.08822   0.71454
H    -4.43817  -0.42175   2.11094
