28
Generated by autodE on: 2022-06-05. E = -653.567785 Ha
C     3.57323  -0.27393  -0.34222
O     2.14391  -0.41129  -0.38740
C     1.48309  -0.17722   0.74906
O     2.02050   0.06727   1.81094
C     0.01405  -0.31338   0.58410
C    -0.82880   0.54394  -0.04017
C    -0.40809   1.78930  -0.70717
C    -1.39580   2.44644  -1.62957
O     0.70923   2.26239  -0.50370
C    -2.19330  -0.13165  -0.07838
C    -2.05375  -1.30706  -1.09913
C    -1.06972  -2.27438  -0.38287
C    -0.77979  -1.54369   0.97331
C    -2.15595  -0.90360   1.25741
H     4.00486  -0.95422   0.40561
H     3.84365   0.76333  -0.09634
H     3.93295  -0.53222  -1.34471
H    -0.94082   3.31762  -2.11809
H    -2.28260   2.76205  -1.05520
H    -1.74918   1.72628  -2.38528
H    -3.04888   0.52982  -0.25540
H    -1.68150  -0.95706  -2.07217
H    -3.03307  -1.78047  -1.26172
H    -1.53593  -3.24925  -0.17897
H    -0.14495  -2.45091  -0.94928
H    -0.32627  -2.17393   1.74744
H    -2.96194  -1.64650   1.35419
H    -2.14745  -0.24274   2.13643
