24
Generated by autodE on: 2022-06-05. E = -705.252254 Ha
C     3.77568   1.56163  -1.50370
O     2.67330   0.83637  -0.94743
C     2.94279  -0.40372  -0.49506
O     4.05660  -0.91376  -0.53643
C     1.79298  -1.08626   0.04622
O     0.64864  -0.45461   0.04305
C    -0.54546  -0.81599   0.44896
C    -0.70783  -2.11319   0.99287
N    -0.81083  -3.18813   1.43455
C    -1.62387   0.14184   0.31123
C    -2.92591  -0.18510   0.74523
C    -3.96051   0.73892   0.61299
C    -3.71757   1.99637   0.04932
C    -2.42615   2.32599  -0.38361
C    -1.38387   1.41252  -0.25686
H     4.19052   1.03149  -2.37399
H     3.37325   2.53356  -1.81233
H     4.56804   1.70206  -0.75355
H     1.86146  -2.10046   0.44317
H    -3.12269  -1.16451   1.18703
H    -4.96436   0.47508   0.95304
H    -4.53090   2.71815  -0.05288
H    -2.23120   3.30614  -0.82479
H    -0.37873   1.67014  -0.59374
