52
Generated by autodE on: 2022-06-05. E = -1358.826743 Ha. Imaginary frequency = -164.7 cm-1
C    -2.90192   4.21924   0.67733
O    -2.22040   3.26523  -0.14742
C    -0.98097   2.92643   0.23534
O    -0.40331   3.41093   1.19344
C    -0.41679   1.94925  -0.68965
O     0.81487   1.48995  -0.55192
C     1.49218   1.00459   0.46566
C     1.15019   1.26593   1.82067
N     0.96734   1.35374   2.96794
C     2.75396   0.34808   0.14613
C     3.61939  -0.07942   1.17464
C     4.80092  -0.75002   0.86518
C     5.14060  -1.00409  -0.46756
C     4.28886  -0.57687  -1.49413
C     3.10652   0.09504  -1.19675
C    -0.41588  -1.03090   0.26144
C    -0.04350  -1.49562   1.61952
C     1.08987  -2.48908   1.70205
O    -0.62913  -1.14068   2.63790
C    -0.00027  -1.83608  -0.96617
C    -1.11585  -2.92865  -1.09511
C    -2.36289  -2.09340  -1.50210
C    -1.79931  -0.63735  -1.58573
C    -0.39054  -0.91476  -2.13250
C    -1.49081  -0.23744  -0.14167
C    -2.51656   0.39653   0.72598
O    -2.33147   0.95282   1.79138
O    -3.73072   0.31011   0.15942
C    -4.82514   0.89079   0.88077
H    -3.00145   3.83267   1.70145
H    -3.88989   4.35912   0.22468
H    -2.35480   5.17298   0.69637
H    -0.72701   1.99312  -1.73293
H     3.36046   0.10632   2.21793
H     5.45998  -1.07756   1.67194
H     6.06651  -1.53150  -0.70699
H     4.54969  -0.76942  -2.53708
H     2.44971   0.42701  -2.00007
H     0.78184  -3.44493   1.24776
H     1.97356  -2.13948   1.14958
H     1.34683  -2.65696   2.75580
H     1.02289  -2.22553  -0.95502
H    -1.25789  -3.48745  -0.15964
H    -0.83574  -3.64741  -1.87922
H    -2.74556  -2.39480  -2.48815
H    -3.18798  -2.16885  -0.78143
H    -2.43236   0.06898  -2.13297
H     0.24212  -0.02833  -2.23513
H    -0.41144  -1.44845  -3.09372
H    -5.72152   0.68255   0.28526
H    -4.68530   1.97544   0.98776
H    -4.91667   0.43481   1.87693
