54
Generated by autodE on: 2022-10-22. E = -1339.250326 Ha
C     1.91343  -2.68890   3.04126
N     1.39048  -1.57228   2.28658
C     1.36549  -1.51657   0.95348
O     1.82799  -2.38543   0.20123
C     0.78930  -0.20242   0.37040
C     1.97978   0.63663  -0.14242
C     1.76598   1.95710  -0.57148
C     2.81827   2.74895  -1.03500
C     4.11998   2.24358  -1.07168
C     4.35140   0.93939  -0.63146
C     3.29590   0.14619  -0.17363
N     0.06881   0.55355   1.40657
C    -1.36711   0.32371   1.25381
C    -2.18889   1.33821   2.04067
C    -1.62976   1.76811   3.36695
O    -3.26284   1.74150   1.63217
C    -1.63194   0.20038  -0.26867
O    -2.70057  -0.62884  -0.68489
C    -3.95112  -0.60464  -0.01580
C    -1.78710   1.58590  -0.94147
C    -2.57653   1.64442  -2.21325
O    -1.31007   2.58087  -0.42415
C    -0.31301  -0.53655  -0.75540
O    -0.00723  -0.05328  -2.03525
C     1.13051  -0.58115  -2.72200
C    -0.74562  -2.04110  -0.75019
C    -0.96203  -2.72708  -2.06534
O    -0.95037  -2.60057   0.31123
H     2.18655  -3.49201   2.34565
H     1.15789  -3.06828   3.74606
H     2.80829  -2.39971   3.61559
H     0.95392  -0.77744   2.75262
H     0.76728   2.38627  -0.55410
H     2.61336   3.76891  -1.36872
H     4.94501   2.86103  -1.43447
H     5.36283   0.52641  -0.64320
H     3.51507  -0.87234   0.13817
H     0.25719   1.54618   1.28745
H    -1.61862  -0.65448   1.70121
H    -0.79593   2.46955   3.19665
H    -1.22168   0.90958   3.92100
H    -2.40997   2.27618   3.94873
H    -4.56848  -1.36598  -0.51284
H    -3.85467  -0.87079   1.04878
H    -4.44663   0.37379  -0.09765
H    -3.64835   1.55021  -1.97090
H    -2.31574   0.81171  -2.87868
H    -2.40524   2.61168  -2.70347
H     1.65966  -1.33068  -2.11997
H     0.79688  -1.04398  -3.66298
H     1.82235   0.24187  -2.95214
H    -1.62691  -3.58698  -1.91079
H     0.00695  -3.09752  -2.43680
H    -1.37380  -2.04292  -2.81747
