30
Generated by autodE on: 2022-10-22. E = -726.015898 Ha
C    -1.94722   3.74621  -0.39688
N    -1.60200   2.34499  -0.26530
C    -0.32507   1.94710  -0.11605
O     0.62273   2.75468  -0.09119
C    -0.06257   0.48878  -0.01341
N     1.23184   0.21245  -0.01571
C     1.95546  -0.91585   0.07898
C     3.37719  -0.75345   0.06347
C     4.22939  -1.99095   0.20014
O     3.90821   0.37227  -0.05518
C    -1.09266  -0.56046   0.05533
C    -2.13077  -0.48520   1.00441
C    -3.10956  -1.47908   1.06432
C    -3.06741  -2.56247   0.18207
C    -2.03940  -2.64787  -0.76337
C    -1.05898  -1.65789  -0.82745
H    -1.56572   4.32802   0.45639
H    -3.03930   3.83989  -0.43017
H    -1.52538   4.18134  -1.31775
H    -2.33679   1.64894  -0.32631
H     1.81804   1.06551  -0.08429
H     1.45575  -1.87581   0.17780
H     4.84602  -1.90681   1.11036
H     3.63578  -2.91389   0.25161
H     4.92336  -2.05009  -0.65403
H    -2.16112   0.34950   1.70714
H    -3.90492  -1.40873   1.80980
H    -3.83340  -3.33979   0.23081
H    -2.00399  -3.48905  -1.45949
H    -0.26880  -1.72639  -1.57765
