30
Generated by autodE on: 2022-10-26. E = -726.005362 Ha
C     0.47909  -4.05798   0.32085
N     0.61489  -2.65116   0.00680
C    -0.26452  -1.73842   0.48105
O    -1.24261  -2.08688   1.16608
C    -0.01657  -0.32778   0.11506
N    -1.00176   0.57116   0.25077
C    -2.28873   0.50342   0.63800
C    -3.10742   1.68082   0.69144
C    -2.50894   3.02648   0.32347
O    -4.29770   1.59692   1.04516
C     1.26480   0.16330  -0.42561
C     1.28981   1.07864  -1.49881
C     2.49896   1.58025  -1.98269
C     3.70990   1.16922  -1.41797
C     3.70074   0.25749  -0.35690
C     2.49462  -0.23719   0.13913
H    -0.46478  -4.46986  -0.07230
H     0.49034  -4.22776   1.40945
H     1.31687  -4.60310  -0.13065
H     1.39070  -2.34820  -0.57044
H    -0.69951   1.51719  -0.00170
H    -2.69346  -0.46214   0.92111
H    -3.30398   3.78283   0.34202
H    -1.72425   3.31944   1.04084
H    -2.05410   3.01407  -0.68093
H     0.35577   1.38344  -1.97706
H     2.49372   2.28452  -2.81788
H     4.65612   1.55587  -1.80297
H     4.64063  -0.06135   0.09966
H     2.50311  -0.92270   0.98786
