36
Generated by autodE on: 2022-10-14. E = -913.000256 Ha
C     4.03997   1.62192   0.21692
N     3.03361   1.46792   1.25442
C     1.90619   0.71881   1.19760
O     0.95039   0.94137   1.96205
C     1.87839  -0.40569   0.24113
C     3.04721  -1.13411  -0.02139
N     4.04927  -1.71580  -0.20226
N     0.66220  -0.91311  -0.19300
C     0.62682  -2.35876  -0.49875
C    -0.43589  -0.17449  -0.31935
C    -0.32091   1.31789  -0.47857
O     0.64188   1.85035  -1.04496
N    -1.36302   2.02649  -0.01412
C    -1.40994   3.46959  -0.13891
C    -1.77102  -0.79483  -0.36008
C    -2.17072  -1.69170   0.65027
C    -3.44788  -2.25104   0.63084
C    -4.34349  -1.92451  -0.39295
C    -3.95838  -1.02825  -1.39599
C    -2.68451  -0.46129  -1.37909
H     4.89367   0.93773   0.34137
H     3.59993   1.45350  -0.77572
H     4.41809   2.65272   0.25136
H     3.01607   2.16732   1.99157
H     0.68344  -2.93838   0.43118
H    -0.28285  -2.60319  -1.05089
H     1.49739  -2.59426  -1.12290
H    -2.13279   1.54067   0.43404
H    -0.51646   3.92788   0.31285
H    -1.45373   3.77905  -1.19545
H    -2.30328   3.84069   0.37726
H    -1.48053  -1.93222   1.46073
H    -3.74833  -2.93944   1.42387
H    -5.34345  -2.36394  -0.40620
H    -4.65353  -0.77160  -2.19836
H    -2.38455   0.23218  -2.16717
