49
Generated by autodE on: 2022-10-07. E = -1158.215060 Ha. Imaginary frequency = -469.0 cm-1
C     3.65374   0.69363  -1.48124
N     3.42509   1.23449  -0.14958
C     2.44325   0.91518   0.69942
O     2.19076   1.55337   1.72082
C     1.75964  -0.47975   0.43294
C     2.77107  -1.50941   0.64088
N     3.56206  -2.31022   0.92140
N     0.70563  -0.59359   1.90374
C    -0.56303   0.05093   1.76553
N    -1.66578  -0.71343   2.06569
N    -0.59825   1.35734   2.13020
C    -1.81068   2.02881   2.55273
C    -0.38036  -0.06644  -0.56625
C    -0.34447   1.39320  -0.75438
O     0.73069   2.01046  -0.89316
N    -1.50775   2.08316  -0.66314
C    -1.51319   3.52897  -0.56326
C    -1.52034  -0.88812  -1.02815
C    -1.68711  -2.20749  -0.54366
C    -2.75581  -3.00672  -0.94682
C    -3.70460  -2.51509  -1.84813
C    -3.55068  -1.22213  -2.35692
C    -2.47270  -0.42712  -1.96432
N     0.89910  -0.71530  -0.60452
C     1.13905  -1.88419  -1.46859
H     4.54095   1.18663  -1.89593
H     3.85728  -0.38552  -1.45443
H     2.79657   0.88514  -2.14232
H     3.85321   2.13486   0.05784
H     0.61061  -1.60492   2.04809
H     1.27440  -0.17025   2.64668
H    -1.59050  -1.69401   1.80909
H    -2.53912  -0.32546   1.70955
H     0.23289   1.90508   1.92185
H    -2.62276   1.96780   1.81096
H    -2.18433   1.60883   3.50085
H    -1.57650   3.08819   2.70979
H    -2.34815   1.58415  -0.39507
H    -0.91312   3.88156   0.29207
H    -1.10397   3.99241  -1.47428
H    -2.54827   3.86901  -0.43382
H    -0.95361  -2.62824   0.14541
H    -2.84745  -4.02053  -0.54990
H    -4.54715  -3.13674  -2.15929
H    -4.26725  -0.82999  -3.08272
H    -2.36237   0.56102  -2.40813
H     0.99289  -2.83977  -0.94521
H     0.44805  -1.83358  -2.31540
H     2.16110  -1.84496  -1.86655
