52
Generated by autodE on: 2022-06-21. E = -948.102767 Ha
C    -2.54704  -0.69957   2.24864
C    -1.50237  -1.28931   1.33309
O    -0.95772  -2.34003   1.63929
C    -1.25192  -0.63520  -0.05455
C    -1.54532   0.85455  -0.03931
C    -2.31689   1.47363  -1.03153
C    -2.50419   2.85921  -1.03159
C    -1.91447   3.65118  -0.04247
C    -1.13493   3.04438   0.94765
C    -0.95419   1.65958   0.94810
N    -2.08751  -1.39511  -1.00198
C    -3.50460  -1.54829  -0.71771
C    -1.40822  -2.65620  -1.34233
C    -1.72503  -3.11120  -2.76345
C     0.09002  -2.39003  -1.09482
C     0.20737  -0.91501  -0.62401
C     0.46062  -0.03027  -1.85387
C     1.27718  -0.74023   0.42203
C     2.27056   0.17143   0.41494
C     3.26265   0.27244   1.47372
C     4.27548   1.16794   1.56180
C     5.22244   1.14911   2.72949
C     4.55251   2.23992   0.54480
H    -3.28906  -0.08507   1.72583
H    -2.03850  -0.04886   2.97914
H    -3.03382  -1.51528   2.80170
H    -2.76308   0.86638  -1.81835
H    -3.11223   3.32157  -1.81317
H    -2.06027   4.73405  -0.04277
H    -0.66365   3.65154   1.72439
H    -0.33778   1.20246   1.72371
H    -4.02250  -1.90897  -1.61885
H    -3.71711  -2.27464   0.09449
H    -3.95476  -0.58499  -0.44474
H    -1.74788  -3.45051  -0.64645
H    -1.21558  -4.06456  -2.97506
H    -2.80411  -3.27282  -2.91067
H    -1.38187  -2.36560  -3.49830
H     0.47611  -3.07485  -0.33146
H     0.68398  -2.54072  -2.00790
H    -0.33948  -0.16001  -2.59417
H     0.52103   1.03681  -1.60394
H     1.41029  -0.32502  -2.32452
H     1.22683  -1.43698   1.26342
H     2.34293   0.88183  -0.41167
H     3.16332  -0.46046   2.28386
H     6.26406   1.01052   2.38785
H     5.20363   2.11494   3.26593
H     4.98298   0.34957   3.44604
H     3.85312   2.23721  -0.30118
H     5.57621   2.13299   0.14434
H     4.51272   3.23664   1.01896
