23
Generated by autodE on: 2022-06-21. E = -351.521383 Ha
C    -3.69202   0.80373  -0.14433
C    -2.58586   0.03943  -0.00997
C    -2.68375  -1.44063   0.25805
C    -1.26122   0.64661  -0.12293
C    -0.07831  -0.00708  -0.00362
C     1.20954   0.64569  -0.12233
C     2.43217   0.06771  -0.00960
C     2.65900  -1.39165   0.26595
C     3.68492   0.88394  -0.15860
H    -4.69519   0.37587  -0.06361
H    -3.61725   1.87816  -0.33864
H    -2.18750  -2.02212  -0.53670
H    -2.18112  -1.70744   1.20260
H    -3.73179  -1.76572   0.32063
H    -1.24443   1.72532  -0.32002
H    -0.08668  -1.08257   0.19322
H     1.17719   1.72325  -0.32415
H     3.25264  -1.84609  -0.54696
H     1.73257  -1.96964   0.37704
H     3.25554  -1.51790   1.18673
H     4.30367   0.82176   0.75472
H     4.31265   0.49168  -0.97891
H     3.46947   1.94332  -0.36132
