29
Generated by autodE on: 2022-06-21. E = -596.535505 Ha
C    -3.94732  -0.47313   0.13512
C    -2.63765   0.21764   0.18803
N    -1.51133  -0.34254  -0.14196
C    -1.49711  -1.76163  -0.53953
C    -0.31850   0.43011  -0.32290
C    -0.45875   1.63610  -1.05631
C     0.76484   2.50449  -1.31046
O    -1.55796   2.05622  -1.52099
C     0.89650  -0.15482   0.25313
C     0.81522  -0.86793   1.47465
C     1.93840  -1.45718   2.05473
C     3.19226  -1.34937   1.44314
C     3.29423  -0.65953   0.23015
C     2.16837  -0.08524  -0.36241
H    -4.13418  -0.90345  -0.86316
H    -4.75561   0.22499   0.38471
H    -3.97366  -1.31276   0.85233
H    -2.57743   1.25150   0.52632
H    -1.95653  -2.38373   0.23939
H    -0.46389  -2.07810  -0.70282
H    -2.06395  -1.87844  -1.47489
H     0.42145   3.54542  -1.40010
H     1.24728   2.23134  -2.26362
H     1.52200   2.43886  -0.51808
H    -0.14964  -0.95089   1.98032
H     1.83439  -1.99668   2.99992
H     4.07431  -1.80471   1.89930
H     4.26067  -0.58408  -0.27539
H     2.27418   0.39816  -1.33289
