29
Generated by autodE on: 2022-07-27. E = -596.535356 Ha
C    -1.01791  -3.43085  -1.75175
C    -0.63932  -2.49821  -0.66414
N    -0.26527  -1.26820  -0.86505
C    -0.26864  -0.72795  -2.23656
C     0.33950  -0.49167   0.17499
C     1.30722  -1.15528   0.97182
C     2.01617  -0.39295   2.08145
O     1.62672  -2.37057   0.82633
C    -0.09987   0.90580   0.25052
C    -1.45347   1.22804  -0.01437
C    -1.91394   2.54398   0.02656
C    -1.04224   3.59129   0.34457
C     0.30182   3.29745   0.59907
C     0.76932   1.98353   0.53966
H    -1.24598  -4.42152  -1.33990
H    -0.20843  -3.52597  -2.49556
H    -1.90534  -3.06174  -2.29541
H    -0.66939  -2.82662   0.37370
H     0.01916   0.32582  -2.20866
H     0.45813  -1.28576  -2.84507
H    -1.26510  -0.82803  -2.68588
H     2.95463   0.05206   1.71105
H     1.41046   0.41147   2.51890
H     2.28111  -1.11668   2.86605
H    -2.15663   0.42516  -0.24800
H    -2.96696   2.75170  -0.18140
H    -1.40246   4.62189   0.38340
H     1.00352   4.10450   0.82610
H     1.83186   1.79544   0.69032
