52
Generated by autodE on: 2022-06-21. E = -948.046509 Ha. Imaginary frequency = -458.2 cm-1
C    -0.55593  -0.24992   2.56366
C    -1.11476  -1.18580   1.50644
O    -0.98472  -2.41863   1.72829
C    -1.74761  -0.60527   0.34752
C    -2.06831   0.84914   0.37670
C    -3.40208   1.29867   0.45157
C    -3.69980   2.66053   0.51632
C    -2.66946   3.60805   0.51696
C    -1.34149   3.17755   0.45392
C    -1.04522   1.81360   0.38363
N    -2.28637  -1.37984  -0.67834
C    -2.90041  -0.72859  -1.84407
C    -1.87909  -2.67224  -0.85872
C    -2.57068  -3.54731  -1.86448
C     0.04714  -2.55432  -1.48358
C     0.67465  -1.34019  -1.14727
C     0.57276  -0.17730  -2.09978
C     1.54040  -1.24927  -0.00500
C     2.33157  -0.18333   0.32359
C     3.17818  -0.15696   1.49304
C     3.97294   0.86212   1.91579
C     4.79248   0.73323   3.16865
C     4.10210   2.18080   1.20713
H     0.38985   0.19500   2.21157
H    -1.23299   0.57255   2.82960
H    -0.33516  -0.84966   3.45727
H    -4.21379   0.56753   0.46340
H    -4.74192   2.98409   0.57595
H    -2.90198   4.67422   0.57186
H    -0.52712   3.90636   0.45796
H    -0.00449   1.49259   0.34359
H    -2.82214   0.35656  -1.77086
H    -2.38372  -1.04740  -2.75836
H    -3.96145  -1.00509  -1.92622
H    -1.61981  -3.14718   0.08162
H    -2.08196  -4.53212  -1.87350
H    -2.55220  -3.14925  -2.88864
H    -3.62641  -3.70004  -1.58006
H    -0.20594  -2.69387  -2.53869
H     0.39020  -3.45919  -0.97371
H    -0.11533  -0.39999  -2.92627
H     0.23075   0.74671  -1.61131
H     1.56189   0.04946  -2.53722
H     1.55374  -2.12248   0.65690
H     2.32621   0.69521  -0.32701
H     3.16154  -1.06672   2.10609
H     5.86802   0.87213   2.95403
H     4.66026  -0.24582   3.65284
H     4.52540   1.51994   3.89800
H     3.50011   2.24864   0.29154
H     5.15628   2.37498   0.93949
H     3.80076   3.00785   1.87516
