60
Generated by autodE on: 2022-07-01. E = -1273.192059 Ha
C     4.00801   2.80769   2.94882
C     2.88698   2.11439   2.66505
C     1.81270   1.88151   3.69535
C     2.69318   1.55883   1.32100
C     1.61462   0.85662   0.93358
C     1.43963   0.27315  -0.43803
C     1.22155  -1.25831  -0.39966
C     1.90059  -1.89652   0.83803
C     3.40260  -1.88421   0.88758
O     1.23025  -2.41588   1.70820
C     1.81631  -1.98111  -1.63591
C     1.06809  -3.18468  -2.12577
O     2.86346  -1.60298  -2.12627
O    -0.17413  -1.45390  -0.34045
C    -0.93646  -0.25883  -0.61911
C    -1.62430   0.19750   0.68532
C    -1.40960  -0.49592   1.88450
C    -2.03408  -0.09416   3.07009
C    -2.89524   1.00458   3.07876
C    -3.13488   1.68952   1.88311
C    -2.51243   1.28604   0.70022
C    -2.04548  -0.65266  -1.60420
C    -2.74694   0.30020  -2.35997
C    -3.79130  -0.08216  -3.20548
C    -4.16242  -1.42590  -3.30845
C    -3.47833  -2.38121  -2.55297
C    -2.43326  -1.99710  -1.70731
C     0.15294   0.74924  -1.18887
C     0.35534   0.53751  -2.70218
C    -0.08599   2.23971  -0.94295
H     4.18132   3.23206   3.94176
H     4.78136   2.96703   2.19111
H     2.07495   2.34463   4.65688
H     0.84542   2.29339   3.36269
H     1.65049   0.80332   3.86016
H     3.50020   1.73757   0.60079
H     0.81102   0.67440   1.64861
H     2.32856   0.49942  -1.03890
H     3.75930  -2.81948   0.42237
H     3.84460  -1.04648   0.33652
H     3.72903  -1.87828   1.93589
H     0.12401  -2.86996  -2.59607
H     1.68105  -3.73053  -2.85418
H     0.79790  -3.83378  -1.27839
H    -0.73511  -1.34901   1.88999
H    -1.84202  -0.64914   3.99184
H    -3.38243   1.32084   4.00418
H    -3.81438   2.54515   1.86718
H    -2.73098   1.83334  -0.21461
H    -2.47875   1.35432  -2.30600
H    -4.31466   0.67883  -3.78930
H    -4.97845  -1.72441  -3.97074
H    -3.75823  -3.43561  -2.61734
H    -1.91219  -2.75018  -1.11851
H     1.32285   0.96105  -3.00819
H    -0.42923   1.04282  -3.27912
H     0.33498  -0.51898  -2.99940
H    -0.96632   2.60371  -1.49036
H    -0.21371   2.48250   0.11847
H     0.78818   2.80018  -1.30964
