23
Generated by autodE on: 2022-07-01. E = -351.521383 Ha
C     3.42034  -0.16934  -1.60464
C     2.50891   0.02229  -0.62562
C     2.92747   0.42080   0.76660
C     1.08588  -0.15630  -0.90738
C     0.07712   0.00314  -0.01411
C    -1.32040  -0.18715  -0.34469
C    -2.38262  -0.04983   0.48869
C    -3.78244  -0.28167  -0.00579
C    -2.28154   0.33546   1.93733
H     4.49086  -0.04251  -1.42077
H     3.11394  -0.45855  -2.61468
H     2.59401  -0.32223   1.51000
H     2.47307   1.38237   1.05803
H     4.01969   0.51826   0.84150
H     0.83348  -0.44469  -1.93493
H     0.32133   0.29090   1.01196
H    -1.52678  -0.47279  -1.38331
H    -3.80740  -0.55536  -1.07078
H    -4.40267   0.62141   0.13773
H    -4.27438  -1.08400   0.57307
H    -2.84686   1.26554   2.12504
H    -1.25130   0.48600   2.28462
H    -2.74860  -0.43849   2.57166
