60
Generated by autodE on: 2022-07-01. E = -1273.115642 Ha. Imaginary frequency = -330.9 cm-1
C     5.24810   1.52290   2.07721
C     3.93023   1.77263   1.90695
C     3.15742   2.64710   2.85916
C     3.23103   1.16609   0.78297
C     1.91108   1.34295   0.49262
C     1.28510   0.71505  -0.63359
C     0.81873  -1.66703   0.19852
C     0.69463  -1.87276   1.64455
C     1.88959  -1.65287   2.52852
O    -0.38469  -2.23850   2.12548
C     1.98605  -2.12638  -0.53816
C     1.77898  -2.60930  -1.95754
O     3.12469  -2.11869  -0.04535
O    -0.32310  -1.63463  -0.55112
C    -1.26118  -0.65708  -0.54296
C    -1.88057  -0.22999   0.76111
C    -1.19022   0.47328   1.76062
C    -1.80219   0.79946   2.96945
C    -3.12136   0.41182   3.22035
C    -3.81451  -0.31680   2.25128
C    -3.20251  -0.63122   1.03624
C    -2.16744  -0.79282  -1.70680
C    -3.22637   0.11689  -1.90521
C    -4.02958   0.04096  -3.04236
C    -3.80149  -0.94959  -4.00279
C    -2.76091  -1.86454  -3.81264
C    -1.95090  -1.78720  -2.68037
C     0.03207   1.04830  -1.20939
C    -0.01868   0.85807  -2.71425
C    -0.70684   2.28706  -0.75286
H     5.80651   1.95163   2.91380
H     5.79504   0.88014   1.38109
H     3.80371   3.02931   3.66145
H     2.70930   3.50711   2.33486
H     2.32531   2.08834   3.31871
H     3.82412   0.51016   0.13844
H     1.31464   2.00502   1.12277
H     1.96541   0.15620  -1.27600
H     2.72173  -2.30895   2.23856
H     2.25767  -0.62053   2.41652
H     1.59718  -1.83766   3.57098
H     1.43608  -1.79259  -2.60853
H     2.73330  -2.99688  -2.33685
H     1.01207  -3.39798  -1.99605
H    -0.15505   0.75719   1.61244
H    -1.23733   1.35317   3.72281
H    -3.60119   0.66584   4.16838
H    -4.83884  -0.64744   2.43814
H    -3.75677  -1.21478   0.30168
H    -3.42044   0.89611  -1.16935
H    -4.84027   0.76048  -3.17708
H    -4.43392  -1.01090  -4.89138
H    -2.57849  -2.64770  -4.55210
H    -1.14228  -2.50310  -2.54485
H     0.65467   1.59430  -3.18707
H    -1.02441   1.02846  -3.11880
H     0.31607  -0.14149  -3.01990
H    -1.76794   2.24247  -1.03470
H    -0.64602   2.47889   0.32327
H    -0.27484   3.16169  -1.27115
