29
Generated by autodE on: 2022-10-26. E = -707.974360 Ha
C     3.09670   1.54348   1.03872
O     1.90912   1.12497   0.37200
C     0.97637   0.47536   1.13890
O     1.16462   0.30835   2.34546
C    -0.15981   0.06031   0.37961
C    -1.29624  -0.57937   0.96104
O    -1.48951  -0.83835   2.14986
O    -2.22979  -0.91513   0.01232
C    -3.42682  -1.52244   0.49062
N    -0.18936   0.33591  -1.03262
C    -1.08413   1.41632  -1.48287
C     0.61241  -0.25832  -1.87394
C     1.49503  -1.37050  -1.44413
C     0.67140   0.18716  -3.29439
H     3.63544   0.68592   1.47044
H     3.72111   2.02593   0.27603
H     2.87207   2.26169   1.84228
H    -3.21471  -2.47367   1.00269
H    -3.96238  -0.85794   1.18635
H    -4.04899  -1.71026  -0.39375
H    -1.80470   1.61993  -0.68653
H    -0.49217   2.32380  -1.67489
H    -1.61844   1.12758  -2.39654
H     1.15451  -1.83603  -0.51157
H     1.56559  -2.11084  -2.25426
H     2.51018  -0.96787  -1.28253
H    -0.26299  -0.09276  -3.81111
H     1.51115  -0.29046  -3.81217
H     0.76799   1.28083  -3.36687
