29
Generated by autodE on: 2022-10-24. E = -707.974345 Ha
C    -2.28965  -3.01205  -0.02779
O    -1.68722  -1.72333   0.05616
C    -0.31682  -1.68535  -0.01227
O     0.33133  -2.71918  -0.18075
C     0.18236  -0.35454   0.12541
C     1.57133  -0.02968   0.04971
O     2.50394  -0.80091  -0.18277
O     1.81089   1.30152   0.27578
C     3.16729   1.72520   0.17231
N    -0.76379   0.69828   0.38488
C    -1.36576   0.73899   1.72871
C    -1.00468   1.64414  -0.48196
C    -1.84860   2.81152  -0.10169
C    -0.43735   1.59728  -1.85192
H    -2.06201  -3.49733  -0.98943
H    -3.37175  -2.84967   0.05680
H    -1.94822  -3.66733   0.78855
H     3.16577   2.80456   0.37071
H     3.56915   1.53440  -0.83473
H     3.80357   1.21365   0.91076
H    -1.22855  -0.23982   2.19571
H    -2.43626   0.97210   1.67225
H    -0.85474   1.50282   2.33400
H    -1.79282   3.59204  -0.86941
H    -2.90093   2.49268  -0.00446
H    -1.54229   3.22715   0.86984
H     0.45341   2.24877  -1.88342
H    -1.16784   2.01182  -2.56161
H    -0.13500   0.58398  -2.14228
