73
Generated by autodE on: 2022-10-24. E = -1696.272900 Ha. Imaginary frequency = -346.4 cm-1
C    -0.37745 -11.76427  -6.24555
O    -1.55699 -12.19493  -6.92760
C    -2.31129 -13.12106  -6.29938
O    -2.08555 -13.44923  -5.14510
C    -3.41733 -13.62341  -7.14231
C    -4.69603 -13.83999  -6.40202
O    -4.90713 -13.55603  -5.23658
O    -5.63282 -14.42211  -7.17005
C    -6.89435 -14.69076  -6.55450
C    -3.14153 -15.72565  -7.76935
C    -3.31169 -15.77638  -9.01477
C    -3.66277 -16.72437 -10.12705
C    -4.24045 -15.94128 -11.32955
C    -3.58405 -15.83511 -12.56170
C    -4.14089 -15.10090 -13.61581
C    -5.36977 -14.45833 -13.45828
C    -6.03322 -14.54992 -12.22952
C    -5.47154 -15.27923 -11.18099
C    -2.46178 -17.59209 -10.53343
C    -1.20041 -17.46400  -9.94038
C    -0.14056 -18.30218 -10.30877
C    -0.32688 -19.29186 -11.27456
C    -1.58614 -19.43738 -11.86863
C    -2.63816 -18.59839 -11.50023
C    -4.81570 -17.67102  -9.62293
C    -4.50357 -18.79835  -8.63551
C    -4.31304 -18.45447  -7.15172
C    -2.90869 -17.99902  -6.73011
C    -2.74721 -16.49075  -6.56790
F    -3.57425 -16.12542  -5.47916
O    -1.43814 -16.10849  -6.27077
C    -0.84397 -16.63482  -5.08797
C    -2.71410 -13.59610  -9.42767
C    -1.26078 -13.89526  -9.16949
C    -2.94281 -13.09688 -10.82473
N    -3.53661 -13.12547  -8.45377
C    -4.73892 -12.37387  -8.84402
H     0.28617 -12.61757  -6.03923
H    -0.63072 -11.26750  -5.29745
H     0.12085 -11.05583  -6.91829
H    -6.76748 -15.37485  -5.70277
H    -7.36742 -13.76061  -6.20629
H    -7.51212 -15.16261  -7.32769
H    -2.61659 -16.31436 -12.70809
H    -3.60230 -15.03021 -14.56409
H    -5.80555 -13.88665 -14.28107
H    -6.98933 -14.04182 -12.08166
H    -5.99089 -15.30819 -10.22215
H    -1.04107 -16.71332  -9.16878
H     0.83358 -18.17812  -9.82936
H     0.49820 -19.94805 -11.56159
H    -1.75072 -20.21096 -12.62276
H    -3.61183 -18.72700 -11.97618
H    -5.24580 -18.13215 -10.52514
H    -5.60776 -17.04105  -9.19371
H    -5.36910 -19.47893  -8.69613
H    -3.64180 -19.38931  -8.98691
H    -4.54791 -19.36453  -6.57845
H    -5.05991 -17.70525  -6.83754
H    -2.65232 -18.44380  -5.75740
H    -2.15190 -18.34060  -7.45129
H    -1.52501 -16.54823  -4.22822
H    -0.53976 -17.68658  -5.21254
H     0.04972 -16.02598  -4.89610
H    -0.70230 -12.94622  -9.24732
H    -0.89112 -14.56818  -9.95325
H    -1.05265 -14.34205  -8.19524
H    -3.98380 -13.15040 -11.15281
H    -2.61899 -12.04096 -10.87283
H    -2.32116 -13.66328 -11.52543
H    -4.44556 -11.51359  -9.45960
H    -5.45241 -12.99280  -9.40483
H    -5.22741 -11.98228  -7.94671
