66
Generated by autodE on: 2022-06-29. E = -1348.044634 Ha
C     1.71085  -3.22308   0.93152
N     0.79612  -2.41723   0.15017
C     1.18360  -1.78155  -0.96266
O     2.27668  -1.96989  -1.51269
C     0.21982  -0.71522  -1.50894
C     0.06092  -0.88850  -3.05014
C     0.28096  -2.24451  -3.66525
O    -0.32353   0.03992  -3.74049
N    -1.10046  -0.74064  -0.88396
C    -2.05258  -1.75599  -1.29620
C    -1.59828   0.60723  -0.49015
C    -1.73295   0.69757   1.04366
C    -1.82459   1.95019   1.67074
C    -1.94799   2.05589   3.05771
C    -1.99416   0.90443   3.85064
C    -1.93097  -0.34858   3.23658
C    -1.80573  -0.44745   1.84674
C    -2.96520   0.92110  -1.14070
C    -4.15085   0.95568  -0.38999
C    -5.38830   1.19291  -0.99815
C    -5.46943   1.39468  -2.37703
C    -4.29882   1.34797  -3.14069
C    -3.06555   1.11178  -2.53003
C    -0.47904   1.54536  -1.01046
C     0.80851   0.69758  -1.07087
C     1.83855   1.26583  -2.04796
C     1.38874   0.56782   0.32578
C     2.68916   0.62819   0.67096
C     3.14104   0.44750   2.04229
C     4.41887   0.45555   2.49195
C     4.72367   0.23912   3.94822
C     5.62500   0.66928   1.62073
H     2.46900  -2.59774   1.43432
H     1.14665  -3.77632   1.69294
H     2.23469  -3.94114   0.28491
H    -0.06361  -2.07287   0.56931
H     1.35783  -2.37060  -3.85612
H    -0.02304  -3.06098  -2.99580
H    -0.26466  -2.29985  -4.61657
H    -2.45210  -1.61410  -2.31868
H    -2.90957  -1.75963  -0.60937
H    -1.58394  -2.74969  -1.24606
H    -1.80551   2.86119   1.06954
H    -2.00680   3.04379   3.52115
H    -2.08480   0.98455   4.93647
H    -1.97840  -1.25873   3.83947
H    -1.76816  -1.43495   1.38797
H    -4.11988   0.79333   0.68680
H    -6.29238   1.21778  -0.38475
H    -6.43449   1.58208  -2.85393
H    -4.34361   1.49321  -4.22295
H    -2.17209   1.05579  -3.14975
H    -0.72209   1.88871  -2.01979
H    -0.34391   2.43076  -0.37847
H     2.24528   2.20765  -1.65124
H     2.67349   0.56655  -2.19433
H     1.38870   1.47242  -3.02496
H     0.66708   0.37719   1.12257
H     3.44751   0.79998  -0.09601
H     2.34586   0.27840   2.77873
H     5.38314  -0.63672   4.08512
H     3.81235   0.08411   4.54442
H     5.27199   1.10224   4.36682
H     6.20412   1.54007   1.97574
H     5.38230   0.82928   0.56229
H     6.30499  -0.19830   1.68894
