23
Generated by autodE on: 2022-06-29. E = -351.521384 Ha
C     3.71390  -0.55140  -0.44881
C     2.55943   0.14266  -0.34271
C     2.53914   1.64727  -0.43046
C     1.29774  -0.56606  -0.13795
C     0.07672   0.01213  -0.01275
C    -1.14485  -0.73997   0.18932
C    -2.39898  -0.24035   0.32789
C    -2.73838   1.22281   0.29547
C    -3.57327  -1.15585   0.52960
H     4.67181  -0.04653  -0.60184
H     3.72559  -1.64386  -0.38463
H     2.12450   2.09363   0.48868
H     3.54989   2.05071  -0.58442
H     1.89958   1.98833  -1.26150
H     1.36601  -1.65928  -0.08331
H     0.00019   1.10158  -0.06562
H    -1.02780  -1.82964   0.23218
H    -1.86728   1.87577   0.15626
H    -3.45706   1.43021  -0.51711
H    -3.24337   1.51818   1.23214
H    -3.27701  -2.21496   0.54688
H    -4.32121  -1.01532  -0.27150
H    -4.09355  -0.92280   1.47607
