43
Generated by autodE on: 2022-07-28. E = -996.493045 Ha
C     1.52018  -3.87356   1.44937
N     1.86796  -2.79802   0.54521
C     0.91254  -2.00333  -0.00701
O    -0.28770  -2.19523   0.30324
C     1.30258  -0.94003  -0.93206
C     2.55143  -0.59363  -1.50384
C     3.77485  -1.47816  -1.34220
O     2.69117   0.47587  -2.15764
N     0.19308  -0.09815  -1.29522
C    -0.23095  -0.16803  -2.69900
C    -0.49580   0.52902  -0.37075
C     0.11278   0.81472   0.94228
C     1.41285   1.34893   1.01737
C     1.96433   1.65900   2.25780
C     1.23668   1.42072   3.43158
C    -0.05420   0.89001   3.36010
C    -0.62281   0.59956   2.11817
C    -1.88766   0.95716  -0.59625
C    -2.83644   0.03820  -1.08050
C    -4.16654   0.42723  -1.23312
C    -4.55625   1.73374  -0.91882
C    -3.61711   2.64842  -0.42945
C    -2.29028   2.25901  -0.24990
H     2.43866  -4.39963   1.73958
H     0.83738  -4.59774   0.97663
H     1.02695  -3.50009   2.36251
H     2.84512  -2.61450   0.37109
H     4.22480  -1.33784  -0.34355
H     3.55976  -2.54725  -1.48028
H     4.52088  -1.16313  -2.08422
H     0.67153  -0.08279  -3.31401
H    -0.71634  -1.13419  -2.89343
H    -0.91415   0.65348  -2.94021
H     1.97087   1.53424   0.09846
H     2.96675   2.08915   2.31213
H     1.67699   1.65722   4.40302
H    -0.62337   0.70534   4.27367
H    -1.62991   0.18443   2.05661
H    -2.53135  -0.98557  -1.29954
H    -4.90313  -0.29334  -1.59482
H    -5.59779   2.03745  -1.04643
H    -3.92224   3.66651  -0.17861
H    -1.55658   2.96462   0.14385
