43
Generated by autodE on: 2022-06-18. E = -904.304206 Ha. Imaginary frequency = -346.8 cm-1
C     1.69777  -1.87264   3.22519
O     1.39840  -1.01159   2.11054
C     2.23334  -1.05454   1.07436
O     3.23071  -1.74077   0.99045
C     1.72053  -0.24509  -0.03474
N     1.70287   0.92795  -0.32795
C     1.37592   1.87277  -1.18980
C     2.29318   2.18904  -2.32790
C     0.15519   2.63088  -0.96769
C    -0.59305   2.41086   0.32012
O    -0.25811   3.40710  -1.84483
C    -0.16315  -0.64132  -2.17655
C    -0.02339   0.02736  -3.52144
C    -1.43356  -0.50451  -1.49371
C    -1.68470  -0.88885  -0.20880
C    -2.95041  -0.71089   0.46202
C    -3.22684  -1.01193   1.75862
C    -2.22918  -1.58873   2.72344
C    -4.59355  -0.76739   2.33131
C     0.85239  -1.42037  -1.64029
H     1.72732  -2.92069   2.89604
H     0.88584  -1.71991   3.94446
H     2.66288  -1.59482   3.67156
H     2.93581   1.33083  -2.56845
H     2.93881   3.05528  -2.09965
H     1.69156   2.45400  -3.20896
H     0.04941   2.62042   1.18960
H    -0.91331   1.35828   0.39856
H    -1.47877   3.05892   0.34559
H     1.01850   0.02321  -3.87084
H    -0.38621   1.06821  -3.50943
H    -0.62763  -0.50945  -4.27588
H    -2.23527  -0.00116  -2.04720
H    -0.87335  -1.34344   0.36506
H    -3.75710  -0.27789  -0.14177
H    -2.59768  -2.54694   3.13060
H    -1.23803  -1.75895   2.28582
H    -2.10636  -0.91592   3.59092
H    -5.02977  -1.70539   2.72008
H    -5.28600  -0.34357   1.58919
H    -4.54002  -0.07743   3.19292
H     0.61777  -2.21032  -0.92381
H     1.77824  -1.55937  -2.20592
