22
Generated by autodE on: 2022-06-02. E = -885.215161 Ha
C     2.89582  -0.16629  -0.98478
C     1.91785  -0.13757   0.16288
O     2.29309   0.05229   1.31777
C     0.50189  -0.35584  -0.17399
C    -0.59336  -0.09700   0.58590
Cl   -0.67443   0.56165   2.17620
C    -1.83659  -0.27188  -0.25388
C    -1.82564   0.93130  -1.25605
C    -0.60132   0.62009  -2.16240
C    -0.05224  -0.71011  -1.55662
C    -1.36661  -1.41887  -1.17143
H     2.91484  -1.17283  -1.43439
H     2.58441   0.53089  -1.77905
H     3.90000   0.09430  -0.62587
H    -2.76801  -0.39712   0.30991
H    -1.74530   1.89271  -0.72952
H    -2.76426   0.93554  -1.82884
H     0.15707   1.41533  -2.14889
H    -0.90678   0.46124  -3.20711
H     0.63717  -1.25862  -2.20810
H    -2.03840  -1.58484  -2.02680
H    -1.20568  -2.36292  -0.63094
