49
Generated by autodE on: 2022-06-02. E = -1629.854991 Ha. Imaginary frequency = -359.0 cm-1
C    -2.20428  -3.48564   1.16341
C    -1.58725  -2.78603  -0.00876
O    -1.85574  -3.03907  -1.17499
C    -0.60689  -1.71070   0.28009
O    -0.27811  -1.47160   1.60763
C     0.83841  -0.66483   1.62376
O     1.31117  -0.27452   2.66371
C     1.18160  -0.44207   0.19613
C     2.43644   0.17069  -0.26352
C     3.33203   0.73312   0.66815
C     4.48833   1.38489   0.23799
C     4.77668   1.49074  -1.12513
C     3.89134   0.94448  -2.05932
C     2.73030   0.29724  -1.63779
N     0.52683  -1.49741  -0.45630
C     1.01676  -2.33111  -1.54997
C    -0.39119   1.01249  -0.01002
Cl   -0.03461   2.18714   1.27004
C    -0.29266   1.60798  -1.41605
C    -1.44741   2.64473  -1.54144
C    -2.72098   1.75101  -1.55624
C    -2.13684   0.30708  -1.44282
C    -0.86315   0.47601  -2.28612
C    -1.59302   0.18250  -0.01058
C    -2.55232   0.11347   1.12285
C    -3.96366  -0.33133   0.80747
O    -2.22713   0.36561   2.27800
H    -2.57189  -2.76758   1.91150
H    -1.42483  -4.08901   1.65957
H    -3.01782  -4.13623   0.81953
H     3.11684   0.65612   1.73147
H     5.16984   1.81153   0.97751
H     5.68353   2.00013  -1.45900
H     4.09966   1.02904  -3.12818
H     2.04864  -0.09217  -2.39103
H     2.11210  -2.34332  -1.50891
H     0.69924  -1.97925  -2.54126
H     0.65310  -3.35441  -1.40644
H     0.69878   2.00224  -1.66657
H    -1.32987   3.19798  -2.48442
H    -1.44027   3.37225  -0.71977
H    -3.27307   1.84997  -2.50257
H    -3.41446   1.99700  -0.74151
H    -2.82431  -0.49059  -1.74574
H    -0.24576  -0.41625  -2.35439
H    -1.08630   0.82001  -3.30645
H    -4.49960   0.46427   0.26685
H    -3.97799  -1.21921   0.15891
H    -4.49170  -0.54212   1.74642
