55
Generated by autodE on: 2022-06-28. E = -1336.467473 Ha
C     2.49763  -0.89150   3.16474
N     1.99619  -0.58045   1.84157
C     1.10784   0.39288   1.62987
O     0.71651   1.14954   2.53047
C     0.59229   0.60483   0.17958
C     1.59936   1.45359  -0.61540
C     2.95063   1.57268  -0.26544
C     3.83290   2.31413  -1.06069
C     3.37900   2.94455  -2.21992
C     2.03040   2.83134  -2.57780
C     1.15164   2.09691  -1.78173
N    -0.70497   1.27517   0.26588
C    -1.83070   0.35483   0.05860
C    -2.47018   0.96163  -1.22651
C    -3.40489   2.12035  -1.03333
O    -2.14400   0.56654  -2.32969
C    -2.87598   0.32988   1.19002
C    -2.64344   1.11137   2.44207
O    -3.89683  -0.32277   1.02124
C    -1.19365  -1.05976  -0.17377
C    -1.88446  -1.90903  -1.26316
N    -3.19899  -2.11876  -1.08872
O    -1.24663  -2.41711  -2.18933
C    -1.13376  -1.90613   1.12753
C    -0.17001  -3.04185   0.95022
C     0.87614  -2.93487   0.11099
N     1.20656  -1.77449  -0.58104
C     2.06004  -1.89896  -1.75556
C     0.23585  -0.69088  -0.62698
H     3.25092  -1.68464   3.08100
H     2.96047  -0.00694   3.62830
H     1.68716  -1.23995   3.82674
H     2.19341  -1.19585   1.05272
H     3.33512   1.08400   0.62894
H     4.88189   2.39543  -0.76585
H     4.06813   3.52185  -2.84083
H     1.66007   3.31964  -3.48252
H     0.10264   2.01458  -2.06839
H    -0.75872   1.80688   1.13150
H    -4.39816   1.72080  -0.76978
H    -3.48768   2.69595  -1.96417
H    -3.07958   2.76783  -0.20658
H    -3.44693   0.90390   3.15939
H    -2.63501   2.18906   2.20414
H    -1.65932   0.87428   2.87373
H    -3.71339  -1.60816  -0.36916
H    -3.70152  -2.65232  -1.79130
H    -2.13397  -2.28478   1.37508
H    -0.84250  -1.25789   1.97256
H    -0.32614  -3.97378   1.49527
H     1.57258  -3.76256  -0.04542
H     1.48991  -2.22057  -2.64601
H     2.85103  -2.63604  -1.55767
H     2.53958  -0.93494  -1.97415
H     0.15551  -0.36922  -1.67136
