35
Generated by autodE on: 2022-07-28. E = -878.730464 Ha
C     3.62318  -1.44586   2.56349
N     2.74560  -0.87082   1.56221
C     1.41885  -0.82797   1.73956
O     0.85668  -1.27572   2.75309
C     0.58216  -0.25210   0.63519
N    -0.70222  -0.42642   0.87673
C    -1.85265  -0.07755   0.22016
C    -1.91537   1.08666  -0.67155
C    -1.08033   2.30806  -0.34176
O    -2.71864   1.14825  -1.60350
C    -3.04759  -0.84617   0.54778
C    -2.92862  -1.93047   1.60626
O    -4.14167  -0.63823   0.01150
C     1.12354   0.27421  -0.62592
C     2.11473   1.27153  -0.63103
C     2.62566   1.74996  -1.83928
C     2.15432   1.24039  -3.05175
C     1.16991   0.24461  -3.05352
C     0.65363  -0.23553  -1.85196
H     3.45401  -0.97631   3.54419
H     4.66314  -1.27795   2.25997
H     3.45234  -2.52929   2.67057
H     3.14483  -0.53180   0.69308
H    -0.81234  -0.96710   1.75208
H    -1.78329   3.15151  -0.25005
H    -0.49889   2.22431   0.58401
H    -0.39940   2.53700  -1.17506
H    -3.92183  -2.36993   1.76159
H    -2.22960  -2.72319   1.29550
H    -2.57151  -1.52605   2.56865
H     2.46516   1.69306   0.31262
H     3.38947   2.53055  -1.83079
H     2.55215   1.61758  -3.99642
H     0.80407  -0.16206  -3.99880
H    -0.11357  -1.01172  -1.86110
