45
Generated by autodE on: 2022-06-20. E = -1109.116999 Ha
C    -2.05482   1.33352   1.87004
C    -1.86116   1.75640   0.61308
C    -2.70355   2.82031  -0.03002
C    -0.78458   1.15583  -0.27611
C     0.58639   0.86341   0.41118
C     1.75553   1.64441  -0.10253
C     2.84157   1.99979   0.61228
C     3.96916   2.76372  -0.02781
C     3.06042   1.65750   2.06189
C     0.68834  -0.67142   0.17661
C     1.62553  -1.41618   1.10621
O     1.33551  -1.48682   2.30345
N     2.73727  -1.91138   0.56603
C     3.78285  -2.45465   1.41257
O     0.98314  -0.89082  -1.23273
C    -0.18487  -0.63336  -1.88286
O    -0.31747  -0.65831  -3.07345
C    -1.16952  -0.29377  -0.75667
C    -2.62737  -0.52658  -1.07900
O    -3.16541   0.16476  -1.94759
N    -3.22608  -1.49738  -0.38524
C    -4.64054  -1.77444  -0.54746
O    -0.63531  -1.12243   0.28819
H    -1.43197   0.55860   2.32228
H    -2.85959   1.74820   2.48343
H    -3.10964   2.45869  -0.98859
H    -2.08946   3.70926  -0.25781
H    -3.53528   3.13050   0.61855
H    -0.64983   1.78738  -1.16331
H     0.48425   0.98304   1.49504
H     1.71519   1.91785  -1.16200
H     4.92769   2.23435   0.11147
H     3.80987   2.91358  -1.10557
H     4.08826   3.75151   0.45051
H     3.42681   2.53943   2.61394
H     2.16892   1.27367   2.57199
H     3.85362   0.89351   2.14987
H     2.90035  -1.78548  -0.42796
H     3.45705  -3.34270   1.98382
H     4.61536  -2.75241   0.76830
H     4.10690  -1.69758   2.13831
H    -2.69677  -1.97833   0.33495
H    -5.27679  -0.94158  -0.20060
H    -4.88421  -2.66311   0.04482
H    -4.87201  -1.98052  -1.60149
