23
Generated by autodE on: 2022-06-20. E = -351.519866 Ha
C     3.52596  -0.47681   1.25356
C     2.52950  -0.28900   0.36031
C     2.81236  -0.16663  -1.11517
C     1.14525  -0.20008   0.81988
C     0.05922  -0.00989   0.02879
C    -1.29716   0.07215   0.52920
C    -2.40416   0.26300  -0.23080
C    -2.34142   0.41664  -1.73266
C    -3.76946   0.33303   0.38830
H     4.57056  -0.54666   0.93767
H     3.31693  -0.56502   2.32418
H     3.88833  -0.25172  -1.32291
H     2.45908   0.80107  -1.50860
H     2.28590  -0.94895  -1.68688
H     0.99249  -0.29751   1.90152
H     0.20217   0.08906  -1.05121
H    -1.42308  -0.03036   1.61351
H    -3.34475   0.55823  -2.15973
H    -1.72754   1.28361  -2.02862
H    -1.89534  -0.46885  -2.21529
H    -3.73890   0.21188   1.48120
H    -4.42994  -0.44668  -0.03257
H    -4.25514   1.29821   0.15605
