22
Generated by autodE on: 2022-06-20. E = -757.541087 Ha
C     4.56842   0.39981  -0.64276
N     3.13176   0.29809  -0.47210
C     2.56363  -0.37325   0.53794
O     3.13006  -0.98008   1.44193
C     1.06345  -0.35010   0.51924
O     0.35017  -0.93163   1.41612
C    -1.09919  -0.68669   1.06882
O    -1.96744  -1.14062   1.77423
C    -0.98158   0.07484  -0.09365
C    -1.96119   0.66854  -0.99996
O    -1.60343   1.31393  -1.99453
N    -3.25045   0.44770  -0.65222
C    -4.37420   0.94517  -1.41726
O     0.36566   0.25051  -0.38461
H     4.88561   1.45319  -0.61271
H     4.87186  -0.03055  -1.60914
H     5.06413  -0.14807   0.16631
H     2.53129   0.75617  -1.15375
H    -3.43786  -0.09967   0.18378
H    -3.99569   1.53259  -2.26182
H    -4.98715   0.11774  -1.80956
H    -5.01902   1.58955  -0.79897
