45
Generated by autodE on: 2022-06-20. E = -1109.062440 Ha. Imaginary frequency = -363.3 cm-1
C    -2.05254   1.04481   1.90260
C    -1.86595   1.64532   0.70384
C    -2.99274   2.33913  -0.01797
C    -0.58427   1.62663   0.01378
C     0.63111   1.21693   0.59394
C     1.90630   1.66964   0.02372
C     3.09393   1.73216   0.66460
C     4.32477   2.21267  -0.05172
C     3.30818   1.36214   2.10619
C     0.60836  -0.80061   0.06204
C     1.51267  -1.44165   1.07008
O     1.08207  -1.68499   2.19882
N     2.76450  -1.64539   0.64511
C     3.81156  -2.14390   1.51527
O     0.97529  -0.70730  -1.23582
C    -0.20786  -0.46906  -1.98950
O    -0.15260  -0.17439  -3.16190
C    -1.24567  -0.66727  -1.03102
C    -2.68745  -0.71571  -1.25450
O    -3.16572  -0.39797  -2.35576
N    -3.43779  -1.10584  -0.20243
C    -4.88431  -1.02676  -0.24334
O    -0.69054  -1.11839   0.13694
H    -1.25135   0.51705   2.42421
H    -3.03472   1.05540   2.38176
H    -3.14674   1.90133  -1.01665
H    -2.75446   3.40457  -0.17406
H    -3.93456   2.27211   0.54380
H    -0.54334   2.13219  -0.95523
H     0.61304   1.02751   1.66860
H     1.86766   1.97508  -1.02713
H     4.11255   2.51113  -1.08869
H     5.09443   1.42046  -0.06668
H     4.77644   3.07095   0.47625
H     2.43167   0.90888   2.58635
H     3.59189   2.25844   2.68591
H     4.15126   0.65817   2.19787
H     2.99643  -1.39386  -0.31155
H     3.59927  -1.85153   2.55150
H     3.88514  -3.24299   1.47148
H     4.77322  -1.71531   1.20527
H    -2.98370  -1.20893   0.69985
H    -5.27060  -1.52850  -1.14187
H    -5.23572   0.01879  -0.25794
H    -5.29349  -1.52452   0.64440
