17
Generated by autodE on: 2022-06-18. E = -364.110566 Ha
C    -1.78875   0.70298  -0.50156
C    -1.27906  -0.62821  -0.11257
C    -2.16563  -1.80238   0.07123
O    -0.02243  -0.85213   0.04101
C     1.08505  -0.04580  -0.03149
C     2.37205  -0.80955   0.03317
C     1.00860   1.32722   0.17475
N     1.02918   2.49171   0.36308
H    -1.66718   1.44689   0.30398
H    -2.85237   0.63822  -0.76353
H    -1.21201   1.07782  -1.36735
H    -2.88275  -1.61126   0.88959
H    -2.76850  -1.97018  -0.83861
H    -1.58371  -2.70397   0.30276
H     3.21693  -0.11045  -0.04699
H     2.48889  -1.36634   0.98262
H     2.46319  -1.53693  -0.79225
