20
Generated by autodE on: 2022-06-18. E = -457.715343 Ha
C    -2.69049  -1.17139   1.21975
N    -1.33314  -0.67720   1.05736
C    -0.56267  -0.39309   2.19181
C     0.66465   0.14578   2.11839
C     1.33376   0.49698   0.81251
C     0.41124   0.19017  -0.35585
C     0.81924   0.46683  -1.74233
N     2.05254   1.00974  -1.90186
O     0.09846   0.23034  -2.73320
C    -0.82241  -0.35673  -0.16465
H    -2.70277  -2.05986   1.86978
H    -3.09473  -1.45168   0.23905
H    -3.34870  -0.40672   1.66625
H    -1.03559  -0.64543   3.14270
H     1.20629   0.33323   3.04837
H     1.63006   1.56569   0.81234
H     2.29192  -0.05421   0.71535
H     2.37759   1.20968  -2.84137
H     2.66921   1.20442  -1.12347
H    -1.46407  -0.56733  -1.02172
