37
Generated by autodE on: 2022-06-18. E = -821.824885 Ha. Imaginary frequency = -367.7 cm-1
C    -3.55336   0.46980  -0.61597
N    -2.25758  -0.16536  -0.76539
C    -1.92026  -0.77231  -1.96737
C    -0.88838  -1.62947  -2.07812
C    -0.10808  -2.06954  -0.86603
C    -0.24506  -1.06208   0.26891
C     0.40119  -1.34648   1.56099
N     1.32080  -2.34656   1.56958
O     0.11905  -0.74708   2.61798
C    -1.33343  -0.17406   0.27332
C    -0.27719   1.84788  -0.02111
C     0.04312   2.22114   1.39026
C    -1.23646   2.70099  -0.78428
O     0.66884   1.36122  -0.82227
C     1.63038   0.46944  -0.52630
C     2.27880  -0.12685  -1.73733
C     2.40749   0.57748   0.65070
N     3.10542   0.56816   1.59101
H    -3.55786   1.09692   0.28392
H    -3.78188   1.10735  -1.48403
H    -4.36187  -0.27686  -0.51714
H    -2.54889  -0.49629  -2.81810
H    -0.64727  -2.05489  -3.05402
H    -0.46921  -3.06094  -0.51700
H     0.94588  -2.23916  -1.13662
H     1.88082  -2.44791   2.40983
H     1.71183  -2.70545   0.70649
H    -1.70356   0.19719   1.22779
H     0.40630   1.37869   1.98858
H    -0.86201   2.61920   1.86867
H     0.81189   3.01643   1.39496
H    -1.49614   2.23799  -1.74632
H    -2.14797   2.87521  -0.19999
H    -0.78028   3.68795  -0.98735
H     1.50881  -0.44706  -2.45595
H     2.94380   0.59431  -2.24642
H     2.88465  -0.99839  -1.45173
