42
Generated by autodE on: 2022-06-20. E = -1032.593863 Ha
C     4.88669   1.64936   0.97652
C     3.78022   0.95931   1.31903
C     3.52469   0.51503   2.73494
C     2.78114   0.63511   0.29522
C     1.64752  -0.05579   0.50998
C     0.64029  -0.33413  -0.55634
C     0.30544  -1.83884  -0.81441
C     1.14490  -2.40497  -1.96351
C     0.42993  -2.74120   0.42523
C    -1.16028  -1.69656  -1.18907
C    -1.88803  -2.79698  -1.76918
N    -2.43193  -3.71124  -2.23491
N    -1.74635  -0.58353  -0.95489
C    -0.76618   0.32168  -0.34266
C    -0.85216   1.70538  -1.00871
O     0.06765   2.25025  -1.57466
O    -2.06759   2.22126  -0.87770
C    -2.28364   3.53088  -1.43255
C    -1.06641   0.55128   1.14521
O    -0.66760   1.53199   1.73713
O    -1.73387  -0.44565   1.70086
C    -1.96828  -0.36447   3.11921
H     5.05683   1.96872  -0.05621
H     5.64798   1.91206   1.71642
H     4.33344   0.83579   3.40641
H     2.57344   0.92832   3.10987
H     3.43652  -0.58250   2.79687
H     2.98750   1.00702  -0.71489
H     1.42131  -0.42952   1.51177
H     1.00832   0.08296  -1.50215
H     0.99297  -1.83180  -2.89061
H     0.89404  -3.45952  -2.15586
H     2.21097  -2.35195  -1.69397
H     1.48845  -2.84091   0.70694
H     0.04190  -3.74658   0.20013
H    -0.12692  -2.33755   1.28130
H    -2.09127   3.52160  -2.51460
H    -1.62232   4.26114  -0.94505
H    -3.33346   3.77210  -1.23258
H    -2.55126   0.53657   3.35486
H    -1.01030  -0.33915   3.65711
H    -2.53185  -1.26675   3.38021
