23
Generated by autodE on: 2022-06-20. E = -351.521385 Ha
C     3.64725  -0.22026  -0.97284
C     2.55565  -0.34669  -0.18661
C     2.65463  -0.91629   1.20546
C     1.24606   0.07088  -0.68348
C     0.07791  -0.00821   0.00207
C    -1.19600   0.41935  -0.53920
C    -2.40401   0.36604   0.07677
C    -3.64431   0.85054  -0.61926
C    -2.62555  -0.16372   1.46501
H     3.57182   0.19259  -1.98357
H     4.63879  -0.52525  -0.62679
H     2.02843  -1.81779   1.31119
H     2.29490  -0.19414   1.95716
H     3.69123  -1.18510   1.45294
H     1.22808   0.47943  -1.70109
H     0.08752  -0.41491   1.01696
H    -1.16527   0.82654  -1.55710
H    -3.43321   1.22867  -1.63032
H    -4.12962   1.65591  -0.03904
H    -4.39088   0.03980  -0.69816
H    -3.08259   0.61375   2.10242
H    -3.34435  -1.00194   1.44323
H    -1.70812  -0.51306   1.95593
