19
Generated by autodE on: 2022-06-20. E = -680.983360 Ha
C    -0.27878  -3.58661   0.99156
O     0.05534  -2.27509   0.51756
C    -0.85416  -1.31076   0.72566
O    -1.91871  -1.49430   1.28399
C    -0.39164  -0.01997   0.19262
N     0.78842   0.03364  -0.38280
C     1.84172   0.08522  -0.89722
C     3.06133   0.14732  -1.48954
N     4.11292   0.20155  -2.00055
C    -1.18801   1.21434   0.27243
O    -2.29003   1.30173   0.77851
O    -0.54167   2.24713  -0.28979
C    -1.21800   3.51154  -0.27496
H    -1.18877  -3.95543   0.49629
H    -0.43377  -3.57596   2.08019
H     0.57559  -4.22425   0.73693
H    -2.16884   3.44715  -0.82363
H    -1.41332   3.83242   0.75858
H    -0.54268   4.21900  -0.76970
