34
Generated by autodE on: 2022-06-27. E = -840.608654 Ha
C     5.36708  -1.05824  -0.03378
N     3.95794  -1.25841  -0.30475
C     3.04595  -0.30931  -0.01783
O     3.37122   0.78239   0.49295
C     1.62809  -0.60002  -0.33075
C     1.15128  -1.81831  -1.04147
N     0.83539   0.39176   0.04556
C    -0.49785   0.62693   0.04707
C    -0.80796   2.00103   0.38795
O     0.04351   2.86700   0.60587
O    -2.12879   2.25931   0.46797
C    -2.49880   3.60146   0.79175
C    -1.51150  -0.43101  -0.10825
C    -1.44076  -1.60259   0.67189
C    -2.40511  -2.60413   0.54663
C    -3.46557  -2.45288  -0.35216
C    -3.55525  -1.28767  -1.12223
C    -2.58934  -0.28779  -1.00307
H     5.91737  -1.95656  -0.33841
H     5.76262  -0.19432  -0.59141
H     5.54786  -0.87769   1.03815
H     3.65643  -2.14484  -0.69174
H     0.83456  -2.61973  -0.35155
H     0.29108  -1.58225  -1.68221
H     1.94411  -2.22290  -1.68573
H     1.38665   1.19583   0.39651
H    -2.12033   3.88410   1.78552
H    -2.10820   4.30759   0.04383
H    -3.59534   3.62211   0.78947
H    -0.62739  -1.72151   1.39056
H    -2.33163  -3.50459   1.16131
H    -4.22039  -3.23668  -0.44989
H    -4.37992  -1.16060  -1.82789
H    -2.65862   0.61283  -1.61527
