34
Generated by autodE on: 2022-07-27. E = -840.595309 Ha
C     4.17688   2.19279   0.19350
N     2.93538   2.18459  -0.55390
C     2.10144   1.12616  -0.51518
O     2.37969   0.09492   0.11633
C     0.87200   1.24994  -1.34159
C     0.84930   2.10200  -2.56920
N    -0.20526   0.53106  -1.06264
C    -0.60657  -0.19111   0.03363
C    -0.13362   0.14511   1.36191
O    -0.16016  -0.60146   2.33609
O     0.29691   1.42552   1.47317
C     0.96269   1.77709   2.68579
C    -1.57677  -1.25618  -0.20552
C    -1.71011  -1.83413  -1.49138
C    -2.67694  -2.80696  -1.75424
C    -3.52420  -3.25822  -0.73936
C    -3.39249  -2.71351   0.54504
C    -2.44380  -1.72944   0.81033
H     4.71847   3.12026  -0.02804
H     4.80988   1.33580  -0.08251
H     3.99004   2.14052   1.27914
H     2.65733   3.02284  -1.05238
H     0.00450   1.82455  -3.21820
H     1.78365   2.00491  -3.14225
H     0.72766   3.17129  -2.31567
H    -0.88053   0.50079  -1.83408
H     1.81218   1.10335   2.87077
H     0.27404   1.73518   3.54295
H     1.32376   2.80363   2.54768
H    -1.02971  -1.54372  -2.29502
H    -2.75105  -3.22912  -2.75967
H    -4.27184  -4.02860  -0.94107
H    -4.04786  -3.05353   1.35114
H    -2.37343  -1.31153   1.81362
