26
Generated by autodE on: 2022-06-27. E = -689.460797 Ha
C    -2.58966  -2.13477   0.49216
O    -1.20416  -2.11339   0.13243
C    -0.49179  -0.98768   0.08274
C    -0.84164   0.27024   0.47445
O    -2.03535   0.55561   1.07200
C    -2.96499   1.32141   0.29819
C     0.12224   1.38493   0.35054
O    -0.18757   2.50210   0.76069
C     1.46653   1.14042  -0.25500
C     2.38698   2.31124  -0.39784
C     1.83063  -0.11007  -0.63315
C     3.17611  -0.40710  -1.22001
C     0.88437  -1.24374  -0.47172
O     1.18822  -2.38483  -0.79171
H    -2.90590  -3.17742   0.36120
H    -2.73355  -1.82944   1.53637
H    -3.17692  -1.48660  -0.17434
H    -3.86571   1.43525   0.91582
H    -3.22558   0.79012  -0.63230
H    -2.56146   2.31481   0.05401
H     3.31400   2.14921   0.17730
H     1.91265   3.23524  -0.04759
H     2.69027   2.44128  -1.44974
H     3.27864  -1.47230  -1.45841
H     3.33759   0.17889  -2.13980
H     3.97899  -0.12217  -0.52026
