40
Generated by autodE on: 2022-06-08. E = -1640.231336 Ha
C     2.64811   3.30621  -0.95733
O     2.18822   2.27694  -0.07163
C     2.21108   1.02338  -0.54220
O     2.60789   0.73010  -1.65461
C     1.73032   0.06269   0.45988
C     1.74895  -1.28480   0.40132
Cl    2.27127  -2.33344  -0.83777
C     1.08551  -1.78349   1.67722
O     1.43009  -0.74787   2.59940
C     1.02097   0.36193   1.77715
C    -0.50839   0.01565   1.63842
C    -0.45031  -1.53580   1.55817
N    -1.07566  -1.84922   0.28009
C    -2.34416  -2.44863   0.29710
O    -2.66302  -3.25313   1.14892
O    -3.07568  -2.09327  -0.74971
C    -4.36184  -2.72447  -0.86522
O    -0.95449  -0.72025  -0.51184
N    -1.24182   0.38192   0.43269
C    -1.03806   1.62755  -0.18694
C    -0.96378   2.77837   0.61927
C    -0.82290   4.03179   0.02628
C    -0.75280   4.16114  -1.36527
C    -0.82566   3.01466  -2.16001
C    -0.97005   1.74970  -1.58415
H     3.72210   3.18059  -1.15986
H     2.46670   4.25412  -0.43903
H     2.08970   3.27803  -1.90224
H     1.37746  -2.77759   2.02872
H     1.24714   1.31890   2.25333
H    -1.05074   0.36874   2.52203
H    -0.97948  -2.05035   2.36431
H    -4.24541  -3.81316  -0.96288
H    -4.98131  -2.49445   0.01309
H    -4.81684  -2.30768  -1.77070
H    -1.01615   2.69078   1.70542
H    -0.76342   4.91739   0.66335
H    -0.63451   5.14516  -1.82329
H    -0.76559   3.09759  -3.24784
H    -1.02322   0.86183  -2.21169
