21
Generated by autodE on: 2022-06-08. E = -644.983389 Ha
C     4.50939   0.64216   0.74501
O     3.07681   0.61225   0.73601
C     2.50905  -0.13726  -0.22075
O     3.14234  -0.77185  -1.05263
N     1.12772  -0.17422  -0.24107
O     0.65404   0.60305   0.76609
N    -0.58874   0.76851   0.99956
C    -1.59208   0.18350   0.26496
C    -1.52694  -0.69355  -0.85633
C    -2.71038  -1.15138  -1.42554
C    -3.95553  -0.76451  -0.91548
C    -4.03219   0.09869   0.18810
C    -2.86856   0.56707   0.77222
H     4.91839  -0.36800   0.89327
H     4.79152   1.28939   1.58396
H     4.89518   1.05651  -0.19801
H    -0.56682  -0.99535  -1.25423
H    -2.66110  -1.82361  -2.28447
H    -4.87162  -1.13685  -1.37931
H    -5.00332   0.39972   0.58505
H    -2.89746   1.23870   1.63129
