21
Generated by autodE on: 2022-07-27. E = -644.979898 Ha
C    -2.02442  -4.21436   1.13199
O    -0.77268  -3.65301   0.72822
C    -0.79570  -2.35207   0.36897
O    -1.80503  -1.66551   0.40607
N     0.46024  -2.04432  -0.11591
O     0.68912  -0.74274  -0.35580
N     0.09875   0.19476   0.29781
C     0.48756   1.44207  -0.13497
C    -0.05775   2.51469   0.60837
C     0.27523   3.82272   0.27600
C     1.14220   4.06888  -0.79508
C     1.67821   3.00408  -1.54131
C     1.35732   1.69316  -1.22607
H    -2.75007  -4.18923   0.30492
H    -1.81348  -5.25344   1.41219
H    -2.43898  -3.66895   1.99308
H    -0.73056   2.28914   1.43716
H    -0.14035   4.65385   0.84854
H     1.40117   5.09653  -1.05887
H     2.34658   3.21166  -2.37927
H     1.75727   0.86281  -1.80755
