40
Generated by autodE on: 2022-06-08. E = -1640.119754 Ha. Imaginary frequency = -194.3 cm-1
C     2.44725   3.63002  -0.06981
O     1.85074   2.46423   0.51345
C     2.12767   1.28568  -0.06755
O     2.77769   1.17798  -1.09164
C     1.60927   0.16668   0.72253
C     1.70669  -1.15881   0.49474
Cl    2.30830  -2.00521  -0.85441
C     1.12993  -1.85151   1.74330
O     1.54235  -0.90114   2.74504
C     0.92499   0.24312   2.09907
C    -0.52529  -0.27720   1.97831
C    -0.39405  -1.61952   1.76585
N    -1.06580  -1.94036  -0.50546
C    -2.39987  -2.27842  -0.34597
O    -3.38229  -1.67946  -0.74927
O    -2.45364  -3.48210   0.25351
C    -3.75659  -4.05802   0.39740
O    -0.85408  -0.67666  -0.89096
N    -1.48768   0.25823  -0.21992
C    -1.14687   1.51399  -0.69746
C    -1.60952   2.60243   0.07313
C    -1.33318   3.90220  -0.33433
C    -0.62147   4.12970  -1.51918
C    -0.17451   3.04902  -2.29216
C    -0.42415   1.74240  -1.89002
H     3.53351   3.62198   0.10747
H     1.98783   4.48905   0.43165
H     2.25335   3.67246  -1.14836
H     1.48639  -2.86683   1.93998
H     1.07223   1.16765   2.66242
H    -1.40586   0.27537   2.29089
H    -1.12163  -2.41104   1.91357
H    -4.21632  -4.23029  -0.58691
H    -3.60791  -5.01316   0.91478
H    -4.40804  -3.40300   0.99445
H    -2.16790   2.40236   0.98904
H    -1.67895   4.74485   0.26761
H    -0.41354   5.15174  -1.84224
H     0.37553   3.23183  -3.21746
H    -0.08224   0.89958  -2.48905
