19
Generated by autodE on: 2022-06-10. E = -552.523340 Ha
C     2.66171  -1.31631   0.58301
C     1.84657  -0.06209   0.47744
O     2.24998   1.03108   0.85440
C     0.49372  -0.19276  -0.11016
C    -0.47775   0.74641  -0.15988
C    -0.46209   2.07786   0.30596
N    -0.51031   3.18466   0.66726
C    -1.70934   0.01734  -0.77732
C    -2.18920  -0.99693   0.28222
C    -1.22885  -1.92377   0.32896
C    -0.17592  -1.45844  -0.70038
O    -1.02086  -0.84468  -1.68954
H     3.61180  -1.11256   1.09252
H     2.85429  -1.71675  -0.42640
H     2.09403  -2.08912   1.12776
H    -2.45424   0.65271  -1.26544
H    -3.09699  -0.89465   0.87490
H    -1.12772  -2.79730   0.97136
H     0.48964  -2.21297  -1.12949
