37
Generated by autodE on: 2022-06-20. E = -1178.555193 Ha
C    -4.71239   0.95077   1.96843
N    -3.35423   0.79306   1.49045
C    -2.89417  -0.36495   0.99932
O    -3.56786  -1.39030   0.86047
C    -1.44151  -0.36159   0.60494
N    -0.60587   0.49703   1.04711
C     0.71951   0.22551   0.47144
C     1.79186   0.28451   1.56126
O     1.57818   0.08798   2.73415
O     2.98589   0.51851   1.03080
C     4.11507   0.51196   1.92133
C     0.98873   1.31175  -0.58207
O     1.11606   1.09791  -1.76643
O     1.03092   2.51041  -0.02010
C     1.26521   3.63215  -0.89176
C     0.62962  -1.22471  -0.11887
C     1.51984  -1.53256  -1.30839
O     2.73346  -1.58601  -1.18406
C     0.87568  -1.82517  -2.60784
C    -0.44939  -1.71044  -2.81210
C    -1.37977  -1.27943  -1.74833
O    -2.49728  -0.86691  -2.01170
C    -0.88471  -1.41629  -0.31482
H    -5.40515   0.41358   1.30610
H    -4.83542   0.55148   2.98933
H    -4.97314   2.01645   1.97400
H    -2.68680   1.54890   1.61382
H     3.99761   1.29055   2.68787
H     4.20974  -0.47205   2.40168
H     4.99051   0.71858   1.29614
H     1.26615   4.51707  -0.24615
H     0.46363   3.70237  -1.64029
H     2.23585   3.52134  -1.39500
H     0.96096  -1.90597   0.67752
H     1.55597  -2.09904  -3.41834
H    -0.89173  -1.86210  -3.80026
H    -1.21048  -2.41999   0.00524
