37
Generated by autodE on: 2022-06-20. E = -1178.476980 Ha. Imaginary frequency = -308.6 cm-1
C    -5.12446  -0.75018   1.40651
N    -3.77646  -0.63360   0.88196
C    -2.79877  -0.11196   1.62018
O    -2.88884   0.28823   2.77696
C    -1.45714  -0.05236   0.93406
N    -0.46813   0.62147   1.04154
C     0.80263   0.75667   0.67515
C     1.78771   0.13213   1.59224
O     1.45554  -0.43295   2.61878
O     3.03880   0.21036   1.15179
C     4.03420  -0.48117   1.92068
C     1.01427   1.73300  -0.42326
O     0.08641   2.33353  -0.93583
O     2.27773   1.83387  -0.81766
C     2.52946   2.66371  -1.96233
C     0.55277  -1.55517  -0.45795
C     1.31755  -1.04785  -1.59797
O     2.54569  -1.12731  -1.66019
C     0.54329  -0.45493  -2.71981
C    -0.80022  -0.49741  -2.74900
C    -1.57786  -1.12272  -1.65815
O    -2.80281  -1.22469  -1.74688
C    -0.83583  -1.60525  -0.46078
H    -5.50790   0.23245   1.72137
H    -5.77304  -1.15489   0.62122
H    -5.15003  -1.42256   2.27836
H    -3.56443  -0.96183  -0.06875
H     4.07497  -0.08491   2.94510
H     3.81134  -1.55752   1.95024
H     4.98441  -0.30384   1.40453
H     2.26364   3.70781  -1.74428
H     1.94958   2.30843  -2.82564
H     3.60328   2.57620  -2.16154
H     1.12036  -2.08827   0.30641
H     1.12772  -0.00479  -3.52553
H    -1.38099  -0.08580  -3.57743
H    -1.35703  -2.32949   0.16984
