67
Generated by autodE on: 2022-10-23. E = -1721.803690 Ha
C    12.06725  -0.58109   2.63087
O    10.80149  -1.20947   2.88119
C    10.10344  -1.62553   1.82899
O    10.43487  -1.44955   0.67803
C     8.77378  -2.28459   2.26676
O     8.38708  -3.27983   1.31682
C     7.83213  -2.93255   0.05579
C     7.74086  -1.14054   2.37010
C     6.53114  -1.41457   3.26967
C     6.62929  -0.65340   4.59793
C     7.98265  -0.73608   5.30590
C     8.40489  -2.11285   5.88116
C     9.73239  -1.97627   6.67616
C    10.70343  -1.03302   6.30449
C    11.94042  -0.97830   6.95313
C    12.23391  -1.86709   7.99010
C    11.27555  -2.81055   8.37114
C    10.04262  -2.86650   7.71755
C     7.24951  -2.59315   6.77095
C     7.08130  -2.03448   8.04841
C     5.97598  -2.36076   8.83601
C     5.00886  -3.25198   8.35860
C     5.15617  -3.79951   7.08269
C     6.26323  -3.46641   6.29497
C     8.76960  -3.12734   4.81183
C     9.01063  -3.14884   3.49024
C     9.55342  -4.59124   3.23424
C    10.38831  -4.79647   1.99029
O    11.34781  -4.09327   1.74753
O    10.00164  -5.82053   1.25082
C    10.71483  -6.02847   0.01904
C     8.30576  -5.45917   3.47068
O     7.59028  -6.07886   2.73511
O     8.09188  -5.38534   4.81691
N     9.15211  -4.48446   5.34840
N    10.22980  -4.92440   4.50446
C    11.49400  -4.26321   4.80594
H    12.48212  -0.34014   3.61613
H    11.93127   0.33369   2.03685
H    12.72994  -1.27660   2.09686
H     8.40181  -2.14113  -0.44913
H     6.77502  -2.63287   0.14596
H     7.88497  -3.84967  -0.54816
H     7.43016  -0.92272   1.34080
H     8.25902  -0.22995   2.70057
H     6.42292  -2.49657   3.43946
H     5.61241  -1.09831   2.75247
H     5.81978  -0.96925   5.27300
H     6.45411   0.41549   4.38800
H     7.97438  -0.03918   6.15702
H     8.76638  -0.37647   4.62866
H    10.51520  -0.33726   5.48906
H    12.67735  -0.23474   6.64007
H    13.20060  -1.82521   8.49742
H    11.48847  -3.51441   9.17929
H     9.31569  -3.61854   8.02022
H     7.82278  -1.33268   8.43388
H     5.86953  -1.91512   9.82806
H     4.14513  -3.51157   8.97528
H     4.40386  -4.48739   6.68920
H     6.34576  -3.88697   5.29432
H    10.63172  -5.13320  -0.61347
H    10.23385  -6.88622  -0.46345
H    11.77327  -6.24350   0.22156
H    12.27651  -4.73608   4.20051
H    11.72036  -4.43268   5.86576
H    11.48726  -3.18107   4.60344
