50
Generated by autodE on: 2022-10-23. E = -1117.019059 Ha
C     3.89988   2.89545  -3.39923
O     2.52676   2.82603  -2.97782
C     2.20719   1.85080  -2.13646
O     2.99216   1.02672  -1.71441
C     0.69922   1.83231  -1.82022
O     0.12314   3.12093  -1.88535
C     0.52890   4.01613  -0.86137
C     0.44138   1.15549  -0.54083
C    -0.08873   0.36011   0.20260
C    -0.95608  -0.71334   0.69134
C    -1.46942  -0.39835   2.10532
C    -2.80889  -0.56649   2.47774
C    -3.21958  -0.30526   3.79065
C    -2.29904   0.12903   4.74638
C    -0.95852   0.30024   4.38176
C    -0.55092   0.03768   3.07348
C    -0.20577  -2.06200   0.71401
C     1.07947  -2.21453   0.17810
C     1.71212  -3.46340   0.18751
C     1.06804  -4.57676   0.73034
C    -0.21691  -4.43279   1.26642
C    -0.84534  -3.18674   1.25932
C    -2.10292  -0.76887  -0.37646
C    -1.65294  -0.81308  -1.85113
C    -1.43569   0.53276  -2.60021
C     0.00912   0.96639  -2.91375
H     4.18515   1.96999  -3.91929
H     4.55642   3.04798  -2.53101
H     3.96270   3.75161  -4.08013
H     1.61814   4.19655  -0.88073
H     0.24950   3.63808   0.13764
H     0.00901   4.96659  -1.04292
H    -3.54629  -0.90807   1.75166
H    -4.26891  -0.44261   4.06289
H    -2.62210   0.33436   5.76969
H    -0.22809   0.64117   5.11950
H     0.49758   0.16977   2.79483
H     1.59452  -1.35425  -0.25168
H     2.71576  -3.56091  -0.23360
H     1.56250  -5.55098   0.73854
H    -0.73173  -5.29535   1.69656
H    -1.84433  -3.08669   1.68841
H    -2.70851  -1.66103  -0.16052
H    -2.75489   0.10487  -0.22150
H    -2.44549  -1.35445  -2.39017
H    -0.75353  -1.44412  -1.94798
H    -1.95527   1.35157  -2.07624
H    -1.93759   0.44545  -3.57615
H     0.63647   0.07969  -3.09253
H     0.03462   1.57664  -3.82984
