17
Generated by autodE on: 2022-10-23. E = -604.763157 Ha
C     2.74482  -2.04209   0.05333
O     1.39863  -1.54339   0.08481
C     1.24507  -0.22348  -0.05020
O     2.16731   0.55932  -0.19264
C    -0.14664   0.20916  -0.01247
C    -0.59611   1.55774  -0.13368
O    -0.08490   2.64342  -0.28279
O    -2.00568   1.42500  -0.03576
N    -2.36588   0.13803   0.12677
N    -1.27362  -0.54636   0.13691
C    -1.38571  -1.99711   0.30488
H     3.21769  -1.80737  -0.91098
H     2.66417  -3.12706   0.18376
H     3.33591  -1.60195   0.86893
H    -2.45189  -2.22870   0.39648
H    -0.95002  -2.48920  -0.57135
H    -0.84001  -2.29060   1.20828
