67
Generated by autodE on: 2022-10-23. E = -1721.761301 Ha. Imaginary frequency = -435.2 cm-1
C    11.92998  -1.38473   1.60926
O    10.65393  -1.70284   2.19098
C     9.81126  -2.41984   1.45179
O    10.03534  -2.76923   0.31385
C     8.51683  -2.75304   2.22841
O     7.82001  -3.79867   1.57350
C     7.05203  -3.49045   0.41834
C     7.68163  -1.45559   2.38045
C     6.50542  -1.59869   3.36172
C     6.66726  -0.79767   4.66502
C     8.01489  -0.87503   5.38932
C     8.45793  -2.26295   5.96045
C     9.77040  -2.10713   6.76535
C    10.78825  -1.26122   6.29797
C    12.01388  -1.17211   6.96268
C    12.25058  -1.93565   8.10876
C    11.24948  -2.79117   8.57723
C    10.02468  -2.87687   7.90981
C     7.29956  -2.79664   6.80861
C     6.98803  -2.15862   8.02093
C     5.88095  -2.55116   8.77392
C     5.05642  -3.58958   8.32525
C     5.35012  -4.22153   7.11574
C     6.46092  -3.82444   6.36229
C     8.79068  -3.16433   4.81458
C     8.87986  -3.29420   3.56439
C     9.99541  -5.19881   3.40218
C    10.78321  -5.31466   2.15260
O    11.93833  -4.95124   2.04373
O    10.06305  -5.83669   1.16908
C    10.69509  -5.93372  -0.11843
C     8.75348  -5.92103   3.70366
O     7.96882  -6.56590   3.05642
O     8.59819  -5.73456   5.06659
N     9.59614  -4.86260   5.53113
N    10.58134  -4.99817   4.62614
C    11.78049  -4.21071   4.86875
H    11.79586  -0.79876   0.68933
H    12.47810  -2.31056   1.38624
H    12.46419  -0.79673   2.36364
H     7.61036  -2.87979  -0.30639
H     6.10902  -2.98015   0.67701
H     6.81052  -4.45580  -0.04852
H     7.33852  -1.16448   1.37804
H     8.36608  -0.65943   2.70162
H     6.34243  -2.66292   3.58765
H     5.58107  -1.25689   2.87067
H     5.85444  -1.07525   5.35470
H     6.51350   0.26969   4.43052
H     7.98639  -0.17998   6.24248
H     8.80256  -0.50580   4.72023
H    10.64563  -0.68348   5.38478
H    12.78940  -0.50719   6.57495
H    13.20869  -1.86895   8.62958
H    11.42202  -3.40279   9.46617
H     9.26461  -3.56314   8.28159
H     7.62010  -1.34451   8.38084
H     5.65967  -2.04268   9.71552
H     4.18985  -3.89905   8.91433
H     4.71190  -5.02889   6.74846
H     6.66748  -4.32118   5.41544
H    11.01270  -4.93868  -0.45606
H     9.93350  -6.34227  -0.79160
H    11.56194  -6.60725  -0.06534
H    12.64369  -4.73235   4.44407
H    11.89555  -4.10857   5.95307
H    11.67921  -3.22106   4.40079
