48
Generated by autodE on: 2022-10-22. E = -1897.557234 Ha
C     0.25773   0.35635   5.09657
O     0.27959  -0.19651   3.76759
C    -0.51177   0.37485   2.88214
O    -1.32062   1.24710   3.09558
C    -0.37295  -0.24040   1.49553
O     0.14989  -1.60746   1.55182
C    -0.33770  -2.20533   0.42813
O    -0.12664  -3.33935   0.11636
C    -1.15940  -1.07950  -0.25931
C    -2.27972  -1.48649  -1.19772
O    -2.27000  -2.50266  -1.84968
O    -3.23848  -0.57550  -1.19579
C    -4.33913  -0.79963  -2.09656
O    -1.63714  -0.41993   0.91655
C    -0.07395  -0.07838  -0.75733
C     0.41000   0.47833   0.36535
C     1.48193   1.52676   0.62690
O     1.37276   1.77511   2.01470
C     2.25616   2.73030   2.58480
O     1.23004   2.71190  -0.09422
C    -0.08085   3.26042   0.03168
C     2.90001   1.05141   0.26718
C     3.08336   0.16414  -0.96198
C     2.74521   0.75804  -2.33231
C     1.27739   1.08499  -2.63671
C     0.24596   0.06180  -2.21492
F    -0.94830   0.36310  -2.84780
Cl    0.72288  -1.60133  -2.84286
H    -0.74883   0.26841   5.52810
H     0.55937   1.41282   5.06588
H     0.97707  -0.23156   5.67671
H    -3.97246  -0.81981  -3.13256
H    -5.02370   0.04218  -1.94718
H    -4.83786  -1.74944  -1.85909
H     1.85660   2.96588   3.58044
H     3.27627   2.32846   2.69526
H     2.28962   3.65261   1.98483
H    -0.79749   2.73344  -0.61992
H    -0.01528   4.31108  -0.28096
H    -0.43786   3.21058   1.07160
H     3.51886   1.95763   0.17655
H     3.25982   0.49066   1.14234
H     2.54329  -0.78465  -0.81678
H     4.14880  -0.11473  -0.98604
H     3.09982   0.04691  -3.09388
H     3.32206   1.68526  -2.48117
H     0.97861   2.03015  -2.16877
H     1.15101   1.20171  -3.72298
