20
Generated by autodE on: 2022-10-22. E = -797.258632 Ha
C     4.66627   0.61476   0.36495
O     3.37532  -0.02761   0.30406
C     2.33472   0.75799   0.12245
O     2.32474   1.95850  -0.00452
C     1.07111  -0.04519   0.08973
O     0.98408  -1.31562   0.21138
C    -0.50919  -1.67794   0.12405
O    -0.83218  -2.82619   0.21461
C    -1.06501  -0.40518  -0.05277
C    -2.45281  -0.03286  -0.20921
O    -3.36275  -0.84630  -0.20284
O    -2.61729   1.28758  -0.35996
C    -3.96732   1.74645  -0.52218
O    -0.05935   0.55278  -0.06599
H     4.86281   1.14567  -0.57673
H     5.39125  -0.19180   0.51454
H     4.69013   1.32130   1.20618
H    -4.42177   1.30048  -1.41870
H    -3.90275   2.83500  -0.63229
H    -4.57111   1.48909   0.36010
