48
Generated by autodE on: 2022-10-22. E = -1897.476229 Ha. Imaginary frequency = -282.5 cm-1
C    -1.35723   2.01742   4.20769
O    -1.32004   1.23982   2.99655
C    -0.58072   0.14845   3.01640
O     0.02222  -0.30891   3.95757
C    -0.62406  -0.54244   1.68774
O    -0.08577  -1.74369   1.56100
C    -0.62387  -2.34698   0.37268
O    -0.27894  -3.43977   0.01875
C    -1.52575  -1.33000  -0.09725
C    -2.48934  -1.40954  -1.19260
O    -2.54014  -2.35650  -1.95297
O    -3.26550  -0.32835  -1.25579
C    -4.18758  -0.27009  -2.35535
O    -1.64530  -0.38468   0.87443
C     0.38405  -0.00754  -0.92518
C     0.77949   0.53091   0.11385
C     1.72944   1.48916   0.76085
O     1.69796   1.20706   2.14124
C     2.50644   1.99576   3.00382
O     1.36061   2.81649   0.48547
C     0.07700   3.23403   0.93604
C     3.12868   1.28298   0.15418
C     3.31984   1.64423  -1.32703
C     2.92237   0.63521  -2.42485
C     1.49674   0.70725  -2.99792
C     0.46922  -0.22671  -2.36697
F    -0.75174  -0.01296  -2.96852
Cl    0.90623  -1.96681  -2.70583
H    -1.75749   1.41212   5.03262
H    -2.01657   2.86545   3.99569
H    -0.34616   2.36823   4.45665
H    -4.72908   0.67572  -2.24246
H    -3.63901  -0.28533  -3.30817
H    -4.88670  -1.11755  -2.31866
H     2.14704   1.79765   4.02297
H     3.56960   1.71186   2.94429
H     2.40524   3.07020   2.78625
H    -0.71183   2.54084   0.60168
H    -0.10247   4.22221   0.49161
H     0.04055   3.31906   2.03209
H     3.80513   1.92303   0.74002
H     3.42129   0.23945   0.34717
H     2.84250   2.61660  -1.52653
H     4.40090   1.81659  -1.44555
H     3.13964  -0.39379  -2.09433
H     3.59663   0.81737  -3.27469
H     1.08567   1.72407  -2.88972
H     1.49907   0.46749  -4.07185
