36
Generated by autodE on: 2022-05-29. E = -936.948819 Ha
C     4.16630  -1.31603  -0.23399
N     2.84386  -0.74685  -0.39368
C     2.34439   0.20033   0.40457
O     2.93438   0.72563   1.35117
C     0.88455   0.61202   0.05991
C     0.84556   2.12296  -0.32787
C     1.06869   3.12227   0.76270
O     0.60764   2.42861  -1.47747
C    -0.01960   0.30139   1.21991
C    -1.00419  -0.51844   0.82570
C    -2.05994  -1.08861   1.69783
C    -2.18283  -0.53633   3.09319
O    -2.79336  -1.98396   1.29673
C    -0.85284  -0.82189  -0.65513
C    -0.73089  -2.30527  -0.99775
C    -1.99238  -0.17994  -1.48268
C    -1.67005   0.19887  -2.89765
O    -3.08832  -0.00167  -0.98391
O     0.38777  -0.16901  -1.00956
H     4.69413  -1.33006  -1.19870
H     4.73593  -0.70528   0.47669
H     4.11286  -2.34757   0.14936
H     2.21457  -1.11207  -1.10410
H     1.91759   2.82441   1.39259
H     0.17438   3.13172   1.40934
H     1.21486   4.12160   0.33298
H     0.15944   0.69310   2.21942
H    -2.37282   0.54780   3.05904
H    -3.00398  -1.04314   3.61580
H    -1.24408  -0.68594   3.64944
H     0.05105  -2.75917  -0.37180
H    -0.45302  -2.42114  -2.05515
H    -1.68139  -2.82176  -0.81557
H    -1.15850  -0.62375  -3.41993
H    -2.58912   0.48045  -3.42756
H    -0.97023   1.04868  -2.87827
