27
Generated by autodE on: 2022-05-29. E = -706.735697 Ha
C    -3.03073  -1.00722  -2.52900
N    -2.38172  -0.93673  -1.23598
C    -1.16499  -0.36268  -1.10293
O    -0.46983  -0.01919  -2.07651
C    -0.72951  -0.08919   0.27635
O     0.54462   0.29953   0.50180
C     1.64790  -0.09603  -0.04048
C     1.76322  -1.26732  -0.91679
C     2.83778   0.66511   0.43240
C     2.61431   1.79590   1.39455
O     3.94288   0.34949   0.00944
C    -1.60131   0.13231   1.40728
C    -1.00541   0.74965   2.65043
O    -2.79729  -0.20960   1.38125
H    -3.95063  -1.59793  -2.43416
H    -2.37463  -1.49474  -3.26456
H    -3.29271  -0.00894  -2.92177
H    -2.93912  -0.97813  -0.38051
H     1.48223  -1.02886  -1.95610
H     2.79633  -1.63426  -0.88781
H     1.05253  -2.04239  -0.57744
H     2.07350   1.44172   2.28596
H     3.58401   2.21936   1.68385
H     1.99008   2.57476   0.92836
H    -0.47354   1.68441   2.41717
H    -1.81223   0.94527   3.36820
H    -0.27336   0.06342   3.10555
