27
Generated by autodE on: 2022-07-26. E = -706.729692 Ha
C     3.89881  -1.33317   0.52425
N     2.48431  -1.08766   0.33842
C     1.95643   0.14749   0.51976
O     2.67413   1.11862   0.82288
C     0.51389   0.28795   0.30642
O    -0.11648  -0.92214   0.06100
C    -1.29395  -1.14382  -0.38884
C    -1.82266  -2.50979  -0.20485
C    -2.10620  -0.16196  -1.19875
C    -1.39006   0.70998  -2.19312
O    -3.32045  -0.29173  -1.19242
C    -0.32459   1.36213   0.69944
C     0.25518   2.59289   1.35087
O    -1.57027   1.28124   0.54938
H     4.50634  -0.68337  -0.12555
H     4.11212  -2.37911   0.27115
H     4.21433  -1.15281   1.56547
H     1.87392  -1.86465   0.11536
H    -1.11138  -3.13887   0.34339
H    -2.06761  -2.95775  -1.18269
H    -2.77452  -2.44065   0.34945
H    -0.31217   0.80035  -2.00941
H    -1.85173   1.70725  -2.19502
H    -1.54642   0.25523  -3.18526
H     0.83435   3.16459   0.60940
H     0.94111   2.34323   2.17076
H    -0.57579   3.21110   1.71583
