36
Generated by autodE on: 2022-05-29. E = -936.813625 Ha. Imaginary frequency = -293.0 cm-1
C     4.51499  -1.04525  -0.41528
N     3.11830  -0.71781  -0.61331
C     2.59842   0.43447  -0.13943
O     3.29605   1.27561   0.44933
C     1.14401   0.62952  -0.33140
C     0.39747   1.84508  -0.10283
C     1.03882   3.01368   0.59417
O    -0.80008   1.90606  -0.42971
C     0.33370  -0.10315   1.84183
C    -0.75012  -0.62953   1.57436
C    -2.08833  -1.15810   1.79582
C    -3.08928  -0.14712   2.28788
O    -2.35279  -2.34509   1.65012
C    -0.68596  -0.84601  -0.92648
C    -0.86616  -2.30142  -1.16607
C    -1.85542   0.02787  -1.34225
C    -1.69449   0.68192  -2.69150
O    -2.93273  -0.07533  -0.78144
O     0.54806  -0.44522  -0.89542
H     4.73047  -1.99425  -0.92119
H     5.17005  -0.26542  -0.83414
H     4.76109  -1.15133   0.65429
H     2.50535  -1.39309  -1.05476
H     1.90968   3.37299   0.02793
H     1.40424   2.72611   1.59067
H     0.28840   3.80998   0.68510
H     1.21998   0.28549   2.31884
H    -2.96873   0.81484   1.77179
H    -4.10756  -0.53713   2.15589
H    -2.90234   0.02145   3.36264
H     0.05661  -2.84735  -0.93080
H    -1.15112  -2.48308  -2.21790
H    -1.69166  -2.67110  -0.53889
H    -2.05596  -0.03557  -3.44829
H    -2.32575   1.58041  -2.73156
H    -0.65156   0.93552  -2.91753
