27
Generated by autodE on: 2022-05-25. E = -835.916492 Ha
C    -3.35752   1.75250  -0.39742
C    -2.68225   0.46484  -0.02534
O    -3.29480  -0.56433   0.22362
C    -1.20472   0.46504   0.02673
C    -0.31883   1.38911  -0.37926
C     1.04570   0.72510  -0.24467
C     2.30631   1.58569  -0.33721
C     2.45322   2.63166   0.72048
O     3.09965   1.39153  -1.23159
O     1.07186  -0.30144  -1.34597
C     0.20045  -1.24832  -0.95983
O    -0.07439  -2.24051  -1.57393
C    -0.34949  -0.74879   0.42724
C    -0.91559  -1.78786   1.26717
N    -1.29089  -2.64923   1.94500
N     0.86250  -0.06625   0.95450
C     1.98191  -0.93578   1.32906
H    -4.44644   1.62320  -0.36109
H    -3.05133   2.05523  -1.41170
H    -3.04792   2.55604   0.28913
H    -0.49664   2.37356  -0.80914
H     2.62387   2.13817   1.69205
H     1.52847   3.22138   0.81812
H     3.30405   3.28273   0.48381
H     2.81778  -0.30436   1.65833
H     2.33128  -1.59168   0.51357
H     1.67370  -1.55799   2.17932
