18
Generated by autodE on: 2022-05-25. E = -605.787470 Ha
C     3.20503   0.83971   0.72098
C     2.33768  -0.08902  -0.07103
O     2.75975  -0.96086  -0.81669
C     0.88045   0.09487   0.08686
O     0.37895   1.03969   0.88644
C    -1.04455   0.99553   0.84126
O    -1.71590   1.76437   1.49160
C    -1.31044  -0.07233  -0.06538
C    -2.56581  -0.54710  -0.46657
N    -3.62320  -0.92533  -0.78500
N    -0.09488  -0.58507  -0.49534
C     0.05678  -1.69264  -1.44364
H     2.98408   1.88494   0.45031
H     4.25899   0.61106   0.52156
H     2.98843   0.73200   1.79626
H     0.60256  -1.34255  -2.32726
H    -0.94349  -2.03501  -1.72870
H     0.61379  -2.50705  -0.96702
