19
Generated by autodE on: 2022-05-28. E = -613.905874 Ha
C     3.51910   0.57522  -0.51493
N     2.19524  -0.00485  -0.40559
C     1.16474   0.69428   0.11580
O     1.29991   1.85932   0.52395
C    -0.14632   0.03305   0.19467
C    -0.56426  -1.15775  -0.25125
F     0.06615  -2.09759  -0.90750
O    -1.85846  -1.46806  -0.01670
O    -2.31418  -0.41933   0.88662
C    -1.37608   0.70455   0.75799
C    -1.95390   1.79884  -0.11942
H     3.50568   1.48853  -1.13062
H     4.18686  -0.15682  -0.98492
H     3.92682   0.84173   0.47366
H     2.05844  -0.96396  -0.70401
H    -1.22566   1.05788   1.79023
H    -2.89344   2.18021   0.30830
H    -2.14303   1.41814  -1.13465
H    -1.23383   2.62802  -0.18097
