8
Generated by autodE on: 2022-05-28. E = -229.037717 Ha
C    -1.86417   0.19183   0.12224
C    -0.51805  -0.38469   0.02146
O     0.48566   0.37136  -0.02004
O     1.74281  -0.19276  -0.11443
H    -2.35641  -0.20364   1.02806
H    -2.46707  -0.15510  -0.73538
H    -1.83408   1.28867   0.15060
H    -0.32904  -1.46678  -0.02111
