19
Generated by autodE on: 2022-05-28. E = -613.778902 Ha. Imaginary frequency = -219.5 cm-1
C     3.58037   0.96104   0.26379
N     2.44585   0.07565   0.09972
C     1.34192   0.45837  -0.58239
O     1.25625   1.58547  -1.10782
C     0.28152  -0.50959  -0.66692
C    -0.70012  -1.25327  -0.69407
F    -1.39304  -2.20322  -1.24543
O    -2.05474  -1.06651   0.73604
O    -1.38573  -0.28287   1.64757
C    -1.14883   0.92294   1.32042
C    -1.76043   1.67677   0.22675
H     3.30238   1.87796   0.80875
H     3.99983   1.26332  -0.70923
H     4.35780   0.43701   0.83313
H     2.46878  -0.85121   0.51045
H    -0.50760   1.41431   2.06344
H    -2.26482   2.54910   0.68124
H    -2.45873   1.07124  -0.35841
H    -0.95755   2.08149  -0.41376
