70
Generated by autodE on: 2022-06-13. E = -1517.562200 Ha
C   -16.98269  -2.57357  13.42610
N   -17.89172  -2.82700  12.32370
C   -17.75445  -3.91093  11.55256
O   -16.78911  -4.66948  11.59691
C   -18.84860  -4.13787  10.45833
C   -20.05903  -3.33221  10.65590
N   -20.96731  -2.61438  10.73415
N   -18.22820  -3.59878   9.24802
C   -18.09220  -4.58771   8.43029
C   -17.46118  -4.30778   7.10179
C   -18.63289  -5.88807   8.95557
C   -19.13899  -5.62622  10.20436
C   -19.82640  -6.48395  11.30617
C   -20.46106  -5.55762  12.40160
C   -21.82284  -5.21048  12.37261
C   -22.38541  -4.37754  13.34088
C   -21.60123  -3.86673  14.37779
C   -20.25215  -4.21829  14.43905
C   -19.69674  -5.06064  13.47240
C   -20.98537  -7.31986  10.74656
C   -21.71582  -6.88402   9.63406
C   -22.79876  -7.61779   9.14405
C   -23.19008  -8.79800   9.78039
C   -22.50324  -9.21626  10.92519
C   -21.41852  -8.47994  11.40739
C   -18.75071  -7.35281  12.06279
C   -18.17152  -8.63505  11.46630
C   -17.55760  -8.49792  10.07954
C   -18.63842  -8.44019   8.98573
C   -18.60239  -7.17167   8.10666
C   -17.28605  -7.28713   7.28265
C   -19.77917  -7.17907   7.10577
C   -20.14661  -8.37316   6.46187
C   -21.20288  -8.41243   5.54780
C   -21.91924  -7.25179   5.24401
C   -21.55724  -6.05269   5.86216
C   -20.50131  -6.01983   6.77708
H   -15.94164  -2.57567  13.07423
H   -17.08464  -3.34217  14.21060
H   -17.21340  -1.59198  13.85692
H   -18.77549  -2.32726  12.31558
H   -17.38995  -3.21990   6.97462
H   -18.04225  -4.72901   6.27123
H   -16.44671  -4.72790   7.05148
H   -22.46223  -5.57479  11.57142
H   -23.44607  -4.12315  13.27692
H   -22.03866  -3.21031  15.13370
H   -19.61833  -3.84052  15.24492
H   -18.64567  -5.32123  13.57199
H   -21.43809  -5.95443   9.14294
H   -23.33212  -7.26256   8.25910
H   -24.03062  -9.38125   9.39702
H   -22.81242 -10.12436  11.44852
H   -20.90998  -8.81923  12.30963
H   -19.18621  -7.61151  13.03820
H   -17.90677  -6.68571  12.27384
H   -17.39994  -8.97019  12.18008
H   -18.92734  -9.43628  11.44428
H   -16.91591  -7.60215  10.05443
H   -16.88967  -9.35317   9.89379
H   -19.63128  -8.55539   9.42779
H   -18.51478  -9.30381   8.32138
H   -17.18964  -8.32367   6.93000
H   -17.27446  -6.64637   6.39769
H   -16.40394  -7.05607   7.89771
H   -19.60934  -9.29750   6.67402
H   -21.46704  -9.36060   5.07288
H   -22.74922  -7.28166   4.53420
H   -22.10408  -5.13277   5.64139
H   -20.27042  -5.07036   7.25894
