17
Generated by autodE on: 2022-06-13. E = -472.501828 Ha
C    -3.74578   0.15839   1.17310
C    -2.43748   0.23905   0.57331
N    -1.38902   0.30510   0.08087
C    -0.12534   0.30785  -0.40113
C     0.15562   1.03949  -1.56526
N     0.42964   1.63819  -2.53483
C     0.85578  -0.47799   0.35551
O     0.52856  -1.10953   1.37540
N     2.12633  -0.48347  -0.11693
C     3.18507  -1.18447   0.57939
H    -3.67808  -0.52649   2.03422
H    -4.47354  -0.24729   0.45300
H    -4.07240   1.14828   1.52803
H     2.36563   0.09040  -0.91812
H     3.39678  -0.74091   1.56737
H     2.92466  -2.24269   0.73614
H     4.09892  -1.13663  -0.02590
