53
Generated by autodE on: 2022-06-13. E = -1044.958694 Ha
C    -3.70335  -4.00571  -6.11827
C    -3.46468  -5.28951  -6.94329
C    -4.23389  -6.46236  -6.32873
C    -5.63373  -6.40390  -6.22243
C    -6.35645  -7.46960  -5.68158
C    -5.69289  -8.61698  -5.23279
C    -4.30134  -8.68535  -5.33169
C    -3.58041  -7.61684  -5.87611
C    -2.02391  -5.54558  -7.04866
C    -0.90706  -5.58421  -7.51787
C     0.16958  -5.47563  -8.50848
C     1.46331  -4.95629  -7.86072
C     1.88903  -5.52993  -6.65191
C     3.07624  -5.12275  -6.04242
C     3.86392  -4.12872  -6.63488
C     3.44986  -3.55251  -7.83736
C     2.25762  -3.96256  -8.44678
C     0.46224  -6.83771  -9.17374
C     1.51366  -6.93332 -10.10004
C     1.79086  -8.13886 -10.74612
C     1.02307  -9.27733 -10.47369
C    -0.02263  -9.19276  -9.55271
C    -0.30137  -7.98116  -8.90868
C    -0.41463  -4.48917  -9.57672
C    -1.84071  -4.80448 -10.07467
C    -3.04459  -4.17336  -9.31675
C    -3.92019  -5.08586  -8.43257
H    -3.34406  -4.13763  -5.08681
H    -4.77543  -3.76332  -6.08584
H    -3.16906  -3.15347  -6.56305
H    -6.16897  -5.51670  -6.56695
H    -7.44493  -7.40312  -5.60979
H    -6.25807  -9.45041  -4.80880
H    -3.76917  -9.57445  -4.98427
H    -2.49268  -7.67980  -5.94919
H     1.27825  -6.30705  -6.18559
H     3.38779  -5.58134  -5.10070
H     4.79339  -3.80600  -6.15982
H     4.05548  -2.77522  -8.30985
H     1.95893  -3.49980  -9.38724
H     2.12662  -6.05595 -10.31593
H     2.61359  -8.19098 -11.46349
H     1.24136 -10.22250 -10.97647
H    -0.63039 -10.07314  -9.32946
H    -1.12413  -7.92653  -8.19474
H     0.27268  -4.48398 -10.43541
H    -0.39569  -3.47458  -9.14888
H    -1.88641  -4.43548 -11.11111
H    -1.97617  -5.89659 -10.14992
H    -2.70172  -3.30161  -8.73487
H    -3.72167  -3.75936 -10.08070
H    -3.99001  -6.07974  -8.90353
H    -4.94413  -4.68060  -8.40172
