70
Generated by autodE on: 2022-06-13. E = -1517.451895 Ha. Imaginary frequency = -335.0 cm-1
C   -16.26699  -4.49063  13.22990
N   -17.29264  -3.79685  12.47740
C   -17.38286  -3.91873  11.13149
O   -16.51952  -4.49415  10.45418
C   -18.58235  -3.30892  10.50533
C   -19.39635  -2.38106  11.19929
N   -20.03357  -1.58110  11.76218
N   -18.63990  -3.29628   9.16877
C   -18.76141  -3.98502   8.18693
C   -18.59146  -3.80597   6.73577
C   -19.15361  -5.97025   8.99475
C   -19.62722  -5.89721  10.14169
C   -20.12334  -6.40998  11.44049
C   -20.66482  -5.28376  12.34782
C   -21.79628  -4.57149  11.91803
C   -22.39254  -3.61055  12.73153
C   -21.86023  -3.33160  13.99586
C   -20.72399  -4.01729  14.42435
C   -20.13157  -4.99083  13.60816
C   -21.30447  -7.39532  11.24755
C   -21.89294  -7.66162  10.00783
C   -22.96382  -8.55714   9.89691
C   -23.46334  -9.20307  11.02840
C   -22.88662  -8.93742  12.27631
C   -21.82381  -8.03986  12.38341
C   -18.93329  -7.17313  12.09713
C   -18.45286  -8.45958  11.41647
C   -17.69134  -8.35279  10.08362
C   -18.53844  -8.33070   8.79220
C   -18.57942  -6.97180   8.02235
C   -17.13496  -6.59959   7.60759
C   -19.47145  -7.15202   6.78827
C   -19.04603  -7.98112   5.73604
C   -19.85213  -8.19218   4.61502
C   -21.10397  -7.57524   4.51858
C   -21.53573  -6.74282   5.55365
C   -20.72569  -6.53463   6.67484
H   -15.27371  -4.27918  12.80922
H   -16.41285  -5.58450  13.22509
H   -16.29144  -4.13921  14.26907
H   -18.11123  -3.47963  12.98797
H   -19.18307  -2.91918   6.45484
H   -18.94432  -4.66538   6.15935
H   -17.53461  -3.60384   6.50301
H   -22.22061  -4.78740  10.93467
H   -23.27466  -3.07188  12.37705
H   -22.32513  -2.57849  14.63639
H   -20.29120  -3.80507  15.40513
H   -19.25545  -5.52086  13.97863
H   -21.51763  -7.16994   9.11424
H   -23.40429  -8.74579   8.91470
H   -24.29699  -9.90417  10.94356
H   -23.27053  -9.42880  13.17375
H   -21.39995  -7.83145  13.36758
H   -19.23585  -7.44022  13.11923
H   -18.09105  -6.47439  12.19501
H   -17.77264  -8.93411  12.14292
H   -19.29746  -9.15987  11.30331
H   -17.02111  -7.48018  10.12568
H   -17.02717  -9.22943  10.02515
H   -19.57252  -8.63089   9.01450
H   -18.14548  -9.07670   8.08470
H   -16.61770  -7.48628   7.21438
H   -17.11175  -5.83250   6.82582
H   -16.56450  -6.22627   8.46721
H   -18.07288  -8.47246   5.78934
H   -19.49831  -8.84224   3.81093
H   -21.73442  -7.73963   3.64154
H   -22.50693  -6.24585   5.49080
H   -21.06705  -5.86433   7.46478
