39
Generated by autodE on: 2022-05-29. E = -993.237553 Ha
C    -4.13597  -0.24679   1.34856
O    -2.86214  -0.59690   0.78568
C    -2.03147   0.41256   0.49022
O    -2.33072   1.57625   0.63068
C    -0.73429  -0.15537  -0.05990
C    -1.01550  -0.73892  -1.51193
C    -1.69226   0.38916  -2.28022
C    -0.71392   1.26838  -2.52978
C     0.54392   0.65424  -1.93334
O     0.28536  -0.74801  -2.08902
C     0.47502   0.81339  -0.36528
C     0.40443   2.27260   0.06650
C     1.67611   0.11288   0.36678
C     2.97912   0.27049  -0.41338
C     3.45088  -0.83940  -1.30699
O     3.59209   1.32291  -0.31283
N     1.26711  -1.26174   0.61989
C     2.06670  -1.97399   1.60530
C    -0.15524  -1.22309   0.90530
C    -0.42925  -0.83170   2.31676
N    -0.57934  -0.52012   3.42484
H    -4.66324  -1.19333   1.51235
H    -4.69998   0.39056   0.65310
H    -3.99441   0.28157   2.30230
H    -1.47625  -1.73187  -1.51570
H    -2.76254   0.47579  -2.46562
H    -0.78029   2.25523  -2.98622
H     1.49515   0.94609  -2.39065
H     1.37084   2.75041  -0.15574
H     0.22588   2.35397   1.14746
H    -0.38812   2.82143  -0.45441
H     1.83612   0.66042   1.31740
H     3.89209  -1.63812  -0.68808
H     4.22144  -0.45797  -1.98981
H     2.61525  -1.28849  -1.85906
H     1.65592  -2.98350   1.75341
H     2.09427  -1.46106   2.58774
H     3.10085  -2.08017   1.25204
H    -0.62257  -2.20850   0.75534
