17
Generated by autodE on: 2022-05-29. E = -418.325985 Ha
C     3.35612   0.45539  -0.28132
C     1.95003  -0.07633  -0.11705
O     1.76946  -1.29817   0.05973
C     0.89288   0.88856  -0.17895
N    -0.42329   0.59859  -0.05381
C    -1.36734   1.73551  -0.14677
C    -0.93837  -0.62189   0.14492
C    -2.32284  -0.82089   0.26406
N    -3.46641  -1.04366   0.37050
H     3.95145   0.17466   0.60262
H     3.82360  -0.03015  -1.15357
H     3.39388   1.54509  -0.41222
H     1.12496   1.93812  -0.33556
H    -0.80478   2.65929  -0.30525
H    -2.05192   1.56575  -0.98746
H    -1.94197   1.80255   0.78564
H    -0.24391  -1.45729   0.21168
