24
Generated by autodE on: 2022-10-26. E = -722.273612 Ha
C     1.81732   3.53914   0.95692
C     1.17687   2.28481   0.42077
O     0.69242   2.25479  -0.72471
C     1.08396   1.14669   1.28715
C     1.37501   1.14053   2.66334
N     1.64319   1.12534   3.80119
O     0.28230   0.09019   0.90125
C     0.19308  -0.35145  -0.31791
C     1.27744  -0.15999  -1.23237
N     2.18243  -0.12643  -1.96130
C    -0.93301  -1.17317  -0.66537
C    -2.00450  -1.32235   0.24857
C    -3.08037  -2.13476  -0.08081
C    -3.11121  -2.79658  -1.31745
C    -2.06025  -2.64497  -2.23093
C    -0.97465  -1.83791  -1.91435
H     1.04589   4.32129   1.04196
H     2.56427   3.88714   0.22746
H     2.29634   3.39941   1.93412
H    -1.98019  -0.79123   1.20027
H    -3.90787  -2.25072   0.62151
H    -3.96439  -3.42887  -1.57263
H    -2.09056  -3.15997  -3.19264
H    -0.15398  -1.72218  -2.62428
