48
Generated by autodE on: 2022-10-22. E = -1446.857434 Ha. Imaginary frequency = -101.6 cm-1
C     0.48759  -1.18104   3.57633
O     1.76288  -0.76738   3.07913
C     1.75585   0.25677   2.15045
F     1.33834   1.42381   2.79921
C     3.18312   0.46948   1.63803
C     3.67063  -0.58646   0.62891
C     3.28461  -0.29779  -0.84713
C     2.44793  -1.34985  -1.58889
C     1.14571  -1.78868  -0.91233
F     1.36562  -2.93549  -0.17355
F     0.22485  -2.15361  -1.85801
C     0.64097  -0.76867   0.02482
C     0.86858  -0.06904   1.00260
C    -0.69578   2.05673   0.57794
C    -1.27153   2.30006   1.85068
N    -1.73917   2.49028   2.90181
C     0.40243   2.84465   0.03481
C     1.00547   3.90168   0.91675
O     0.78759   2.64022  -1.11575
O    -1.44812   1.23597  -0.16051
C    -1.35769   0.51394  -1.23231
C    -0.48086   0.77335  -2.33708
N     0.07814   0.78847  -3.35806
C    -2.39197  -0.50295  -1.38566
C    -3.19715  -0.84166  -0.27533
C    -4.17811  -1.81825  -0.40076
C    -4.37140  -2.47107  -1.62588
C    -3.57544  -2.14171  -2.72824
C    -2.58966  -1.16545  -2.61476
H    -0.10567  -0.31791   3.91546
H     0.68637  -1.84444   4.42762
H    -0.07270  -1.73475   2.80605
H     3.22390   1.47383   1.19028
H     3.81776   0.47656   2.53747
H     3.31274  -1.57863   0.94677
H     4.76648  -0.63065   0.70755
H     2.75345   0.66424  -0.90515
H     4.20171  -0.16166  -1.44016
H     3.01910  -2.27599  -1.75991
H     2.16772  -0.94612  -2.57282
H     0.25701   4.68503   1.12016
H     1.86787   4.34452   0.40289
H     1.31702   3.48123   1.88213
H    -3.03781  -0.34049   0.67992
H    -4.79463  -2.07891   0.46189
H    -5.14178  -3.23970  -1.71889
H    -3.72444  -2.64895  -3.68344
H    -1.97186  -0.91622  -3.47746
