38
Generated by autodE on: 2022-06-17. E = -801.941227 Ha
C     5.04691  -0.41927  -1.82714
C     4.16361  -0.23158  -0.82616
C     4.59313  -0.13982   0.61350
C     2.73695  -0.11087  -1.14253
C     1.75438   0.07095  -0.24195
C     0.31890   0.15010  -0.63351
N    -0.37155   1.37695  -0.12891
C     0.00659   1.91894   1.03559
N     0.35715   2.45650   2.01022
N    -1.76690   1.13853  -0.22323
C    -2.24986   1.45510  -1.57422
N    -1.89129  -0.24675   0.08249
C    -2.99386  -0.70931   0.73717
C    -4.04211   0.30636   1.11913
O    -3.13152  -1.91231   0.97985
C    -0.61433  -0.99789  -0.11346
C    -0.12892  -1.56833   1.22335
C    -0.74246  -2.09022  -1.17193
H     6.11885  -0.51306  -1.63202
H     4.71663  -0.48432  -2.86822
H     4.11652  -0.92819   1.21958
H     4.29003   0.82376   1.05580
H     5.68330  -0.23880   0.71048
H     2.47256  -0.18240  -2.20363
H     1.98488   0.14481   0.82310
H     0.24652   0.19063  -1.72720
H    -2.11564   2.53232  -1.73798
H    -1.73029   0.89008  -2.36528
H    -3.32149   1.22372  -1.61687
H    -4.54937   0.70397   0.22679
H    -4.78340  -0.19446   1.75414
H    -3.59455   1.15708   1.65142
H     0.83469  -2.07758   1.08339
H    -0.00056  -0.77429   1.97396
H    -0.85261  -2.29540   1.60933
H    -1.14464  -1.68115  -2.11016
H     0.24975  -2.52212  -1.37527
H    -1.40645  -2.89181  -0.82172
