23
Generated by autodE on: 2022-06-17. E = -351.521382 Ha
C    -3.56029  -0.47341  -1.18184
C    -2.54783  -0.33278  -0.29811
C    -2.79702  -0.35003   1.18837
C    -1.17859  -0.15984  -0.77914
C    -0.07845  -0.01039   0.00073
C     1.25845   0.15790  -0.53164
C     2.40689   0.31392   0.17427
C     2.48529   0.34027   1.67435
C     3.72525   0.47496  -0.52860
H    -3.37568  -0.46068  -2.26048
H    -4.59408  -0.60417  -0.85009
H    -3.86458  -0.48597   1.41181
H    -2.46143   0.58932   1.65844
H    -2.23474  -1.16361   1.67615
H    -1.05134  -0.15302  -1.86842
H    -0.19692  -0.01713   1.08773
H     1.33486   0.15631  -1.62576
H     2.94242   1.28573   2.01597
H     3.14673  -0.46671   2.03644
H     1.51210   0.23265   2.17020
H     4.20575   1.42899  -0.24622
H     4.42920  -0.32150  -0.22695
H     3.61922   0.44922  -1.62308
