36
Generated by autodE on: 2022-06-17. E = -692.462612 Ha
C    -0.21056  -4.25048  -2.06284
C    -0.25850  -2.90305  -2.07343
C    -0.35172  -2.12112  -3.35676
C    -0.21816  -2.16624  -0.80559
C    -0.25062  -0.82949  -0.67473
C    -0.20044  -0.13137   0.65237
N     0.92554   0.82793   0.68569
C     2.23637   0.46970   0.70943
C     3.24636   1.58665   0.63708
O     2.55615  -0.72124   0.79610
N     0.50897   2.14295   0.55993
C    -0.77188   2.17437   0.66014
C    -1.54719   3.43786   0.54730
C    -1.40384   0.81883   0.96035
C    -1.74573   0.76041   2.46099
C    -2.65588   0.53981   0.12647
H    -0.23741  -4.83036  -2.98972
H    -0.14255  -4.80672  -1.12288
H     0.50518  -1.43558  -3.46564
H    -0.37457  -2.78844  -4.22976
H    -1.25904  -1.49457  -3.37351
H    -0.15295  -2.77821   0.10187
H    -0.30111  -0.18037  -1.55408
H    -0.07212  -0.87246   1.45194
H     3.13254   2.15093  -0.30067
H     3.10633   2.29826   1.46398
H     4.25163   1.15030   0.68805
H    -2.18584   3.58130   1.43396
H    -2.21867   3.39967  -0.32651
H    -0.87594   4.30072   0.44167
H    -2.15753  -0.23011   2.71062
H    -0.85116   0.92889   3.07989
H    -2.49660   1.52088   2.72349
H    -2.99814  -0.49357   0.28732
H    -2.47695   0.67686  -0.94930
H    -3.46964   1.21687   0.42745
