36
Generated by autodE on: 2022-06-17. E = -692.368484 Ha. Imaginary frequency = -408.0 cm-1
C     1.26385  -3.88787  -1.95014
C     0.56381  -2.73366  -1.87406
C     0.18649  -1.95140  -3.10493
C     0.19704  -2.19815  -0.56927
C    -0.55948  -1.08419  -0.36182
C    -0.82468  -0.53834   0.93423
N     1.34755   1.18345   1.18260
C     1.95955   0.67286   0.06652
C     2.95192  -0.41503   0.36782
O     1.71053   1.01936  -1.09814
N     0.45050   2.08953   0.94354
C    -0.74216   2.26473   0.85764
C    -1.65864   3.39558   0.62631
C    -1.79486   0.43322   1.20810
C    -2.14660   0.66355   2.66507
C    -2.94096   0.63395   0.22978
H     1.57050  -4.30693  -2.91239
H     1.54644  -4.43736  -1.04715
H     0.54265  -2.44788  -4.01827
H     0.62261  -0.93982  -3.05855
H    -0.90588  -1.82440  -3.18190
H     0.57391  -2.74352   0.30296
H    -0.97057  -0.55566  -1.22518
H    -0.27223  -0.96813   1.77403
H     3.84725  -0.28055  -0.25726
H     2.50280  -1.38237   0.08548
H     3.22902  -0.44638   1.42896
H    -2.46860   3.40284   1.36875
H    -1.09649   4.33834   0.69038
H    -2.11163   3.31344  -0.37240
H    -2.89579  -0.08015   2.99101
H    -1.26347   0.56238   3.31315
H    -2.59130   1.65618   2.83139
H    -3.55843   1.49781   0.50892
H    -3.59548  -0.25429   0.25173
H    -2.60403   0.77228  -0.80687
