60
Generated by autodE on: 2022-10-24. E = -1620.632525 Ha
C     3.80273  -2.30393  -0.69747
N     2.55855  -1.66784  -0.31510
C     2.51897  -0.38897   0.07375
O     3.52336   0.32203   0.17444
C     1.11004   0.15419   0.45101
C     1.32162   1.44050   1.29992
O     1.58316   2.51953   0.75956
N     1.24330   1.30429   2.63092
C     1.30499   2.46023   3.50564
N     0.27870  -0.84335   1.10563
C     0.75887  -1.76876   2.11761
C    -1.02530  -0.99403   0.50632
C    -2.08338  -1.35538   1.59253
C    -2.33863  -0.43341   2.74612
O    -2.64947  -2.43109   1.50458
C    -1.02357  -2.18297  -0.49678
O    -0.16537  -3.04569  -0.49396
O    -2.06993  -2.20581  -1.30714
C    -2.15907  -3.30234  -2.23045
C    -1.18369   0.42987  -0.19656
O    -2.14373   0.55423  -1.17424
C    -3.50608   0.38980  -0.77355
O    -1.36006   1.32762   0.86178
C    -1.74086   2.68556   0.64733
C     0.25741   0.52142  -0.81814
O     0.42700  -0.52605  -1.75005
C    -0.01851  -0.35245  -3.09611
C     0.64777   1.83715  -1.50648
O    -0.09943   2.75841  -1.74473
O     1.89353   1.74761  -1.96536
C     2.41391   2.89342  -2.65091
H     3.61549  -3.36973  -0.87787
H     4.55485  -2.20385   0.10040
H     4.22164  -1.85665  -1.61432
H     1.68034  -2.17834  -0.40853
H     0.86330   0.44389   3.00672
H     1.37714   2.11779   4.54532
H     2.18613   3.07278   3.26935
H     0.40752   3.09339   3.40046
H     1.80722  -1.54809   2.35294
H     0.70322  -2.81654   1.78581
H     0.19033  -1.67837   3.06034
H    -2.76973  -1.01769   3.57022
H    -1.43739   0.09997   3.06355
H    -3.06871   0.32616   2.42485
H    -1.25774  -3.34870  -2.85703
H    -3.04347  -3.10427  -2.84621
H    -2.27760  -4.24858  -1.68353
H    -4.11044   0.56848  -1.67181
H    -3.79134   1.11392   0.00302
H    -3.69627  -0.63092  -0.41576
H    -2.40638   2.95463   1.48059
H    -2.27077   2.82036  -0.30258
H    -0.85634   3.33720   0.65884
H     0.65594   0.32054  -3.64912
H    -1.04689   0.02557  -3.14305
H     0.02658  -1.34924  -3.55377
H     1.80775   3.12028  -3.53941
H     2.42203   3.76173  -1.97613
H     3.43667   2.63018  -2.94303
