36
Generated by autodE on: 2022-10-24. E = -970.259487 Ha
C    -3.72007   0.51684   1.65317
N    -2.46538  -0.19150   1.48940
C    -1.65917   0.05933   0.44571
O    -1.95994   0.78069  -0.50464
C    -0.37507  -0.73669   0.43827
C    -0.44688  -2.12390   1.03752
O    -0.31547  -2.23065   2.26116
N    -0.72731  -3.12799   0.20552
C    -0.85595  -4.49824   0.67273
N     0.72451  -0.30240  -0.11227
C     1.84972  -1.25410  -0.30394
C     0.96624   1.07368  -0.34444
C     0.62940   1.98373   0.71819
C     1.05512   3.43191   0.61752
O     0.01161   1.60999   1.73444
C     1.56678   1.45536  -1.59993
O     2.00423   2.56246  -1.90060
O     1.56647   0.43467  -2.49913
C     2.19367   0.69172  -3.75622
H    -4.31640   0.45426   0.73210
H    -3.55136   1.58232   1.88244
H    -4.28206   0.05948   2.47620
H    -2.07963  -0.70208   2.28006
H    -0.76486  -2.93685  -0.79273
H    -1.36181  -5.09009  -0.09930
H    -1.44962  -4.52406   1.59687
H     0.12946  -4.94608   0.87912
H     2.74708  -0.68874  -0.56289
H     1.60932  -1.96689  -1.10021
H     2.02440  -1.78416   0.64130
H     0.78001   3.93322   1.55498
H     0.54178   3.92127  -0.22433
H     2.13320   3.53315   0.43401
H     2.11959  -0.24125  -4.32829
H     1.67939   1.50205  -4.29401
H     3.25110   0.96523  -3.62137
