24
Generated by autodE on: 2022-10-24. E = -650.341901 Ha
C     3.22239   1.06773  -0.95152
O     1.86561   0.89949  -0.53126
C     1.44911  -0.36864  -0.35059
O     2.19103  -1.32795  -0.53377
C     0.06587  -0.52291   0.09087
O    -0.30490  -1.83372   0.34171
C    -0.82700  -2.50886  -0.79990
C    -0.88217   0.46674   0.23136
O    -2.10795   0.28862   0.71323
C    -2.41576  -0.68911   1.71957
O    -0.64981   1.71168  -0.17476
C    -1.52378   2.76462   0.25940
H     3.91935   0.66126  -0.20331
H     3.40014   0.56902  -1.91599
H     3.37430   2.14898  -1.05556
H    -1.06958  -3.53501  -0.48844
H    -0.08442  -2.54433  -1.61462
H    -1.74309  -2.01605  -1.16919
H    -3.31600  -0.31262   2.22235
H    -1.59161  -0.77113   2.44095
H    -2.62193  -1.66778   1.26911
H    -1.05346   3.69247  -0.08738
H    -2.51992   2.65977  -0.19259
H    -1.61206   2.77529   1.35532
