60
Generated by autodE on: 2022-10-24. E = -1620.561108 Ha. Imaginary frequency = -297.8 cm-1
C     4.42211  -1.27288  -0.36608
N     3.03888  -0.87572  -0.19867
C     2.47086  -0.75817   0.99893
O     3.03844  -0.96481   2.07835
C     0.99974  -0.33863   1.01080
C     0.73980   0.89240   1.83832
O    -0.30491   1.07244   2.47004
N     1.74297   1.79185   1.86108
C     1.56547   3.08670   2.48850
N     0.11405  -1.35129   0.88165
C     0.63932  -2.72171   0.67451
C    -1.26858  -1.10071   0.73552
C    -2.04932  -0.66932   1.95138
C    -1.63065  -1.26342   3.27507
O    -3.09551  -0.04274   1.84818
C    -1.96088  -2.10775  -0.10714
O    -1.50446  -2.59058  -1.13016
O    -3.18075  -2.43762   0.35265
C    -3.95597  -3.33338  -0.45008
C    -1.17142   0.67336  -0.75204
O    -1.92070   0.22753  -1.77781
C    -3.34360   0.09966  -1.62867
O    -1.66181   1.66295   0.00623
C    -2.34462   2.76934  -0.61109
C     0.25739   0.63035  -0.97320
O     0.72988  -0.42614  -1.72694
C     0.54989  -0.39104  -3.14992
C     1.02725   1.88173  -1.02510
O     0.68528   2.97403  -0.59593
O     2.22863   1.69221  -1.60995
C     3.11380   2.81629  -1.62426
H     4.54216  -2.36614  -0.28134
H     5.04836  -0.79895   0.40295
H     4.76689  -0.95603  -1.35858
H     2.44079  -0.71127  -1.01409
H     2.54895   1.66604   1.25737
H     2.46849   3.68509   2.31829
H     0.69890   3.61641   2.06407
H     1.40793   2.98094   3.57295
H     1.48740  -2.87778   1.34998
H     0.94310  -2.89681  -0.36206
H    -0.13793  -3.43907   0.95516
H    -0.54809  -1.40997   3.36068
H    -2.00195  -0.64298   4.10191
H    -2.11379  -2.25501   3.33785
H    -3.43517  -4.29411  -0.57158
H    -4.15119  -2.89864  -1.44132
H    -4.89976  -3.47966   0.08818
H    -3.84041   0.96571  -2.08737
H    -3.62174   0.02713  -0.57003
H    -3.63694  -0.81027  -2.16601
H    -3.43083   2.64788  -0.49656
H    -2.08419   2.85490  -1.67466
H    -2.01894   3.67286  -0.08091
H     0.47330   0.64265  -3.51806
H    -0.35276  -0.95029  -3.43331
H     1.43359  -0.86841  -3.59684
H     2.67375   3.65515  -2.18272
H     3.34007   3.14298  -0.59798
H     4.02937   2.47240  -2.11981
