40
Generated by autodE on: 2022-06-17. E = -732.798628 Ha
C     0.40818  -2.15207   1.30465
C    -0.54573  -1.29782   0.48219
C    -1.41187  -0.33763   1.30538
C    -2.50356  -1.00660   2.12707
C    -1.89408   0.67386   0.23719
C    -2.39658   1.98879   0.84186
C    -3.00450   0.07731  -0.56906
N    -3.82396  -0.36566  -1.26416
N    -0.70550   0.83857  -0.58134
C    -0.77777   1.65489  -1.77060
C     0.10862  -0.39749  -0.62831
C    -0.00130  -1.12600  -1.97790
C     1.56657  -0.04643  -0.29560
C     1.85646   1.02067   0.56961
C     3.17117   1.31869   0.93701
C     4.23194   0.55404   0.44134
C     3.95949  -0.50829  -0.42447
C     2.64156  -0.80340  -0.78849
H    -0.15698  -2.81828   1.97465
H     1.07662  -1.53386   1.92296
H     1.03616  -2.78514   0.65918
H    -1.23607  -1.97896  -0.04399
H    -0.75905   0.24644   1.97490
H    -3.16178  -1.62457   1.49534
H    -2.06036  -1.66252   2.89122
H    -3.12671  -0.26415   2.64926
H    -1.57996   2.45119   1.41498
H    -2.73179   2.69207   0.06659
H    -3.24449   1.79791   1.51544
H    -1.41259   1.23031  -2.57506
H     0.23467   1.79509  -2.17793
H    -1.17064   2.65308  -1.52646
H     0.42755  -2.13604  -1.90962
H     0.51968  -0.59025  -2.78449
H    -1.05903  -1.23596  -2.25694
H     1.03239   1.62405   0.95008
H     3.36784   2.15490   1.61300
H     5.26144   0.78628   0.72468
H     4.77730  -1.11378  -0.82346
H     2.45969  -1.64213  -1.46085
