28
Generated by autodE on: 2022-06-17. E = -575.422379 Ha
C    -0.25421  -2.72675   0.00173
C     0.01607  -1.24831  -0.00662
C    -1.09836  -0.31662   0.20825
C    -2.13931  -0.62193   1.11271
C    -3.24813   0.21348   1.24316
C    -3.36095   1.36908   0.46245
C    -2.34242   1.68306  -0.44399
C    -1.22169   0.86235  -0.56134
N     1.24718  -0.82534  -0.32444
C     2.16256  -1.78766  -0.96877
C     1.78062   0.40926   0.02731
C     1.24429   1.20725   1.17319
C     2.87652   0.90526  -0.68332
N     3.80652   1.37534  -1.23253
H     0.51997  -3.29253   0.54280
H    -0.30098  -3.13402  -1.02370
H    -1.22229  -2.93694   0.46971
H    -2.07128  -1.51588   1.73485
H    -4.03115  -0.04072   1.96164
H    -4.23215   2.02052   0.56151
H    -2.41860   2.57862  -1.06542
H    -0.43903   1.12402  -1.27560
H     2.55262  -2.48896  -0.21846
H     1.63997  -2.34330  -1.75442
H     3.00092  -1.24270  -1.41226
H     2.04906   1.83090   1.59104
H     0.40350   1.87838   0.91458
H     0.87293   0.53357   1.96398
