28
Generated by autodE on: 2022-07-27. E = -575.422597 Ha
C    -0.78579  -1.54788  -1.12978
C    -0.24620  -0.30877  -0.50042
C     1.19316  -0.21228  -0.20916
C     1.65367   0.28153   1.03080
C     3.01775   0.34224   1.31519
C     3.95579  -0.09240   0.37312
C     3.51424  -0.59554  -0.85590
C     2.15118  -0.66248  -1.14207
N    -1.08548   0.67860  -0.15039
C    -0.60393   2.06504  -0.00357
C    -2.45325   0.49232   0.02340
C    -3.43545   1.60591  -0.22575
C    -2.89052  -0.70981   0.57476
N    -3.25866  -1.71709   1.06321
H    -1.66318  -1.30596  -1.75332
H    -1.12663  -2.29990  -0.39483
H    -0.01113  -2.02623  -1.74340
H     0.93356   0.60120   1.78587
H     3.34962   0.72193   2.28451
H     5.02394  -0.04550   0.59717
H     4.23808  -0.93686  -1.59975
H     1.82513  -1.04785  -2.10982
H    -1.20920   2.71037  -0.65196
H     0.43835   2.13820  -0.32141
H    -0.71177   2.40322   1.03541
H    -4.45608   1.20328  -0.15727
H    -3.32308   2.04526  -1.23214
H    -3.36225   2.43071   0.50579
