35
Generated by autodE on: 2022-10-06. E = -758.320949 Ha. Imaginary frequency = -158.3 cm-1
C     4.43160  -0.45092  -1.10183
N     3.28531   0.19845  -0.48938
C     2.24289  -0.50839  -0.05691
O     2.14195  -1.73541  -0.11406
C     1.06567   0.26960   0.51197
C     1.15047   1.68340   0.69679
N     1.33477   2.82237   0.83544
N     0.12199  -0.48981   1.01338
C    -1.28250  -0.20823   0.96721
C    -1.67776   1.13917   1.55959
C    -2.01291  -1.36083   1.64230
C    -1.54845  -0.16128  -0.76496
N    -1.41364  -1.47047  -1.33366
N    -2.83636   0.41324  -1.04516
C    -4.07001  -0.21838  -0.60555
N    -0.50000   0.66872  -1.25790
H     4.11432  -1.06174  -1.96033
H     5.13043   0.32022  -1.44410
H     4.94109  -1.10791  -0.38023
H     3.29285   1.20985  -0.38772
H     0.37298  -1.48424   0.91003
H    -1.34770   1.99801   0.96271
H    -2.77123   1.18812   1.63931
H    -1.26121   1.23809   2.57321
H    -3.09616  -1.26591   1.52711
H    -1.69979  -2.33169   1.23133
H    -1.78842  -1.35384   2.71974
H    -2.11225  -2.10971  -0.95944
H    -0.49981  -1.86799  -1.11328
H    -2.83515   1.40640  -0.82011
H    -4.05047  -1.29795  -0.80859
H    -4.90107   0.20297  -1.19143
H    -4.31329  -0.07018   0.46102
H    -0.73605   1.65570  -1.34375
H    -0.05972   0.31147  -2.10348
