42
Generated by autodE on: 2022-06-04. E = -3888.750214 Ha
C    -3.26069   3.72724  -0.70686
O    -2.92317   2.37020  -0.35999
C    -1.65823   2.01522  -0.49018
O    -0.76560   2.73342  -0.87651
C    -1.43859   0.58295   0.05359
C    -2.55295  -0.40376  -0.41168
C    -2.92826  -1.48070   0.55450
O    -3.04782  -0.25345  -1.50523
O    -1.48934   0.71145   1.47927
C    -0.23225   0.45761   2.06391
C    -0.41431  -0.60410   3.08492
N    -0.60884  -1.45205   3.84858
C     0.28752   1.69788   2.69619
N     0.69084   2.68990   3.13640
C     0.67400   0.01396   0.90620
C    -0.03280   0.07175  -0.23238
C     0.36622  -0.27070  -1.64449
F    -0.44220   0.43270  -2.49464
Br   -0.13346  -2.21358  -1.90225
C     1.80665  -0.08828  -2.07864
C     2.37171   1.32337  -1.89352
C     2.51159   1.84132  -0.45790
C     3.10782   0.88917   0.57492
C     2.15735  -0.28006   1.13078
C     2.51605  -1.60238   0.57896
N     2.82955  -2.65127   0.20047
C     2.46302  -0.39981   2.57318
N     2.74772  -0.46984   3.69368
H    -3.03143   3.91175  -1.76550
H    -2.69673   4.42765  -0.07512
H    -4.33629   3.82291  -0.52367
H    -3.49489  -1.02628   1.38391
H    -3.55079  -2.22799   0.04718
H    -2.03774  -1.95037   0.99800
H     2.44194  -0.83108  -1.58561
H     1.82476  -0.34620  -3.14764
H     1.76395   2.03805  -2.46909
H     3.36746   1.30634  -2.36386
H     3.19054   2.70817  -0.48438
H     1.55617   2.23790  -0.08923
H     4.02289   0.40317   0.20833
H     3.38089   1.48014   1.45766
