22
Generated by autodE on: 2022-06-04. E = -3169.553992 Ha
N    -1.07930  -3.29383   2.78992
C    -0.93714  -2.86165   1.72472
C    -0.79314  -2.27506   0.37468
C    -0.54958  -3.36206  -0.59428
N    -0.38116  -4.19848  -1.37755
C     0.26920  -1.26462   0.37960
C     0.76042  -0.16190   0.45663
C     0.75453   1.28767   0.50532
F     1.71408   1.79982   1.32930
Br    1.17658   1.96656  -1.33791
C    -0.62943   1.76360   0.95116
C    -1.84191   1.12752   0.24836
C    -2.39317  -0.22216   0.78713
C    -2.11873  -1.50291  -0.02106
H    -0.66761   1.55521   2.03392
H    -0.64751   2.85710   0.83147
H    -1.64605   1.05134  -0.83399
H    -2.65306   1.86341   0.34534
H    -3.48911  -0.13301   0.80910
H    -2.09406  -0.36756   1.83881
H    -2.93822  -2.22480   0.10510
H    -2.03093  -1.27686  -1.09358
