42
Generated by autodE on: 2022-06-04. E = -3888.626995 Ha. Imaginary frequency = -196.9 cm-1
C    -1.95711   3.77488  -0.94445
O    -2.30825   2.41412  -0.63508
C    -1.57561   1.81050   0.28041
O    -0.69763   2.34484   0.93024
C    -1.90878   0.36363   0.44484
C    -2.87071  -0.43427  -0.38796
C    -3.19320  -1.81536   0.11433
O    -3.35239   0.03226  -1.40331
O    -1.57960  -0.26722   1.53803
C    -0.67460  -0.15391   2.48454
C    -0.48482  -1.37043   3.20868
N    -0.31266  -2.36406   3.78799
C    -0.29355   1.04829   3.14617
N     0.04842   1.91457   3.84429
C     1.11355  -0.21564   0.56964
C     0.40362  -0.24400  -0.43234
C     0.28111  -0.21129  -1.89092
F    -0.55847   0.80264  -2.27331
Br   -0.53850  -1.91858  -2.52610
C     1.64933  -0.02225  -2.54620
C     2.46032   1.12553  -1.90782
C     3.67478   0.69527  -1.06693
C     3.52159  -0.35721   0.03608
C     2.46154  -0.04071   1.16534
C     2.69820  -0.95044   2.30435
N     2.91186  -1.68221   3.17571
C     2.62879   1.35573   1.62457
N     2.79063   2.45996   1.93260
H    -0.92811   3.81497  -1.32943
H    -2.66783   4.09606  -1.71332
H    -2.04444   4.40517  -0.04867
H    -3.79044  -2.33433  -0.64479
H    -2.28070  -2.38544   0.34039
H    -3.76865  -1.74031   1.05160
H     1.45307   0.16818  -3.61138
H     2.19779  -0.97182  -2.48180
H     2.84578   1.76664  -2.71412
H     1.79581   1.77454  -1.31582
H     4.43635   0.27794  -1.74631
H     4.12364   1.60252  -0.63231
H     3.23335  -1.33777  -0.36847
H     4.49173  -0.47758   0.53954
