23
Generated by autodE on: 2022-06-20. E = -704.259599 Ha
C     1.58125  -2.50135   0.12159
C     1.98281  -1.22201  -0.56308
O     3.03510  -1.10858  -1.18028
C     1.02942  -0.09076  -0.49101
O    -0.03383  -0.38609   0.21359
C    -1.19947   0.10324   0.52015
C    -1.80553   1.21514  -0.11163
N    -2.47180   2.03650  -0.60405
C    -1.95104  -0.73914   1.49691
C    -3.33776  -0.29674   1.85300
O    -1.41214  -1.73071   1.96423
C     1.25761   1.29344  -0.94704
C     2.39883   1.60304  -1.86598
O     0.51841   2.16959  -0.50307
H     2.41832  -3.20835   0.06980
H     0.70023  -2.93215  -0.38136
H     1.29153  -2.32024   1.16678
H    -3.32289   0.73537   2.23879
H    -3.75384  -0.97388   2.60879
H    -3.97867  -0.29679   0.95646
H     3.35609   1.40602  -1.36016
H     2.33744   2.66094  -2.15266
H     2.37024   0.95642  -2.75519
