46
Generated by autodE on: 2022-06-20. E = -1055.795716 Ha. Imaginary frequency = -205.1 cm-1
C     0.13655   2.47441  -1.91799
C    -0.83848   1.54741  -2.00356
C    -2.16857   1.86432  -2.63923
C    -0.66480   0.15985  -1.53765
C     0.59764  -0.42970  -1.36013
C     0.77314  -1.84172  -1.28750
C     1.97954  -2.48670  -1.24455
C     2.03516  -3.98075  -1.19006
C     3.30545  -1.79053  -1.31697
C     0.95409   0.42230   1.14453
C     1.47426  -0.85621   1.43657
N     2.06988  -1.84305   1.62659
C     1.92280   1.53299   1.15994
C     1.39608   2.92480   1.37611
O     3.12165   1.29872   1.00812
O    -0.33232   0.79946   1.20453
C    -1.42356   0.23224   0.67878
C    -2.56714   1.18393   0.59849
C    -2.29969   2.62365   0.93182
O    -3.67465   0.79334   0.24540
C    -1.66652  -1.21921   0.91159
C    -2.81551  -1.91939   0.24523
O    -0.92221  -1.81329   1.68162
H     1.11794   2.25634  -1.49466
H    -0.02385   3.48744  -2.29551
H    -2.23015   2.92097  -2.93458
H    -2.31474   1.24253  -3.53917
H    -3.00804   1.63826  -1.96631
H    -1.49187  -0.51517  -1.76517
H     1.48033   0.19873  -1.47045
H    -0.13429  -2.45272  -1.25413
H     2.63643  -4.37427  -2.02873
H     1.03633  -4.43825  -1.22071
H     2.54552  -4.30454  -0.26673
H     3.26279  -0.72930  -1.04431
H     3.70575  -1.87130  -2.34405
H     4.03230  -2.28644  -0.65605
H     0.89086   2.98680   2.35317
H     0.65327   3.18921   0.61128
H     2.23480   3.63153   1.34327
H    -1.84762   2.72249   1.92934
H    -3.24416   3.17934   0.88285
H    -1.58286   3.04193   0.20759
H    -2.61231  -2.99883   0.25918
H    -3.00251  -1.56948  -0.77652
H    -3.73035  -1.72160   0.82643
