40
Generated by autodE on: 2022-06-17. E = -786.281326 Ha
C     2.40843   3.06272  -0.62023
N     1.45267   2.09444  -0.13201
C     1.44377   0.80356  -0.46710
O     2.28542   0.26338  -1.20949
C     0.27975  -0.00569   0.12726
C     0.79638  -1.14251   1.04290
O     0.10353  -1.52868   1.99433
N     1.98174  -1.68236   0.74157
C     2.49400  -2.84398   1.43946
N    -0.63810   0.83499   0.90484
C    -1.97176   0.86499   0.24367
C    -3.06017   0.93120   1.31043
C    -2.06472   2.09295  -0.67007
C    -2.00807  -0.46748  -0.54663
C    -3.07314  -0.58760  -1.62851
C    -0.56919  -0.61222  -1.05974
C    -0.19423  -2.01495  -1.51842
H     3.22480   2.53642  -1.13048
H     1.94197   3.76305  -1.33219
H     2.82638   3.64620   0.21381
H     0.66287   2.36539   0.45721
H     2.45234  -1.32301  -0.08944
H     3.52719  -3.02626   1.11867
H     1.89292  -3.74352   1.22381
H     2.48224  -2.68189   2.52751
H    -0.75204   0.36997   1.80600
H    -4.05832   0.91495   0.84759
H    -2.97667   1.85673   1.90225
H    -2.98566   0.07252   1.99721
H    -3.05350   2.16045  -1.14757
H    -1.90988   3.00846  -0.07847
H    -1.30362   2.07253  -1.46394
H    -2.16988  -1.26420   0.20108
H    -3.09048  -1.60394  -2.05172
H    -4.07683  -0.38311  -1.22306
H    -2.89095   0.11457  -2.45711
H    -0.44210   0.06650  -1.91845
H     0.85125  -2.06155  -1.85416
H    -0.33709  -2.75794  -0.71753
H    -0.82959  -2.31264  -2.36680
