12
Generated by autodE on: 2022-06-17. E = -157.300302 Ha
C    -1.96321  -0.05748   0.01864
C    -0.53706   0.36614  -0.16170
C     0.53706  -0.36612   0.16175
C     1.96321   0.05746  -0.01868
H    -2.03760  -1.06596   0.45512
H    -2.50519  -0.05886  -0.94381
H    -2.50851   0.64260   0.67645
H    -0.37874   1.36314  -0.59636
H     0.37874  -1.36310   0.59644
H     2.50550   0.05803   0.94360
H     2.50821  -0.64218  -0.67720
H     2.03760   1.06626  -0.45444
