40
Generated by autodE on: 2022-06-17. E = -786.195584 Ha. Imaginary frequency = -401.6 cm-1
C     2.01532   3.23438  -0.51562
N     1.34956   2.18441   0.22784
C     1.33567   0.90041  -0.20273
O     2.14274   0.50813  -1.07472
C     0.40306  -0.02418   0.46373
C     0.93969  -1.24219   1.09279
O     0.27523  -1.86087   1.95409
N     2.16253  -1.66718   0.69924
C     2.67182  -2.96341   1.09061
N    -0.77757   0.38310   1.05398
C    -1.82046   0.99714   0.44397
C    -3.10847   0.98365   1.21696
C    -1.59268   2.21171  -0.41122
C    -2.12689  -0.52110  -1.19124
C    -2.89309   0.28920  -2.21063
C    -0.84881  -0.99587  -1.46166
C    -0.44738  -2.41763  -1.18716
H     1.51348   3.43654  -1.47860
H     3.05788   2.95797  -0.72701
H     2.00964   4.15491   0.08167
H     0.66873   2.45714   0.92658
H     2.55691  -1.19176  -0.11078
H     2.64224  -3.08152   2.18370
H     2.09032  -3.79110   0.64647
H     3.71407  -3.05385   0.75818
H    -1.05473  -0.31441   1.75178
H    -3.96271   1.02904   0.52554
H    -3.18041   1.86514   1.87926
H    -3.20061   0.07676   1.83336
H    -2.53250   2.51779  -0.88380
H    -0.83972   2.06028  -1.19354
H    -1.26623   3.05484   0.22296
H    -2.75435  -1.17427  -0.57011
H    -2.23317   0.95710  -2.78425
H    -3.69780   0.89427  -1.76508
H    -3.37438  -0.38977  -2.93771
H    -0.26932  -0.47909  -2.23583
H    -0.83841  -2.77324  -0.22191
H     0.64180  -2.55883  -1.19384
H    -0.86414  -3.07997  -1.96998
