41
Generated by autodE on: 2022-05-29. E = -1474.236243 Ha
C     0.95440   1.00733   3.10479
N     0.15033   0.91608   1.90125
C    -1.16204   0.34064   2.14715
C    -1.71490  -0.06052   0.76988
Cl   -2.74408  -1.54944   1.03475
C    -2.52128   1.03721   0.04352
C    -3.03937   0.52372  -1.31999
C    -1.76466   0.53320  -2.21261
C    -0.64638   0.89737  -1.21199
C    -1.38855   1.98131  -0.40055
C    -0.42245  -0.22140  -0.14012
C    -0.18344  -1.59952  -0.76165
F    -1.23651  -2.10550  -1.42612
F     0.15949  -2.53639   0.14579
F     0.83157  -1.53738  -1.65340
C     0.75594   0.08017   0.86551
C     2.01315   0.67133   0.26420
C     2.15754   2.05103   0.05482
C     3.32308   2.56628  -0.51840
C     4.36361   1.70952  -0.89163
C     4.23331   0.33389  -0.67822
C     3.06879  -0.17740  -0.09966
H     1.14846   0.01025   3.55805
H     0.43734   1.62636   3.85350
H     1.92350   1.47780   2.88487
H    -1.08305  -0.56863   2.77514
H    -1.82561   1.05143   2.66330
H    -3.29596   1.46348   0.69403
H    -3.49342  -0.47174  -1.23590
H    -3.80747   1.20905  -1.70618
H    -1.60429  -0.39934  -2.76234
H    -1.81718   1.34110  -2.95717
H     0.29033   1.20191  -1.69122
H    -1.75560   2.79086  -1.04824
H    -0.81396   2.40280   0.42712
H     1.04032  -0.89235   1.31049
H     1.35441   2.72630   0.34950
H     3.41922   3.64378  -0.67333
H     5.27460   2.11314  -1.34014
H     5.04413  -0.34375  -0.95647
H     2.97360  -1.25204   0.07237
