20
Generated by autodE on: 2022-05-29. E = -1069.688678 Ha
F     2.17176   0.61786   0.66788
C     1.50956  -0.51574   0.39234
F     2.32146  -1.26996  -0.38277
F     1.37904  -1.19201   1.56052
C     0.19400  -0.29586  -0.25621
C    -0.54331   0.82428  -0.37635
Cl   -0.19480   2.42916   0.15904
C    -1.90836   0.44464  -0.91477
C    -2.61965  -0.29985   0.26311
C    -1.79113  -1.60900   0.39880
C    -0.70139  -1.44564  -0.70904
C    -1.51402  -0.74339  -1.81615
H    -2.47806   1.26925  -1.35790
H    -2.62430   0.30814   1.17871
H    -3.66385  -0.50782  -0.01133
H    -2.40551  -2.49700   0.19005
H    -1.33905  -1.73352   1.39198
H    -0.16871  -2.36664  -0.97496
H    -2.38045  -1.33077  -2.15451
H    -0.90019  -0.44415  -2.67772
