21
Generated by autodE on: 2022-07-26. E = -404.452038 Ha
C    -2.58464  -2.07835   1.26978
N    -1.76199  -1.05788   1.01893
C    -2.00707   0.17261   1.79197
C    -0.75100  -1.10907   0.11164
C     0.23443  -0.13750  -0.26902
C     0.45807   1.17440   0.24439
C     1.47936   1.98601  -0.25304
C     2.33118   1.55367  -1.27371
C     2.13692   0.26544  -1.79519
C     1.12449  -0.55177  -1.31007
H    -3.37796  -1.94854   1.99974
H    -2.44072  -3.01267   0.72785
H    -1.14313   0.38591   2.43280
H    -2.17439   1.01191   1.10705
H    -2.89467   0.03041   2.41520
H    -0.70073  -2.06953  -0.40392
H    -0.15692   1.57882   1.04229
H     1.60837   2.98379   0.17607
H     3.12611   2.19929  -1.65315
H     2.78601  -0.10590  -2.59326
H     0.99580  -1.55080  -1.73549
