41
Generated by autodE on: 2022-05-29. E = -1474.149141 Ha. Imaginary frequency = -151.0 cm-1
C     0.61295   1.84075   2.83997
N     0.40603   0.49871   2.26573
C    -0.69607  -0.16122   2.65172
C    -1.93503  -0.26400   0.37963
Cl   -2.93549  -1.60514   0.92445
C    -2.59429   1.07433   0.09678
C    -3.24213   0.92377  -1.31854
C    -2.00714   0.83402  -2.26338
C    -0.80292   0.90806  -1.26799
C    -1.35608   1.91931  -0.24793
C    -0.84612  -0.37752  -0.44922
C    -0.26765  -1.64533  -0.95100
F    -1.05277  -2.24244  -1.89572
F    -0.09286  -2.57827   0.01143
F     0.93084  -1.46432  -1.54746
C     1.24335  -0.01760   1.32972
C     2.30214   0.65004   0.61149
C     2.37403   2.03885   0.32913
C     3.42073   2.56556  -0.42933
C     4.42210   1.73928  -0.94944
C     4.35539   0.36069  -0.70443
C     3.32019  -0.17149   0.05695
H     0.17805   1.85249   3.84545
H     0.12854   2.61925   2.23810
H     1.68551   2.04872   2.91085
H    -0.76396  -1.21754   2.41172
H    -1.27443   0.24807   3.47846
H    -3.26736   1.44200   0.88046
H    -3.88991   0.03708  -1.36958
H    -3.85912   1.80648  -1.54282
H    -1.98993  -0.08641  -2.86175
H    -1.97027   1.68880  -2.95562
H     0.16594   1.14043  -1.72650
H    -1.61604   2.88445  -0.70726
H    -0.69122   2.08497   0.60133
H     1.20451  -1.10141   1.26056
H     1.59417   2.71480   0.67301
H     3.44335   3.64041  -0.62762
H     5.23575   2.15940  -1.54491
H     5.12167  -0.30489  -1.11057
H     3.27853  -1.24854   0.23580
