45
Generated by autodE on: 2022-06-05. E = -1745.754538 Ha
C     3.73629  -2.62857   1.56991
O     2.50887  -2.21126   0.94469
C     2.54956  -1.07523   0.27184
O     3.54779  -0.41475   0.08360
C     1.19107  -0.74545  -0.39746
C     1.46869  -0.99922  -1.91021
C     1.24611  -2.40038  -2.38631
O     1.88745  -0.10482  -2.61005
O     0.19660  -1.66044   0.01335
C    -0.75926  -1.02310   0.82790
C    -1.98434  -1.92105   1.04556
C    -1.99543  -3.25337   0.36445
O    -2.83411  -1.55128   1.83067
C    -0.91880   0.37832   0.15566
C    -1.74214   0.24392  -1.17944
F    -2.35858   1.36804  -1.53947
F    -0.98983  -0.17012  -2.20420
F    -2.71577  -0.67690  -1.02919
C    -1.68535   1.37499   1.05985
F    -1.51997   2.64281   0.66288
F    -1.27132   1.29645   2.33378
F    -2.99805   1.12352   1.05056
C     0.63781   0.70463  -0.04994
C     0.96766   1.81638  -1.09746
C     2.38266   2.32364  -1.20165
O     0.07294   2.32531  -1.73636
C     1.22431   1.15642   1.34925
C     1.31983   2.61259   1.69998
O     1.59929   0.30633   2.12831
H     3.51197  -3.58166   2.06108
H     4.52283  -2.75917   0.81376
H     4.05151  -1.87900   2.30937
H     1.65093  -2.50874  -3.39998
H     0.16686  -2.61685  -2.38803
H     1.71545  -3.12058  -1.69834
H    -0.36049  -0.86613   1.84164
H    -1.84038  -3.14288  -0.71852
H    -1.15242  -3.85282   0.74677
H    -2.94259  -3.76629   0.57392
H     3.11786   1.66587  -0.72807
H     2.42348   3.32247  -0.74101
H     2.61774   2.44444  -2.26695
H     2.38271   2.89345   1.62346
H     0.73329   3.27833   1.06022
H     1.02446   2.73440   2.75080
