22
Generated by autodE on: 2022-06-05. E = -1058.440376 Ha
C     1.23609   1.86224  -2.18768
C     1.05956   0.40033  -1.93857
O     1.17033  -0.47315  -2.77389
C     0.86399  -0.01066  -0.48292
C     2.19628  -0.45571   0.11078
C     2.45335  -1.92764   0.10366
O     2.99457   0.39597   0.44238
C    -0.30291   0.00731   0.17187
C    -1.59095   0.50330  -0.45413
F    -1.87490   1.75958  -0.07297
F    -1.53590   0.49833  -1.79418
F    -2.62948  -0.26690  -0.09162
C    -0.45330  -0.46692   1.60308
F    -0.98102  -1.70064   1.66288
F    -1.26530   0.34813   2.29591
F     0.72189  -0.50729   2.24826
H     1.37062   2.05368  -3.26038
H     2.12800   2.18975  -1.62550
H     0.38447   2.43158  -1.78613
H     1.65715  -2.46147   0.64378
H     3.43867  -2.14581   0.53599
H     2.40854  -2.26998  -0.94457
