23
Generated by autodE on: 2022-07-27. E = -687.252907 Ha
C     3.63033   1.23783   1.07842
O     2.63637   0.87902   0.10875
C     1.45097   0.49418   0.59020
O     1.20205   0.44672   1.78986
C     0.47858   0.13925  -0.43863
O    -0.74047  -0.24473  -0.05618
C    -1.33869  -0.40355   1.06747
C    -2.73603  -0.85379   1.02177
C    -3.37555  -1.09328  -0.31574
O    -3.31711  -1.01134   2.09194
C     0.64745   0.13519  -1.89242
C    -0.55057  -0.27925  -2.71724
O     1.70974   0.44987  -2.42643
H     4.52091   1.51607   0.50318
H     3.85443   0.38611   1.73709
H     3.28958   2.08875   1.68620
H    -0.82167  -0.20757   2.00630
H    -3.35805  -0.17109  -0.91781
H    -2.81325  -1.85599  -0.87720
H    -4.41105  -1.42422  -0.16795
H    -0.86373  -1.30442  -2.46653
H    -0.27609  -0.22575  -3.77820
H    -1.41024   0.37984  -2.52191
