45
Generated by autodE on: 2022-06-05. E = -1745.681738 Ha. Imaginary frequency = -190.4 cm-1
C     4.53921  -0.62763   1.31376
O     3.56274  -0.70335   0.26331
C     2.35947  -1.13604   0.60858
O     2.06676  -1.53582   1.72076
C     1.40605  -1.19142  -0.53714
C     1.82879  -1.38584  -1.95812
C     0.83277  -2.03044  -2.88331
O     2.91979  -1.00016  -2.34964
O     0.20930  -1.73028  -0.30990
C    -0.55443  -1.54395   0.73415
C    -1.77329  -2.41100   0.78729
C    -2.10573  -3.25496  -0.40717
O    -2.39817  -2.44478   1.83360
C    -0.98830   0.68806   0.18723
C    -2.11511   0.48083  -0.83587
F    -2.45431   1.63626  -1.42450
F    -1.81758  -0.40978  -1.78809
F    -3.23480   0.01768  -0.24426
C    -1.52038   1.11959   1.55972
F    -2.06998   2.34913   1.46839
F    -0.53986   1.18724   2.47602
F    -2.45280   0.31637   2.07078
C     0.28034   1.14103  -0.19881
C     0.73151   1.40069  -1.62875
C     2.12914   1.93508  -1.80608
O    -0.00516   1.24130  -2.58411
C     1.15715   1.91667   0.79564
C     0.82877   3.38613   0.91533
O     2.08182   1.41356   1.39241
H     4.19392   0.06199   2.09613
H     4.71640  -1.62259   1.74536
H     5.45239  -0.24734   0.84281
H     0.45268  -2.97719  -2.47345
H     1.31972  -2.19939  -3.85157
H    -0.02872  -1.35964  -3.01775
H    -0.10704  -1.22295   1.67346
H    -2.10721  -2.66787  -1.33461
H    -1.33138  -4.03275  -0.51685
H    -3.08136  -3.73120  -0.24982
H     2.86196   1.39672  -1.19315
H     2.39715   1.86840  -2.86723
H     2.14854   2.99563  -1.50546
H     0.30967   3.54535   1.87357
H     0.18395   3.74904   0.10436
H     1.76890   3.95518   0.94695
