20
Generated by autodE on: 2022-06-24. E = -457.715333 Ha
C    -3.08167   0.67607   0.37435
N    -1.80876  -0.02100   0.28693
C    -1.78927  -1.42082   0.24410
C    -0.65967  -2.12478   0.06985
C     0.69508  -1.48201  -0.09774
C     0.57133   0.03258  -0.07067
C     1.74998   0.89884  -0.23433
N     2.93759   0.26442  -0.40280
O     1.69442   2.14548  -0.22547
C    -0.63294   0.64468   0.10974
H    -2.89922   1.74741   0.52589
H    -3.67775   0.54726  -0.54517
H    -3.67096   0.29829   1.22399
H    -2.76336  -1.89802   0.36676
H    -0.72422  -3.21518   0.05438
H     1.38537  -1.83708   0.69509
H     1.16319  -1.82412  -1.04329
H     3.77492   0.82495  -0.51672
H     3.02614  -0.74370  -0.40514
H    -0.69476   1.73392   0.12297
