41
Generated by autodE on: 2022-06-03. E = -924.838494 Ha
C     2.12064  -2.18171   1.87661
C     1.21860  -2.02454   0.67856
O     0.83362  -2.99630   0.04164
C     0.83814  -0.62421   0.28361
C    -0.43778  -0.31475  -0.08806
C    -0.78943   1.01224  -0.66082
C    -0.02697   1.58155  -1.69666
C    -0.37086   2.82312  -2.23214
C    -1.47720   3.52181  -1.73641
C    -2.24778   2.96165  -0.71238
C    -1.91406   1.71167  -0.18762
C    -1.57647  -1.25395   0.09731
C    -2.49523  -1.46869  -0.94521
C    -3.57393  -2.33805  -0.77443
C    -3.76640  -2.98815   0.44928
C    -2.87286  -2.76180   1.50151
C    -1.78796  -1.90120   1.32744
C     1.93240   0.38230   0.34878
C     1.77523   1.57457   1.07659
C     2.80748   2.51190   1.13650
C     4.01480   2.27300   0.47070
C     4.18582   1.08574  -0.24846
C     3.15406   0.14600  -0.30477
H     3.16051  -1.95762   1.58994
H     2.07030  -3.21754   2.23822
H     1.84707  -1.47556   2.67487
H     0.83509   1.04003  -2.08853
H     0.22683   3.24729  -3.04244
H    -1.74211   4.49674  -2.15237
H    -3.11533   3.49927  -0.32242
H    -2.52097   1.27568   0.60851
H    -2.35195  -0.95857  -1.90008
H    -4.27031  -2.50612  -1.59942
H    -4.61550  -3.66206   0.58535
H    -3.02588  -3.25232   2.46578
H    -1.10204  -1.71491   2.15685
H     0.83446   1.76310   1.59714
H     2.66991   3.43328   1.70751
H     4.82161   3.00833   0.51607
H     5.12583   0.89118  -0.77029
H     3.28914  -0.77774  -0.87320
