15
Generated by autodE on: 2022-07-27. E = -304.938683 Ha
C     2.93118  -0.43926  -0.38842
C     1.49917  -0.53316  -0.01105
N     0.62265   0.37085  -0.37691
C    -0.73165   0.49663  -0.14405
C    -1.45283   1.67365  -0.74066
C    -1.36382  -0.47816   0.61985
N    -1.89105  -1.30922   1.26969
H     3.25142  -1.33064  -0.95687
H     3.57656  -0.39268   0.50720
H     3.12769   0.45300  -1.00334
H     1.12989  -1.36644   0.59241
H     1.00323   1.13574  -0.94254
H    -1.43309   1.67059  -1.84636
H    -2.50808   1.65451  -0.43413
H    -1.03223   2.63971  -0.40638
