56
Generated by autodE on: 2022-06-03. E = -1229.770286 Ha. Imaginary frequency = -161.3 cm-1
C    -2.36570  -0.32272   2.69653
C    -1.17524  -0.79154   1.88510
O    -0.62191  -1.84535   2.23785
C    -0.71141  -0.02319   0.72533
C    -1.42507   1.24315   0.38729
C    -2.81038   1.29587   0.14730
C    -3.46280   2.50555  -0.10189
C    -2.74542   3.70468  -0.11870
C    -1.36973   3.67802   0.13469
C    -0.72338   2.46813   0.38728
C    -2.02282  -1.81942  -1.03283
C    -3.07861  -1.20045  -1.90211
C    -2.42435  -2.66898   0.02215
N    -2.81355  -3.38349   0.86138
N    -0.77225  -1.92840  -1.53564
C     0.37464  -2.16314  -0.85328
C     1.58027  -2.42559  -1.70698
C     0.61390  -0.31684   0.22955
C     1.17682   0.46540  -0.92248
C     2.55421   0.74217  -1.00894
C     3.09661   1.40644  -2.11359
C     2.27799   1.80832  -3.16990
C     0.90593   1.53650  -3.10578
C     0.36640   0.87966  -2.00217
C     1.64061  -0.63603   1.31459
C     1.85171   0.38149   2.26507
C     2.80158   0.25107   3.28020
C     3.57063  -0.91159   3.37575
C     3.36868  -1.93402   2.44566
C     2.41879  -1.79718   1.42863
H    -2.31214  -0.80441   3.68241
H    -2.41164   0.76819   2.81105
H    -3.30084  -0.64941   2.21411
H    -3.39053   0.37589   0.16181
H    -4.53958   2.50698  -0.28878
H    -3.25300   4.65096  -0.32044
H    -0.79488   4.60749   0.14252
H     0.34752   2.47239   0.59132
H    -3.22176  -1.80181  -2.81719
H    -2.79598  -0.18041  -2.20357
H    -4.03853  -1.15453  -1.37398
H    -0.65502  -1.51680  -2.46348
H     0.23909  -2.72829   0.07096
H     1.50771  -1.88051  -2.65987
H     1.65982  -3.50325  -1.93073
H     2.51026  -2.11526  -1.21804
H     3.21812   0.43650  -0.20118
H     4.17041   1.60703  -2.14378
H     2.70037   2.32576  -4.03437
H     0.24738   1.84173  -3.92260
H    -0.70604   0.69802  -1.97954
H     1.25617   1.29436   2.20718
H     2.93582   1.06182   4.00069
H     4.31387  -1.02247   4.16884
H     3.95026  -2.85694   2.51114
H     2.28677  -2.63144   0.74544
