48
Generated by autodE on: 2022-05-30. E = -999.914397 Ha
C     2.57451  -3.45168  -0.90528
N     2.29851  -2.12016  -0.40286
C     1.28791  -1.37353  -0.89090
O     0.53220  -1.80574  -1.77560
C     1.11919  -0.02467  -0.28047
C     2.06492   0.91390  -0.10230
C     3.50450   0.87500  -0.49808
C     1.47815   2.13555   0.58720
C     1.38824   3.32925  -0.37977
C     2.30171   2.52863   1.82224
N     0.13754   1.66178   0.99732
C    -0.23542   0.42871   0.26716
C    -1.26644   0.77896  -0.81616
C    -0.89996   1.00099  -2.15030
C    -1.84290   1.42943  -3.08961
C    -3.16963   1.64947  -2.70825
C    -3.54571   1.43516  -1.37828
C    -2.60232   1.00134  -0.44370
C    -0.75556  -0.66663   1.21695
C    -1.48872  -1.75816   0.72460
C    -1.88024  -2.79708   1.57325
C    -1.54566  -2.76245   2.93089
C    -0.81334  -1.68072   3.42882
C    -0.42074  -0.64422   2.57636
H     1.72045  -4.12680  -0.73445
H     2.77903  -3.43455  -1.98738
H     3.45246  -3.85317  -0.38471
H     2.86891  -1.74239   0.34522
H     3.78981   1.81157  -1.00346
H     4.15081   0.78743   0.39158
H     3.73097   0.03547  -1.16739
H     0.81195   3.06491  -1.27828
H     2.38772   3.66822  -0.69198
H     0.88722   4.17532   0.11816
H     1.79098   3.33752   2.36794
H     2.41525   1.67108   2.50310
H     3.30309   2.88930   1.54069
H    -0.56156   2.38382   0.84366
H     0.13091   0.83137  -2.46157
H    -1.53721   1.59064  -4.12642
H    -3.90628   1.98411  -3.44254
H    -4.57950   1.60367  -1.06641
H    -2.90849   0.83307   0.59106
H    -1.75189  -1.79902  -0.33253
H    -2.45231  -3.63691   1.17088
H    -1.85467  -3.57302   3.59539
H    -0.54564  -1.64159   4.48788
H     0.14961   0.20312   2.95739
