14
Generated by autodE on: 2022-05-30. E = -324.833824 Ha
C     2.91133   0.28544  -1.26094
C     1.65850   0.16210  -0.53539
C     0.60936   0.06105   0.06979
C    -0.61517  -0.05834   0.84686
O    -0.59249  -0.05673   2.08564
N    -1.75442  -0.16796   0.13325
C    -1.85151  -0.18931  -1.31633
H     3.11014   1.34144  -1.50668
H     2.87715  -0.28231  -2.20442
H     3.75464  -0.08892  -0.65907
H    -2.60481  -0.25907   0.68330
H    -2.91153  -0.25767  -1.58999
H    -1.32607  -1.05498  -1.74876
H    -1.43727   0.72664  -1.76430
