34
Generated by autodE on: 2022-05-30. E = -674.978334 Ha
C    -1.58308   3.67776   0.72577
C    -0.85411   2.60006  -0.00134
C    -0.00769   2.92189  -1.17311
N    -0.96589   1.35854   0.44336
C    -0.29637   0.18978   0.10112
C    -1.07503  -1.02587   0.25139
C    -0.47841  -2.29923   0.47082
C    -1.24850  -3.43993   0.67378
C    -2.65054  -3.37631   0.67822
C    -3.26198  -2.13711   0.46587
C    -2.49780  -0.99011   0.24377
C     1.12836   0.22824  -0.20620
C     1.99827   1.17431   0.39550
C     3.36756   1.18121   0.12822
C     3.93142   0.24789  -0.74879
C     3.09074  -0.69343  -1.35856
C     1.72203  -0.70163  -1.09869
H    -2.11270   4.33508   0.01702
H    -2.30471   3.26487   1.44794
H    -0.87780   4.31987   1.28607
H    -0.36950   3.84198  -1.65448
H    -0.01308   2.08941  -1.89572
H     1.05234   3.08168  -0.89521
H    -1.70192   1.23579   1.14585
H     0.60816  -2.38335   0.50691
H    -0.74669  -4.39619   0.84671
H    -3.24939  -4.27561   0.83853
H    -4.35287  -2.06095   0.45153
H    -3.01498  -0.05152   0.03205
H     1.59376   1.89914   1.10512
H     4.00347   1.92229   0.62032
H     5.00356   0.25598  -0.95764
H     3.50636  -1.42381  -2.05831
H     1.08791  -1.42866  -1.60900
