34
Generated by autodE on: 2022-07-27. E = -674.978334 Ha
C     2.94938   2.59567   1.06099
C     2.26968   1.29071   0.82284
C     2.84261   0.03406   1.35766
N     1.13393   1.29190   0.14315
C     0.19647   0.29408  -0.09408
C    -0.51551   0.41387  -1.35335
C     0.04011   1.14452  -2.44075
C    -0.66347   1.33718  -3.63106
C    -1.93825   0.79075  -3.80684
C    -2.50064   0.05196  -2.75435
C    -1.81443  -0.13029  -1.55794
C    -0.12850  -0.66792   0.95206
C    -0.55845  -1.98456   0.64302
C    -0.91340  -2.89016   1.64039
C    -0.84676  -2.53012   2.99338
C    -0.41632  -1.24017   3.32334
C    -0.06397  -0.32795   2.32822
H     4.02709   2.51794   0.84333
H     2.51160   3.39947   0.44855
H     2.86188   2.89672   2.12185
H     3.93054   0.14013   1.47756
H     2.61663  -0.81130   0.68712
H     2.41952  -0.23496   2.34513
H     0.92835   2.18393  -0.31778
H     1.05416   1.54280  -2.36296
H    -0.19612   1.90613  -4.43969
H    -2.48241   0.93058  -4.74354
H    -3.50046  -0.37737  -2.86461
H    -2.29795  -0.68232  -0.75137
H    -0.59415  -2.30146  -0.40071
H    -1.23330  -3.89724   1.35876
H    -1.12037  -3.24318   3.77431
H    -0.36091  -0.93404   4.37163
H     0.24288   0.67933   2.61763
