48
Generated by autodE on: 2022-05-30. E = -999.810682 Ha. Imaginary frequency = -311.3 cm-1
C     0.87271  -3.84542  -0.56471
N     1.46948  -2.53045  -0.50540
C     1.07666  -1.48005  -1.28704
O     0.21097  -1.60422  -2.18063
C     1.75781  -0.25767  -1.00507
C     2.52466   0.70467  -0.79793
C     3.75715   1.43866  -1.15126
C     1.73266   1.78102   0.93273
C     2.35018   3.15023   1.01969
C     2.21553   0.78720   1.94787
N     0.43643   1.78781   0.49488
C    -0.43168   0.75453   0.30754
C    -1.33970   0.88981  -0.84074
C    -0.92918   1.57937  -2.00667
C    -1.78988   1.74492  -3.09067
C    -3.08215   1.20934  -3.05917
C    -3.50171   0.51296  -1.92040
C    -2.64857   0.35790  -0.82810
C    -0.71576  -0.19443   1.39424
C    -1.10008  -1.52594   1.12393
C    -1.39185  -2.41304   2.15882
C    -1.31555  -1.99785   3.49417
C    -0.96227  -0.67481   3.77837
C    -0.67519   0.21716   2.74429
H     0.33278  -4.08972   0.36470
H     0.16197  -3.87349  -1.39904
H     1.63716  -4.62188  -0.73210
H     2.12943  -2.33102   0.23852
H     4.28320   0.93408  -1.97770
H     4.44550   1.49998  -0.29384
H     3.53652   2.47091  -1.46482
H     2.05632   3.78560   0.16908
H     3.44529   3.08208   1.04634
H     2.03501   3.65964   1.94878
H     1.88995   1.07257   2.96474
H     1.85909  -0.22831   1.74695
H     3.31538   0.78084   1.94292
H     0.25344   2.58598  -0.11340
H     0.09095   1.96015  -2.08020
H    -1.44010   2.27978  -3.97721
H    -3.75255   1.32927  -3.91326
H    -4.51047   0.09471  -1.87595
H    -3.01014  -0.16577   0.05689
H    -1.16575  -1.86376   0.09074
H    -1.67907  -3.44022   1.92068
H    -1.54253  -2.69554   4.30360
H    -0.92182  -0.32881   4.81431
H    -0.43101   1.25417   2.97797
