58
Generated by autodE on: 2022-12-30. E = -1450.772953 Ha
C     6.08202  -1.10366   1.41375
N     4.92606  -1.20992   0.54827
C     4.11130  -0.15598   0.31464
O     4.34056   0.97379   0.79076
C     2.93303  -0.39376  -0.51820
C     2.29348  -1.54271  -0.85929
O     2.68635  -2.78728  -0.60319
C     1.87062  -3.87362  -1.06960
C     0.92703  -1.11407  -1.40064
O     1.24559   0.14383  -1.99797
C     1.93535   0.69860  -0.85841
C     0.80357   0.65643   0.20623
C     0.12682  -0.70582  -0.12225
C    -1.36104  -0.32447  -0.32197
C    -2.08039  -0.46363   1.05071
O    -1.89407  -1.45734   1.76049
N    -2.91874   0.53485   1.34894
C    -3.70280   0.59838   2.56371
C    -2.12881  -1.19363  -1.30308
C    -2.00088  -2.59061  -1.23766
C    -2.72051  -3.41013  -2.10838
C    -3.58247  -2.84612  -3.05527
C    -3.72427  -1.45802  -3.11707
C    -3.00713  -0.63533  -2.24198
N    -1.33810   1.08984  -0.72981
N    -0.23596   1.64306  -0.04412
C    -0.35545   2.83414   0.64658
C    -1.52898   3.61769   0.56851
C    -1.62997   4.81121   1.28318
C    -0.57278   5.27212   2.07589
C     0.60244   4.51485   2.12926
C     0.72361   3.31641   1.42504
H     6.76503  -0.31180   1.06846
H     6.62146  -2.05882   1.40596
H     5.79699  -0.86917   2.45335
H     4.65320  -2.12037   0.19168
H     2.36860  -4.79152  -0.73642
H     1.80504  -3.86346  -2.16759
H     0.86391  -3.81804  -0.63055
H     0.42253  -1.77893  -2.10586
H     2.33338   1.69524  -1.07326
H     1.18847   0.73071   1.22991
H     0.23045  -1.45426   0.66847
H    -2.94707   1.30493   0.68525
H    -3.30911  -0.12738   3.28642
H    -3.64237   1.60699   2.99750
H    -4.76332   0.36345   2.37449
H    -1.33632  -3.04012  -0.49855
H    -2.60539  -4.49484  -2.04775
H    -4.14306  -3.48751  -3.73929
H    -4.40025  -1.00708  -3.84734
H    -3.14202   0.44571  -2.29274
H    -1.13455   1.12459  -1.73178
H    -2.35240   3.28505  -0.06244
H    -2.55328   5.39239   1.21159
H    -0.65818   6.20901   2.63022
H     1.44988   4.86228   2.72623
H     1.66280   2.76373   1.46672
