34
Generated by autodE on: 2022-12-30. E = -820.472848 Ha
C    -3.11057   3.52809  -0.87125
N    -2.62240   2.22962  -0.45210
C    -1.32459   1.89456  -0.57644
O    -0.48258   2.69270  -1.03789
C    -0.90050   0.55211  -0.11415
N     0.42512   0.42639  -0.14814
N     1.14855  -0.58860   0.20343
C     2.51314  -0.48280  -0.04707
C     3.32872  -1.46603   0.55686
C     4.70940  -1.46248   0.37628
C     5.31835  -0.48190  -0.41711
C     4.51980   0.48814  -1.03340
C     3.13500   0.49239  -0.86275
C    -1.78777  -0.52082   0.35474
C    -1.50248  -1.23124   1.53839
C    -2.36034  -2.23502   1.98677
C    -3.51399  -2.55657   1.26280
C    -3.80339  -1.86564   0.08276
C    -2.94886  -0.85865  -0.36994
H    -2.64400   4.34050  -0.29071
H    -2.89565   3.70847  -1.93617
H    -4.19589   3.56326  -0.71826
H    -3.27066   1.56973  -0.03733
H     0.85874   1.29471  -0.51755
H     2.84693  -2.22592   1.17567
H     5.31732  -2.23157   0.85934
H     6.40091  -0.47897  -0.56117
H     4.97915   1.24933  -1.66917
H     2.55030   1.24859  -1.39173
H    -0.60646  -0.98734   2.10835
H    -2.12770  -2.76995   2.91066
H    -4.18229  -3.34524   1.61607
H    -4.69538  -2.11619  -0.49604
H    -3.17422  -0.34143  -1.30414
