24
Generated by autodE on: 2022-12-30. E = -630.223217 Ha
C     3.26566   1.07688   1.70894
N     1.99331   0.93122   1.03520
C     1.67508  -0.19418   0.34984
O     2.47406  -1.14617   0.25043
C     0.35545  -0.23675  -0.27087
C    -0.71778   0.58698  -0.17562
O    -0.80550   1.72639   0.50329
C    -2.03028   2.47287   0.45598
C    -1.86773  -0.13590  -0.92820
C    -2.25595  -1.35191  -0.05614
C    -1.20992  -2.17854  -0.14782
C    -0.19315  -1.44604  -1.05336
O    -1.10184  -0.77494  -1.95797
H     4.10757   0.96738   1.00639
H     3.39714   0.32459   2.50487
H     3.31644   2.07518   2.16121
H     1.29688   1.66445   1.11868
H    -1.88222   3.33931   1.11110
H    -2.23521   2.81446  -0.56950
H    -2.86901   1.86700   0.82952
H    -2.67518   0.48489  -1.32806
H    -3.16997  -1.43433   0.53029
H    -1.03489  -3.13497   0.34404
H     0.54629  -2.05631  -1.58139
