50
Generated by autodE on: 2022-06-21. E = -1042.042096 Ha
C     2.94304   3.98984  -1.63767
C     2.72721   2.75425  -1.14255
C     3.80416   1.99222  -0.41607
C     1.41020   2.12635  -1.29500
C     1.07659   0.90232  -0.85165
C    -0.29023   0.30880  -0.99957
C    -0.90779  -0.12425   0.37225
C    -2.42214   0.17115   0.45052
C    -3.25784  -0.79227   1.24196
O    -2.88785   1.16704  -0.07462
C    -0.26768   0.57779   1.56996
C    -0.42217   1.96206   1.74102
C     0.20692   2.61725   2.80051
C     0.99773   1.89762   3.70350
C     1.14853   0.51819   3.53997
C     0.51561  -0.14029   2.48026
O    -0.71725  -1.53831   0.46519
C    -0.00937  -2.02591  -0.66577
C    -0.38758  -3.46171  -0.98472
C    -1.59029  -4.05539  -0.31631
O     0.29549  -4.08030  -1.78689
C    -0.30641  -1.02487  -1.81362
C     0.74715  -1.08302  -2.91727
C    -1.69786  -1.25270  -2.42215
H     3.91220   4.48583  -1.53387
H     2.15139   4.53600  -2.15985
H     3.48986   1.75081   0.61313
H     4.73810   2.56966  -0.36770
H     4.01548   1.03104  -0.91355
H     0.64601   2.72861  -1.80042
H     1.82211   0.29031  -0.33586
H    -0.95134   1.04793  -1.46898
H    -2.75592  -1.06075   2.18342
H    -3.37870  -1.72374   0.66735
H    -4.24437  -0.35318   1.43824
H    -1.02910   2.53071   1.03476
H     0.08270   3.69625   2.91895
H     1.49253   2.41109   4.53120
H     1.76253  -0.05304   4.24052
H     0.63592  -1.21551   2.34957
H     1.07720  -2.02322  -0.46338
H    -1.72890  -5.09201  -0.64921
H    -2.48324  -3.45733  -0.55724
H    -1.47088  -4.01504   0.77750
H     1.76634  -0.97729  -2.51965
H     0.58002  -0.27504  -3.64615
H     0.68813  -2.04409  -3.44876
H    -2.49532  -1.28384  -1.66654
H    -1.93327  -0.43971  -3.12494
H    -1.73098  -2.20069  -2.98092
