23
Generated by autodE on: 2022-06-21. E = -351.521382 Ha
C    -3.73282   0.13761  -0.58894
C    -2.58355  -0.07240   0.09000
C    -2.59439  -0.54676   1.52075
C    -1.29690   0.16276  -0.56222
C    -0.07790  -0.00658   0.00894
C     1.16957   0.24210  -0.68445
C     2.42385   0.10053  -0.18597
C     3.62684   0.40066  -1.03484
C     2.73579  -0.35075   1.21266
H    -3.72180   0.48264  -1.62747
H    -4.70889  -0.02976  -0.12507
H    -3.62154  -0.68406   1.88710
H    -2.08440   0.17360   2.18181
H    -2.05780  -1.50428   1.62632
H    -1.34309   0.50561  -1.60293
H    -0.02366  -0.34712   1.04650
H     1.07421   0.58106  -1.72317
H     4.24579   1.18999  -0.57142
H     4.27867  -0.48760  -1.11802
H     3.35015   0.72558  -2.04856
H     3.37143  -1.25352   1.19009
H     3.32193   0.42198   1.74104
H     1.84524  -0.57459   1.81388
