27
Generated by autodE on: 2022-06-21. E = -690.436505 Ha
C     3.88047  -0.53046  -0.07687
C     3.15541   0.79146   0.00892
O     3.75771   1.87350   0.05794
C     1.71536   0.78627   0.04160
O     1.11342  -0.37252  -0.05112
C    -0.15001  -0.72762  -0.09390
C    -0.33059  -2.16784  -0.30350
C     0.90608  -3.01454  -0.48381
O    -1.46080  -2.65800  -0.33301
C    -1.24929   0.22449   0.06565
C    -1.21663   1.22213   1.06287
C    -2.28977   2.09766   1.22195
C    -3.40767   2.00129   0.38652
C    -3.45132   1.01509  -0.60458
C    -2.38661   0.12926  -0.76357
H     3.56610  -1.09282  -0.96982
H     4.96129  -0.34371  -0.11848
H     3.64868  -1.15655   0.79941
H     1.13427   1.70552   0.11736
H     0.60148  -4.06365  -0.58657
H     1.58965  -2.90647   0.37176
H     1.45938  -2.70053  -1.38285
H    -0.36194   1.29708   1.73713
H    -2.25363   2.85801   2.00529
H    -4.24372   2.69373   0.50841
H    -4.32048   0.93728  -1.26160
H    -2.42452  -0.63511  -1.53906
