50
Generated by autodE on: 2022-06-21. E = -1041.966428 Ha. Imaginary frequency = -244.8 cm-1
C     1.45540   4.67419  -0.28535
C     1.75396   3.39702  -0.61267
C     3.16173   2.86898  -0.52786
C     0.68923   2.49051  -1.02240
C     0.85178   1.17921  -1.34924
C    -0.23281   0.32336  -1.72962
C    -1.10491  -0.21665   0.84837
C    -2.35079   0.53861   0.73415
C    -3.56217  -0.18821   0.19231
O    -2.42087   1.74147   1.01626
C     0.07812   0.20211   1.58594
C     0.34898   1.57049   1.82466
C     1.47568   1.96236   2.54899
C     2.36062   1.01224   3.06087
C     2.09316  -0.34855   2.85835
C     0.97558  -0.74884   2.13257
O    -1.24708  -1.46572   0.38013
C    -0.32750  -2.19056  -0.23736
C    -0.76244  -3.49344  -0.71237
C    -2.22168  -3.84724  -0.58863
O     0.05978  -4.26440  -1.22077
C    -0.10269  -0.96043  -2.26089
C     1.24113  -1.53825  -2.62405
C    -1.27305  -1.52460  -3.02998
H     0.42714   5.04457  -0.33724
H     2.22803   5.37481   0.04282
H     3.22210   2.03202   0.18706
H     3.50182   2.48133  -1.50235
H     3.86121   3.65184  -0.20276
H    -0.32141   2.91231  -1.05288
H     1.85357   0.74597  -1.31102
H    -1.22620   0.77960  -1.75710
H    -3.73281  -1.14361   0.70925
H    -3.42234  -0.41591  -0.87611
H    -4.43700   0.46467   0.30627
H    -0.33979   2.31924   1.45235
H     1.66485   3.02775   2.69884
H     3.24709   1.32302   3.61835
H     2.76147  -1.10659   3.27351
H     0.78563  -1.81570   2.01943
H     0.72810  -2.01455  -0.04085
H    -2.41015  -4.79173  -1.11507
H    -2.85887  -3.05056  -0.99960
H    -2.49123  -3.95974   0.47420
H     1.21478  -2.63683  -2.59237
H     1.49775  -1.24488  -3.65795
H     2.05061  -1.19585  -1.96597
H    -1.22045  -2.61829  -3.12744
H    -1.26021  -1.11455  -4.05628
H    -2.23600  -1.24919  -2.57669
