20
Generated by autodE on: 2022-06-21. E = -457.715335 Ha
C     3.14163  -0.44774   0.14340
N     1.82085   0.15901   0.11900
C     1.70104   1.54391  -0.05039
C     0.51499   2.15769  -0.18668
C    -0.80143   1.42052  -0.17303
C    -0.57158  -0.07407  -0.01559
C    -1.69740  -1.02223   0.01309
N    -2.93490  -0.48219  -0.12037
O    -1.55648  -2.25465   0.15006
C     0.68306  -0.59118   0.11094
H     3.63740  -0.37946  -0.84000
H     3.05016  -1.50659   0.41621
H     3.78101   0.05072   0.88799
H     2.64656   2.08911  -0.05974
H     0.50270   3.24329  -0.30772
H    -1.36866   1.63869  -1.10100
H    -1.44693   1.80899   0.64159
H    -3.09119   0.51165  -0.22927
H    -3.73847  -1.10052  -0.10469
H     0.82078  -1.66810   0.21962
