24
Generated by autodE on: 2022-07-27. E = -758.720645 Ha
C    -1.78398   1.93211  -2.70351
O    -0.90637   1.32801  -1.74010
C    -1.36266   0.24560  -1.09808
O    -2.44283  -0.26311  -1.31340
C    -0.39555  -0.22690  -0.07641
N     0.63773   0.55701   0.16933
N     1.62208   0.39167   0.99590
C     2.50244   1.48338   0.91019
C     3.68485   1.36679   1.81736
O     2.30497   2.43442   0.15704
C    -0.59519  -1.48643   0.68958
O    -0.21483  -1.65691   1.82925
O    -1.23237  -2.40658  -0.03073
C    -1.52084  -3.65103   0.62664
H    -1.24119   2.79645  -3.10167
H    -2.01190   1.21894  -3.50817
H    -2.71679   2.25430  -2.21928
H     0.68312   1.43590  -0.39506
H     4.33923   2.23985   1.70763
H     4.24018   0.44429   1.58413
H     3.34175   1.27914   2.86067
H    -2.06986  -4.25472  -0.10458
H    -0.58779  -4.15551   0.91615
H    -2.13682  -3.47690   1.52043
