24
Generated by autodE on: 2022-06-21. E = -758.714490 Ha
C    -1.64303   2.72263  -0.09786
O    -1.37786   1.30948  -0.05590
C    -0.14030   0.95146   0.24600
O     0.75849   1.70999   0.54428
C     0.03399  -0.53087   0.28369
N     1.03633  -1.14956  -0.30474
N     1.97107  -0.78890  -1.15033
C     1.70910   0.27265  -1.98898
C     2.90593   0.73478  -2.76761
O     0.59457   0.78443  -2.13485
C    -0.75006  -1.40782   1.19141
O    -0.54743  -2.60564   1.27563
O    -1.65148  -0.73524   1.89077
C    -2.45759  -1.49231   2.81104
H    -1.44754   3.17751   0.88343
H    -1.01063   3.19829  -0.86069
H    -2.70180   2.82099  -0.36141
H     1.10686  -2.13710  -0.00925
H     3.39003   1.54302  -2.19169
H     3.63917  -0.06909  -2.91074
H     2.58703   1.15109  -3.73285
H    -1.82048  -1.96163   3.57392
H    -3.02168  -2.26599   2.27145
H    -3.14036  -0.77045   3.27203
