44
Generated by autodE on: 2022-06-21. E = -1216.419530 Ha. Imaginary frequency = -309.0 cm-1
C    -2.86723   2.77940  -1.61386
O    -1.93941   2.17323  -0.70002
C    -2.03749   0.85338  -0.52028
O    -2.88988   0.16861  -1.04533
C    -0.92208   0.33445   0.33948
C    -1.20001  -0.82830   1.25612
O    -0.65122  -0.98341   2.32776
O    -2.14895  -1.64090   0.79780
C    -2.48046  -2.76488   1.62480
N    -0.05991   1.27934   0.81907
N     1.16805   0.80661   1.14446
C     2.11088   1.72990   1.49093
C     1.66713   3.13744   1.82594
O     3.30690   1.40867   1.53128
C     1.66624  -0.54539  -0.37262
N     2.08563  -1.71411   0.18952
C     3.31332  -1.74040   0.96828
C     1.22099  -2.81954   0.24605
C     0.15577  -2.92792  -0.55828
C    -0.16769  -1.85074  -1.55563
C     0.43763  -0.52266  -1.14050
C     0.36681   0.63853  -2.07400
N    -0.42484   0.51341  -3.16026
O     0.98906   1.68748  -1.83720
H    -2.61603   3.84559  -1.62990
H    -3.89844   2.63315  -1.26356
H    -2.74848   2.34237  -2.61522
H    -1.59060  -3.38478   1.80161
H    -3.23691  -3.33083   1.06967
H    -2.88777  -2.42326   2.58709
H    -0.07506   2.13852   0.26100
H     1.38140   3.66499   0.89874
H     0.79490   3.14441   2.49531
H     2.50441   3.67602   2.28690
H     2.45072   0.15986  -0.63748
H     3.14497  -1.37607   1.99581
H     3.69945  -2.76724   1.00758
H     4.06515  -1.09475   0.49709
H     1.50276  -3.58928   0.96589
H    -0.47574  -3.81505  -0.50200
H    -1.25842  -1.75289  -1.67365
H     0.21607  -2.13361  -2.55793
H    -0.57680   1.33276  -3.74027
H    -1.01932  -0.29330  -3.30702
