30
Generated by autodE on: 2022-06-21. E = -837.431735 Ha
C    -4.41097  -2.66031  -0.11690
N    -3.54649  -1.52189   0.12392
C    -2.21449  -1.56106  -0.02535
O    -1.58079  -2.56660  -0.38111
C    -1.46760  -0.28739   0.26088
C    -2.06041   0.92068   0.87806
N    -0.19268  -0.41177  -0.00570
C     0.86153   0.47752   0.03210
C     0.63193   1.86174  -0.34130
O    -0.36366   2.26089  -0.93949
O     1.63961   2.69222  -0.00670
C     1.52483   4.04324  -0.46229
C     2.18009  -0.11349   0.17654
O     3.25766   0.46540   0.16829
O     2.10058  -1.46567   0.32099
C     3.33760  -2.17775   0.38772
H    -5.12790  -2.44042  -0.92299
H    -4.97733  -2.91683   0.79160
H    -3.79749  -3.51952  -0.40951
H    -3.98406  -0.64731   0.39441
H    -1.31442   1.40373   1.52897
H    -2.93662   0.65730   1.48528
H    -2.35526   1.66698   0.12345
H     0.05397  -1.38580  -0.24654
H     0.64224   4.53140  -0.02274
H     1.44937   4.08443  -1.55921
H     2.43811   4.55186  -0.13044
H     3.07250  -3.23660   0.49387
H     3.92995  -1.85043   1.25497
H     3.92743  -2.02827  -0.52912
