12
Generated by autodE on: 2022-06-21. E = -381.636102 Ha
O     0.52823  -2.61337  -0.02561
C     0.28554  -1.41086  -0.01375
C     1.37638  -0.40707  -0.05168
C     1.10945   0.91054  -0.03855
C    -0.28553   1.41086   0.01419
O    -0.52824   2.61337   0.02539
C    -1.37638   0.40707   0.05163
C    -1.10945  -0.91054   0.03850
H     2.39535  -0.79904  -0.09062
H     1.89560   1.66879  -0.06618
H    -2.39537   0.79904   0.09030
H    -1.89561  -1.66879   0.06587
