46
Generated by autodE on: 2022-12-30. E = -1292.645109 Ha
C     5.72962   0.77380  -1.16424
N     4.59069   0.28709  -0.41461
C     3.51322   1.06842  -0.17433
O     3.45684   2.25167  -0.55777
C     2.40282   0.45987   0.56117
C     2.14237  -0.83309   0.88142
O     2.91454  -1.89010   0.65140
C     2.48942  -3.17482   1.13331
C     0.69826  -0.85162   1.39422
O     0.60357   0.43760   1.99529
C     1.10345   1.18783   0.87099
C     0.09492   0.79402  -0.24525
C    -0.17164  -0.69796   0.10878
C    -1.71751  -0.74979   0.29682
C    -2.11834  -1.63779   1.38674
N    -2.38754  -2.35963   2.25252
C    -2.38282  -1.15640  -1.03536
O    -1.94983  -0.79458  -2.10603
O    -3.49324  -1.85150  -0.85408
C    -4.26317  -2.16888  -2.02966
N    -2.17759   0.65094   0.50343
C    -2.45349   1.08796   1.87381
N    -1.21991   1.42762  -0.17508
C    -1.62280   2.30045  -1.15968
C    -3.10065   2.55565  -1.28012
O    -0.78631   2.85092  -1.87363
H     6.17043   1.66448  -0.68884
H     5.45252   1.04882  -2.19567
H     6.49152  -0.01444  -1.20492
H     4.56144  -0.68513  -0.12429
H     3.26899  -3.88378   0.83154
H     2.39964  -3.16505   2.22947
H     1.53150  -3.46256   0.67578
H     0.41234  -1.64828   2.08663
H     1.16537   2.25833   1.08775
H     0.51566   0.96636  -1.23996
H     0.13364  -1.40343  -0.66990
H    -5.11750  -2.75663  -1.67689
H    -4.60547  -1.24310  -2.51326
H    -3.65535  -2.75454  -2.73299
H    -2.73757   2.14765   1.83323
H    -3.31589   0.52496   2.25542
H    -1.59606   0.96477   2.55223
H    -3.25751   3.32738  -2.04370
H    -3.53292   2.88437  -0.32426
H    -3.61731   1.62986  -1.57543
