24
Generated by autodE on: 2022-12-30. E = -630.223222 Ha
C    -3.79390  -0.46324   0.36606
N    -2.43089  -0.06417   0.08839
C    -1.42275  -0.96833   0.03006
O    -1.62926  -2.18794   0.18557
C    -0.08398  -0.44870  -0.22599
C     0.40747   0.81501  -0.25570
O    -0.26945   1.95054  -0.11716
C     0.44088   3.19602  -0.18135
C     1.94881   0.66149  -0.36415
C     2.42399   0.11147   1.00027
C     1.95463  -1.13919   1.03999
C     1.18289  -1.32434  -0.28697
O     2.00533  -0.52397  -1.16850
H    -4.16194  -1.18546  -0.38051
H    -3.88913  -0.93422   1.35891
H    -4.43748   0.42489   0.33867
H    -2.20715   0.92131  -0.00414
H    -0.30377   3.97934   0.00215
H     0.88719   3.33550  -1.17717
H     1.22036   3.23843   0.59384
H     2.50816   1.49344  -0.80220
H     2.96831   0.68392   1.75007
H     2.01570  -1.87923   1.83746
H     1.04785  -2.34604  -0.65561
