22
Generated by autodE on: 2022-12-30. E = -662.331940 Ha
C    -1.95476   2.26844  -0.28783
O    -1.30048   1.07783   0.18599
C    -1.02964   0.14385  -0.71397
O    -1.42464   0.13785  -1.86001
C    -0.26550  -1.00111  -0.13626
C    -0.60075  -2.27957  -0.65057
N    -0.89381  -3.31371  -1.09865
N     0.65324  -0.91127   0.83020
C     1.14559  -2.16327   1.45055
N     1.19895   0.17510   1.31290
C     1.40258   1.26333   0.47823
C     1.79446   2.50748   1.21551
O     1.32395   1.21935  -0.74950
H    -2.05743   2.91954   0.58696
H    -1.33567   2.75175  -1.05632
H    -2.94200   2.02159  -0.70201
H     1.71778  -1.87628   2.33614
H     0.29820  -2.80460   1.71902
H     1.79654  -2.67419   0.72744
H     2.34903   2.28334   2.13569
H     0.86173   3.02804   1.49701
H     2.37234   3.16954   0.55723
