25
Generated by autodE on: 2022-06-26. E = -631.241475 Ha
C    -2.33850   3.08763   1.41401
C    -1.64187   1.93344   0.89953
N    -1.07302   1.00946   0.48485
C    -0.39473  -0.05912   0.00325
C    -1.19503  -1.18689  -0.38898
O    -0.78786  -2.25523  -0.84821
O    -2.53112  -0.96907  -0.20010
C    -3.40247  -2.03829  -0.56170
C     1.06495   0.04403  -0.06339
C     1.72092   1.22001   0.37417
C     3.10949   1.33882   0.32065
C     3.89832   0.29307  -0.17026
C     3.26533  -0.87523  -0.60722
C     1.87668  -1.00450  -0.55814
H    -1.58803   3.86212   1.64095
H    -3.04007   3.48362   0.66291
H    -2.88048   2.83578   2.33925
H    -3.18748  -2.94418   0.02577
H    -3.31425  -2.27996  -1.63213
H    -4.41971  -1.68901  -0.34402
H     1.13774   2.05641   0.76394
H     3.57881   2.26288   0.66850
H     4.98580   0.38739  -0.21134
H     3.86087  -1.70602  -0.99545
H     1.40453  -1.92111  -0.90328
