26
Generated by autodE on: 2022-06-26. E = -689.460878 Ha
C     2.94446  -1.47881  -0.81991
O     1.70603  -1.72946  -0.14747
C     0.72936  -0.82566  -0.07679
C     0.66855   0.42351  -0.61854
O     1.65677   0.94644  -1.40310
C     2.44985   1.97630  -0.80340
C    -0.54041   1.25630  -0.44012
O    -0.59988   2.35965  -0.98021
C    -1.67900   0.74659   0.38261
C    -2.86085   1.64558   0.56476
C    -1.63226  -0.49738   0.92072
C    -2.75871  -1.05879   1.73224
C    -0.43632  -1.35433   0.71679
O    -0.36605  -2.48132   1.18734
H     3.53185  -2.39710  -0.69373
H     2.78181  -1.28388  -1.88774
H     3.47858  -0.63546  -0.35970
H     3.18588   2.28433  -1.55780
H     1.83457   2.84286  -0.51916
H     2.97705   1.59215   0.08572
H    -3.06176   1.81166   1.63588
H    -3.76963   1.18379   0.14364
H    -2.70112   2.61471   0.07804
H    -2.53789  -2.07997   2.06451
H    -2.95046  -0.43218   2.61898
H    -3.69281  -1.07023   1.14697
