51
Generated by autodE on: 2022-06-26. E = -1320.713864 Ha. Imaginary frequency = -296.3 cm-1
C     0.77236   3.53990  -1.72265
O    -0.02954   2.35623  -1.59576
C    -0.63035   2.14854  -0.41840
O    -0.58214   2.93906   0.50737
C    -1.33086   0.83681  -0.38772
C    -2.35253   0.48652   0.59939
C    -2.41941   1.11137   1.86374
C    -3.36550   0.69752   2.80220
C    -4.26638  -0.32921   2.50533
C    -4.21455  -0.94770   1.25092
C    -3.26915  -0.54905   0.30998
N    -1.20853   0.10387  -1.48746
C    -0.64338  -0.81062  -2.04568
C    -0.71545  -1.47162  -3.35448
C     0.76085  -1.64930  -0.71912
C     0.53989  -3.11880  -1.01107
C     1.89617  -0.99667  -1.45667
O     2.40270  -1.51549  -2.45685
C     2.36751   0.29935  -0.97605
O     3.23616   0.98860  -1.77987
C     4.62134   0.73195  -1.53350
C     2.01950   0.77926   0.25685
O     2.59019   1.92899   0.62692
C     2.43729   2.57461   1.89764
C     1.01413   0.05079   1.10677
O     0.77670   0.44979   2.26055
C     0.41955  -1.15162   0.55676
C    -0.48161  -1.94321   1.45113
H     1.12782   3.54741  -2.75915
H     1.62403   3.49356  -1.03134
H     0.17049   4.43679  -1.51881
H    -1.72367   1.90807   2.10867
H    -3.39658   1.18638   3.77875
H    -5.00706  -0.64372   3.24395
H    -4.91682  -1.74679   1.00299
H    -3.24288  -1.03677  -0.66579
H    -1.26013  -0.84251  -4.07271
H    -1.24060  -2.43214  -3.23607
H     0.29938  -1.68325  -3.71956
H    -0.51124  -3.40784  -0.88043
H     0.85436  -3.37174  -2.02980
H     1.13981  -3.72593  -0.31292
H     4.89948   1.01127  -0.50430
H     5.19202   1.34739  -2.24242
H     4.85954  -0.33084  -1.70128
H     1.40237   2.89768   2.05555
H     2.75636   1.91861   2.71700
H     3.09736   3.45028   1.84159
H     0.03654  -2.84227   1.83116
H    -0.80595  -1.34863   2.31250
H    -1.37254  -2.29554   0.91036
