45
Generated by autodE on: 2022-05-30. E = -1204.899260 Ha. Imaginary frequency = -377.5 cm-1
C    -3.86114  -2.46655   0.68388
C    -3.49875  -1.59003  -0.47886
O    -3.82718  -1.84486  -1.62817
C    -2.65491  -0.40670  -0.15378
O    -2.52727  -0.10936   1.17790
C    -1.84364   1.09346   1.28555
O    -1.50636   1.53588   2.35969
C    -1.71483   1.56746  -0.08514
C    -1.12050   2.88279  -0.39256
C    -1.45253   3.60834  -1.66576
O    -0.32932   3.35701   0.41825
C     0.06032   0.09414  -0.42707
C     0.93621  -0.09481   0.81603
O     0.09563  -0.93295   1.61977
C    -0.09646  -1.95457   0.62673
C     1.36981  -2.27993   0.28492
C     2.03542  -1.11284   0.39805
C     3.42136  -0.76009   0.10395
C     4.40207  -1.75578  -0.09179
C     5.71831  -1.41005  -0.38899
C     6.08828  -0.06300  -0.50024
C     5.12766   0.93353  -0.30920
C     3.80770   0.59062  -0.00602
C    -0.64899  -1.11148  -0.54947
N    -2.55368   0.76944  -0.85559
C    -2.61543   0.80936  -2.31508
H    -4.37943  -3.35996   0.31449
H    -2.96317  -2.75217   1.25220
H    -4.51385  -1.90999   1.37604
H    -1.01123   4.61202  -1.61835
H    -1.02853   3.07186  -2.52894
H    -2.53949   3.68070  -1.81731
H     0.37258   0.72448  -1.25840
H     1.24708   0.80512   1.35598
H    -0.72088  -2.77347   0.99895
H     1.73465  -3.24742  -0.05713
H     4.12565  -2.80832   0.00015
H     6.46455  -2.19520  -0.53269
H     7.12149   0.20549  -0.73233
H     5.40566   1.98669  -0.39487
H     3.06869   1.38156   0.13547
H    -0.89588  -1.56833  -1.50928
H    -3.11148   1.72849  -2.64275
H    -1.60167   0.76664  -2.74048
H    -3.19096  -0.05201  -2.65766
