18
Generated by autodE on: 2022-06-22. E = -235.968088 Ha
C     1.60853  -0.10649   1.13379
C     0.65319   0.17842  -0.00008
C     1.33107   0.91033  -1.13343
C    -0.65309  -0.17864  -0.00014
C    -1.61293   0.12169  -1.12627
C    -1.32673  -0.92542   1.12601
H     2.43628  -0.75239   0.78913
H     1.14630  -0.58784   2.00390
H     2.08014   0.83082   1.47935
H     1.71192   1.88879  -0.78880
H     0.68949   1.08729  -2.00496
H     2.21606   0.34521  -1.47659
H    -1.18086   0.71221  -1.94304
H    -2.49095   0.67120  -0.74221
H    -2.00797  -0.81573  -1.55794
H    -2.14330  -0.31905   1.55808
H    -1.80350  -1.84489   0.74182
H    -0.65435  -1.21441   1.94269
