27
Generated by autodE on: 2022-06-22. E = -910.177700 Ha
C    -2.06600  -3.12572   0.88724
N    -1.70750  -1.72732   1.01328
C    -0.91759  -1.12942   0.11217
O    -0.39246  -1.71666  -0.84515
C    -0.73760   0.34187   0.25347
O     0.17348   0.96142  -0.44878
C     1.27330   0.52518  -1.02211
C     1.86163   1.42600  -1.93709
N     2.35312   2.14636  -2.71183
C     2.01011  -0.70228  -0.65064
O     2.79293  -1.24545  -1.40384
O     1.80218  -1.03799   0.61743
C     2.39562  -2.26447   1.07463
C    -1.72647   1.23868   0.88020
O    -2.62494   0.83257   1.60351
O    -1.51109   2.52176   0.60891
C    -2.41249   3.46621   1.20994
H    -2.79448  -3.28948   0.07553
H    -2.50646  -3.46582   1.83221
H    -1.17089  -3.72484   0.66783
H    -2.22032  -1.12201   1.65451
H     2.06695  -2.38540   2.11259
H     3.49142  -2.20154   1.02276
H     2.03908  -3.10288   0.45982
H    -3.44116   3.28367   0.86775
H    -2.36951   3.38927   2.30575
H    -2.07077   4.45424   0.88223
