45
Generated by autodE on: 2022-06-22. E = -1146.152569 Ha. Imaginary frequency = -179.0 cm-1
C    -3.65945   2.40564  -1.41769
N    -2.51793   1.85023  -0.71900
C    -2.37715   0.52743  -0.54112
O    -3.24285  -0.31172  -0.82640
C    -1.08728   0.06635   0.05259
C    -1.21787  -1.22409   0.84166
O    -1.17723  -2.34737   0.40215
O    -1.54983  -0.90679   2.09266
C    -1.71789  -2.00357   3.00707
O    -0.27902   1.03248   0.40460
C     1.01851   1.02913   0.74100
C     1.64064   2.28081   0.55372
N     2.16003   3.30976   0.36835
C     1.69670  -0.07183   1.39015
O     1.18075  -1.12555   1.73372
O     3.00368   0.19974   1.55523
C     3.79181  -0.81058   2.20014
C     1.38952  -0.52627  -1.65839
C     2.42152   0.52769  -1.95781
C     1.94038  -1.83888  -1.18193
C     0.08646  -0.42066  -2.13477
C    -0.34144   0.83724  -2.85201
C    -0.70779  -1.64758  -2.51225
H    -3.56633   2.27752  -2.50987
H    -3.73331   3.47685  -1.19259
H    -4.58055   1.90469  -1.09040
H    -1.71534   2.44518  -0.53717
H    -1.97671  -1.55297   3.97171
H    -2.52444  -2.66687   2.66446
H    -0.77920  -2.56944   3.08735
H     3.77248  -1.74447   1.62099
H     4.81202  -0.41243   2.24190
H     3.41672  -1.00037   3.21625
H     2.01295   1.53960  -2.05732
H     3.22295   0.54061  -1.20612
H     2.89277   0.27160  -2.92709
H     2.21052  -2.46158  -2.05547
H     1.22193  -2.40778  -0.57943
H     2.85836  -1.69419  -0.59574
H    -1.41774   0.82507  -3.07178
H    -0.10890   1.75060  -2.28695
H     0.18646   0.91017  -3.81969
H    -0.41101  -2.54889  -1.96971
H    -0.54118  -1.82695  -3.59096
H    -1.78692  -1.49470  -2.37506
