31
Generated by autodE on: 2022-10-06. E = -967.886905 Ha
C    -0.81559  -2.16034  -0.94702
N    -0.40141  -0.79001  -1.26817
C    -1.50960   0.15808  -1.41773
C    -1.13920   1.18452  -2.40183
N    -0.83867   1.99990  -3.17214
C    -1.76011   0.77556  -0.02064
C    -2.94821   0.12780   0.74224
O    -3.21960   0.66020   1.84700
O    -3.56522  -0.82442   0.20069
C    -0.36484   0.65353   0.65843
C    -0.39588   0.13063   2.12329
O    -0.62982  -1.09220   2.29136
O    -0.15456   0.97928   3.01975
N     0.38440  -0.22523  -0.23976
C     1.75717  -0.20946  -0.34257
C     2.42499  -0.84556  -1.41587
C     3.81656  -0.82203  -1.49494
C     4.58864  -0.18109  -0.51806
C     3.93257   0.43769   0.55167
C     2.54077   0.42757   0.65138
H     0.08788  -2.78128  -0.86369
H    -1.38787  -2.23084  -0.01000
H    -1.42335  -2.54952  -1.77654
H    -2.41291  -0.35805  -1.76768
H    -2.01565   1.84034  -0.10464
H     0.12009   1.64156   0.67506
H     1.83695  -1.34742  -2.18265
H     4.30558  -1.31632  -2.33903
H     5.67855  -0.17082  -0.58583
H     4.51208   0.93827   1.33223
H     2.06053   0.90035   1.50805
