21
Generated by autodE on: 2022-10-13. E = -512.784205 Ha
C    -2.93466  -1.79926   0.51858
N    -1.74122  -1.01087   0.13353
C    -1.82709  -0.36828  -1.04755
C    -0.87294   0.49893  -1.60793
N    -0.18776   1.23806  -2.20304
N    -0.81192  -1.03200   1.02745
C     0.34640  -0.26799   0.75515
C     1.42532  -0.84921   0.07032
C     2.57676  -0.09966  -0.17362
C     2.66582   1.22296   0.27394
C     1.60296   1.78927   0.98607
C     0.44738   1.04731   1.23436
H    -2.58902  -2.67598   1.07487
H    -3.56657  -1.17253   1.16172
H    -3.48665  -2.09963  -0.37721
H    -2.74115  -0.53526  -1.61362
H     1.34203  -1.87953  -0.28125
H     3.40939  -0.55057  -0.71876
H     3.56726   1.80791   0.07782
H     1.67316   2.81751   1.34884
H    -0.39165   1.48169   1.78145
