10
Generated by autodE on: 2022-10-06. E = -455.045385 Ha
O     1.43607  -0.97212   0.70096
C     1.56489  -0.03720  -0.13161
O     2.41464   0.01812  -1.06312
C     0.66282   1.17541  -0.00693
C    -0.67718   1.17154   0.07876
C    -1.56768  -0.05349   0.12497
O    -1.33613  -1.00116  -0.67129
O    -2.50065  -0.00738   0.97480
H     1.18821   2.13880  -0.03170
H    -1.20494   2.12746   0.18595
