43
Generated by autodE on: 2022-06-18. E = -904.384040 Ha
C    -0.57425  -1.87494  -2.63287
C    -0.37308  -2.39419  -1.41300
C    -0.39806  -3.87719  -1.16246
C    -0.11262  -1.54441  -0.18432
C     0.69135  -0.24577  -0.45515
C     1.74953   0.03521   0.58396
C     3.01358   0.44524   0.37158
C     3.61649   0.69832  -0.98295
C     3.93898   0.70735   1.52988
C    -0.39775   0.79937  -0.35395
C    -0.14352   2.20221  -0.81354
O     0.84674   2.51124  -1.44821
O    -1.10248   3.05663  -0.46750
C    -0.93274   4.41774  -0.89293
N    -1.50442   0.43214   0.16480
C    -1.42884  -0.99676   0.50406
C    -2.74096  -1.67532   0.08705
C    -1.34374  -1.18658   2.03540
C    -1.73214  -0.04079   2.92029
O    -0.99783  -2.26713   2.47961
H    -0.77765  -2.52057  -3.49254
H    -0.55168  -0.79797  -2.82143
H     0.60199  -4.22550  -0.84886
H    -1.08115  -4.12862  -0.33442
H    -0.70088  -4.44364  -2.05509
H     0.41504  -2.17213   0.54378
H     1.13301  -0.24285  -1.45800
H     1.41689  -0.09444   1.62097
H     2.97827   0.37626  -1.81559
H     4.58904   0.18490  -1.07072
H     3.81941   1.77593  -1.11194
H     4.83326   0.06226   1.47085
H     3.44851   0.53576   2.49939
H     4.30730   1.74828   1.50486
H    -0.88445   4.47299  -1.99005
H    -0.01229   4.84044  -0.46491
H    -1.80943   4.96081  -0.52231
H    -2.90509  -1.55113  -0.99150
H    -2.71375  -2.74713   0.32221
H    -3.58591  -1.22082   0.62551
H    -1.74255  -0.36293   3.96961
H    -2.71492   0.35801   2.62722
H    -1.00773   0.77890   2.78694
