43
Generated by autodE on: 2022-06-18. E = -904.305224 Ha. Imaginary frequency = -334.8 cm-1
C    -0.62879  -2.05487  -2.56634
C    -0.32563  -2.55074  -1.34219
C    -0.75505  -3.93911  -0.93689
C     0.37873  -1.79371  -0.31951
C     1.02532  -0.56825  -0.53026
C     2.00640  -0.07523   0.44497
C     2.91340   0.90896   0.25551
C     3.06280   1.69047  -1.02050
C     3.85348   1.31072   1.35711
C    -0.53599   0.84310  -0.25791
C    -0.12112   2.25920  -0.23767
O     0.34609   2.78355   0.75266
O    -0.23914   2.82126  -1.43370
C     0.19430   4.19018  -1.55018
N    -1.54193   0.29470   0.16073
C    -2.03466  -0.87350   0.53911
C    -3.16047  -1.46053  -0.24337
C    -1.62219  -1.44374   1.83003
C    -0.73432  -0.65207   2.76105
O    -2.04248  -2.55536   2.17462
H    -1.16479  -2.66295  -3.29954
H    -0.35525  -1.03987  -2.86632
H     0.12184  -4.56909  -0.70924
H    -1.35940  -3.90012  -0.01647
H    -1.34298  -4.43288  -1.72368
H     0.55282  -2.30202   0.63190
H     1.16170  -0.25044  -1.56678
H     1.97712  -0.56428   1.42414
H     2.28790   1.47316  -1.76675
H     4.04715   1.49072  -1.48032
H     3.03695   2.77234  -0.80703
H     4.90400   1.25900   1.02030
H     3.74099   0.67814   2.24996
H     3.67405   2.36063   1.65081
H     1.27151   4.26102  -1.34414
H    -0.36239   4.82743  -0.84921
H    -0.01729   4.48208  -2.58452
H    -2.84251  -1.64796  -1.28509
H    -3.48149  -2.40210   0.21622
H    -4.01664  -0.76758  -0.27378
H     0.06368  -1.30687   3.14012
H    -1.34939  -0.35317   3.62653
H    -0.29635   0.25062   2.32348
