35
Generated by autodE on: 2022-10-22. E = -767.257954 Ha
C     2.19726  -1.93539  -1.75487
C     1.28241  -1.30466  -0.75146
C     1.61608   0.01687  -0.19874
C     2.13020   1.02480  -1.03470
C     2.46547   2.27804  -0.51682
C     2.30985   2.53799   0.84593
C     1.81445   1.53491   1.69096
C     1.45850   0.29278   1.17525
N     0.19030  -1.95621  -0.36979
C     0.04613  -3.37790  -0.73424
C    -0.90813  -1.35226   0.28235
C    -1.51132  -2.09074   1.30773
N    -2.04012  -2.69616   2.16627
C    -1.37852  -0.00574  -0.01474
C    -2.14645   0.70324   0.94012
C    -2.65383   1.97320   0.66650
C    -2.40504   2.59151  -0.56363
C    -1.64438   1.90596  -1.51913
C    -1.13638   0.63613  -1.25358
H     2.95815  -1.22129  -2.08719
H     1.64806  -2.30873  -2.63340
H     2.72617  -2.79636  -1.31173
H     2.24656   0.83588  -2.10310
H     2.84830   3.05315  -1.18446
H     2.57338   3.51676   1.25321
H     1.70222   1.72696   2.76041
H     1.06096  -0.47461   1.84053
H    -0.76638  -3.81282  -0.14446
H     0.97465  -3.92448  -0.53314
H    -0.20601  -3.45995  -1.80111
H    -2.34101   0.24676   1.91320
H    -3.24025   2.49003   1.43084
H    -2.79244   3.59085  -0.77390
H    -1.44014   2.36821  -2.48854
H    -0.55330   0.13116  -2.02494
