13
Generated by autodE on: 2022-06-17. E = -453.064698 Ha
C    -2.59045  -1.00305   0.50521
C    -1.26593  -0.40842   0.20412
N    -0.06859  -0.94438   0.55003
C     0.94213  -0.17814   0.13241
C     2.31337  -0.39804   0.29651
N     3.45907  -0.58051   0.43151
O     0.43826   0.89050  -0.50433
C    -0.98351   0.80040  -0.49263
O    -1.66439   1.66800  -1.01619
H    -2.71879  -1.18485   1.58461
H    -3.37362  -0.30756   0.17440
H    -2.73721  -1.96229  -0.01883
H     0.05682  -1.81960   1.06251
