36
Generated by autodE on: 2022-06-17. E = -804.568972 Ha. Imaginary frequency = -416.3 cm-1
C     5.04025   0.09925   0.69260
C     3.95207   0.35376  -0.06524
C     3.99800   1.34179  -1.20183
C     2.69239  -0.33629   0.21253
C     1.54487  -0.18742  -0.48953
C     0.29919  -0.87675  -0.16132
C    -0.69718   0.55457   1.03180
C     0.25285   1.08438   1.94842
N     1.10885   1.44811   2.64726
N    -1.28444   1.31395   0.04450
C    -2.24810   0.49984  -0.50962
C    -3.11090   0.89291  -1.65086
C    -2.66094  -0.38765   0.55184
O    -3.60456  -1.14192   0.67849
O    -1.68105  -0.26942   1.54463
C    -0.71188  -1.13574  -1.14033
C    -1.45234  -2.44725  -1.06297
C    -0.53536  -0.60376  -2.54322
H     4.99947  -0.61895   1.51733
H     5.99399   0.60212   0.50981
H     3.26513   2.15201  -1.05164
H     3.74054   0.85844  -2.15896
H     4.99626   1.79114  -1.29933
H     2.70241  -1.03220   1.05932
H     1.52504   0.50190  -1.33718
H     0.37972  -1.61121   0.64657
H    -0.71277   1.93230  -0.53096
H    -3.92364   1.55790  -1.31267
H    -3.57134  -0.00189  -2.09242
H    -2.53474   1.41675  -2.42527
H    -0.89729  -3.21305  -1.63561
H    -2.45742  -2.37982  -1.50720
H    -1.55023  -2.81239  -0.03085
H    -1.44245  -0.75791  -3.14401
H     0.28615  -1.14660  -3.04542
H    -0.27941   0.46543  -2.57102
