41
Generated by autodE on: 2022-10-21. E = -1491.236774 Ha
C    -0.85889   2.15651   3.46773
N    -1.13887   1.14656   2.46795
C    -1.21714   1.42088   1.16204
O    -1.14688   2.55653   0.67695
C    -1.30353   0.20341   0.23518
C    -2.34480   0.45288  -0.86832
O    -2.24221   0.03505  -2.00435
O    -3.43192   1.06866  -0.40721
C    -4.53418   1.21588  -1.31644
C     0.08283  -0.03142  -0.41572
C     1.31674   0.29585   0.48751
O     1.42149  -0.86130   1.31896
C     1.54101  -1.81749   0.25242
C     2.67234  -1.20096  -0.55836
Cl    3.65113  -2.07300  -1.68449
C     2.52328   0.13213  -0.44036
O     3.11003   1.10165  -1.15504
C     2.91654   2.44919  -0.70958
C     0.22280  -1.58071  -0.54295
C    -1.03905  -2.14607   0.11029
N    -1.59845  -1.06120   0.92105
C    -2.96816  -1.30754   1.34743
H    -1.19717   1.80203   4.44997
H    -1.39137   3.08449   3.21889
H     0.21952   2.38300   3.52639
H    -1.09394   0.15790   2.70588
H    -4.88552   0.22976  -1.65195
H    -4.23260   1.81482  -2.18745
H    -5.32178   1.73061  -0.75478
H     0.15028   0.50913  -1.36462
H     1.27199   1.21244   1.08175
H     1.69557  -2.83345   0.63343
H     3.45945   3.08762  -1.41740
H     3.32696   2.59133   0.30257
H     1.84929   2.72163  -0.71760
H     0.32922  -1.92420  -1.57836
H    -0.83541  -3.02410   0.74397
H    -1.75742  -2.46506  -0.67048
H    -2.98465  -2.20255   1.98773
H    -3.66155  -1.49006   0.50156
H    -3.35199  -0.46216   1.93297
