24
Generated by autodE on: 2022-10-21. E = -609.421289 Ha
C    -0.04885   2.54140   0.75645
N    -0.59215   1.57188   0.09288
C    -1.72729   1.88203  -0.80624
C    -0.01259   0.27611   0.08901
C     1.44728   0.23203  -0.06475
O     2.15471   1.26463  -0.09958
N     2.01367  -0.99340  -0.18733
C     3.42980  -1.14826  -0.42656
C    -0.84336  -0.88265   0.10886
O    -0.46499  -2.05681  -0.03538
O    -2.15733  -0.61743   0.34819
C    -3.05121  -1.72917   0.31718
H    -0.38426   3.56448   0.57638
H     0.72305   2.32742   1.49155
H    -2.67166   1.69805  -0.28339
H    -1.66489   2.93744  -1.09680
H    -1.66665   1.24129  -1.69215
H     1.37746  -1.78841  -0.23327
H     4.02245  -0.59582   0.31959
H     3.68830  -2.21313  -0.35747
H     3.73371  -0.78350  -1.42402
H    -2.80473  -2.45852   1.10350
H    -3.02442  -2.23504  -0.65995
H    -4.05267  -1.31739   0.49445
