17
Generated by autodE on: 2022-10-21. E = -881.716875 Ha
C     2.70336  -0.91221   0.22139
O     1.47395  -1.47422  -0.24779
C     0.40514  -0.67822  -0.32844
C     0.11497   0.61228  -0.07563
Cl    1.03039   1.92131   0.59379
C    -1.41459   0.71359  -0.28504
C    -2.09897  -0.09083   0.84675
C    -1.80552  -1.36743   0.58235
C    -0.95529  -1.31170  -0.70827
O    -1.57354  -0.20360  -1.38448
H     3.44309  -1.72192   0.18963
H     3.02926  -0.08782  -0.43071
H     2.59669  -0.54806   1.25410
H    -1.80293   1.71308  -0.50919
H    -2.64006   0.34286   1.68704
H    -2.03549  -2.27179   1.14427
H    -0.89768  -2.21365  -1.32759
