41
Generated by autodE on: 2022-10-21. E = -1491.133033 Ha. Imaginary frequency = -270.0 cm-1
C    -0.93195   1.95693   3.48199
N    -0.97508   1.12583   2.29686
C    -2.11346   0.94840   1.60024
O    -3.14727   1.57980   1.86724
C    -2.06534  -0.05322   0.48169
C    -2.59299   0.33961  -0.80375
O    -2.99147  -0.39230  -1.71159
O    -2.61038   1.69464  -0.94505
C    -3.12925   2.19866  -2.17401
C     0.19920  -0.13462  -1.14726
C     1.13311   0.55744  -0.14712
O     1.08285  -0.37955   0.94628
C     1.46742  -1.53509   0.16775
C     2.79167  -1.00508  -0.40773
Cl    4.09194  -2.00779  -0.94271
C     2.58627   0.30579  -0.63491
O     3.36620   1.16415  -1.30447
C     3.02618   2.55285  -1.24696
C     0.41131  -1.47887  -0.96448
C    -1.53027  -2.28300  -0.16287
N    -1.81776  -1.37841   0.77748
C    -1.57650  -1.78618   2.17493
H    -1.60566   1.57516   4.26783
H    -1.23541   2.99047   3.25333
H     0.09391   1.96791   3.87123
H    -0.16314   0.56508   2.04329
H    -4.17166   1.88051  -2.32750
H    -2.52358   1.86083  -3.02900
H    -3.08319   3.29216  -2.09677
H    -0.25063   0.36337  -2.00331
H     0.88162   1.57324   0.16953
H     1.52058  -2.44418   0.77560
H     3.79899   3.08208  -1.81814
H     3.02526   2.91675  -0.20746
H     2.04317   2.73934  -1.70728
H     0.33578  -2.25843  -1.72125
H    -1.31955  -3.29584   0.18009
H    -1.93370  -2.13357  -1.15596
H    -0.54532  -1.56568   2.47597
H    -1.75176  -2.86450   2.24972
H    -2.27779  -1.27098   2.84079
