51
Generated by autodE on: 2022-10-22. E = -1552.619126 Ha
C    -0.67545  -5.27388  10.59748
N    -1.39981  -4.05979  10.26522
C    -1.27033  -3.48477   9.06734
O    -0.50306  -3.87335   8.19038
C    -2.04537  -2.14965   8.86317
C    -3.33300  -2.07500   9.58320
N    -4.32047  -1.95286  10.17828
O    -1.19825  -1.13987   9.42987
C    -0.88049  -0.14613   8.47409
C    -1.41363   1.15447   8.93935
N    -1.86238   2.14343   9.34154
C     0.66908  -0.06010   8.39104
O     1.30670   0.89677   8.75795
O     1.15521  -1.18836   7.91633
C     2.58645  -1.29312   7.79610
C    -1.53659  -0.61780   7.18039
C    -2.20396  -1.76268   7.38873
C    -2.99800  -2.55849   6.35568
O    -3.89627  -1.72742   5.63750
C    -4.79515  -0.94329   6.41629
C    -3.81958  -3.73375   6.95057
C    -4.93659  -4.26159   6.09832
O    -3.54589  -4.22780   8.02748
C    -2.04445  -3.26404   5.32741
C    -0.67709  -2.64632   5.01798
C    -0.65780  -1.38658   4.14759
C    -1.57907  -0.24332   4.57045
C    -1.37949   0.28077   5.96865
F    -0.10882   0.82853   6.06002
F    -2.23234   1.35022   6.16471
H     0.40794  -5.12671  10.47446
H    -0.98543  -6.10902   9.94934
H    -0.88458  -5.53550  11.64127
H    -2.07432  -3.69564  10.93088
H     2.95581  -0.53796   7.08849
H     3.05805  -1.15049   8.77804
H     2.77786  -2.30316   7.41880
H    -5.26081  -1.52887   7.22645
H    -5.58026  -0.59556   5.73174
H    -4.29244  -0.06871   6.85768
H    -5.21901  -5.25967   6.45682
H    -4.66605  -4.29034   5.03444
H    -5.80635  -3.59135   6.19408
H    -1.85780  -4.27792   5.71036
H    -2.63727  -3.37296   4.40645
H    -0.10355  -3.42207   4.48604
H    -0.12977  -2.47513   5.95429
H     0.37949  -1.01880   4.09701
H    -0.94397  -1.65488   3.11793
H    -1.41774   0.62852   3.91796
H    -2.62936  -0.53688   4.48151
