22
Generated by autodE on: 2022-10-26. E = -774.476913 Ha
C    -1.73645  -4.19513   1.08853
N    -1.82113  -2.76120   0.88643
C    -0.73861  -2.04910   0.53287
O     0.38183  -2.52619   0.35719
C    -0.96088  -0.58049   0.34893
C    -2.19739   0.06944   0.56339
N    -3.25113   0.52664   0.76521
O     0.10641   0.05394  -0.02849
C     0.41305   1.29145  -0.31995
C    -0.52045   2.35069  -0.27851
N    -1.26503   3.24736  -0.25697
C     1.80635   1.56210  -0.71193
O     2.18353   2.68300  -1.00010
O     2.56069   0.46954  -0.70993
C     3.93827   0.63979  -1.08548
H    -1.00021  -4.43852   1.87016
H    -1.43233  -4.70799   0.16232
H    -2.72089  -4.56615   1.39564
H    -2.72102  -2.30462   1.00242
H     4.00802   1.03094  -2.11044
H     4.43977   1.32944  -0.39174
H     4.38852  -0.35716  -1.02549
