22
Generated by autodE on: 2022-10-22. E = -774.478096 Ha
C     3.14799  -2.35448   1.01303
N     2.07925  -1.44576   0.64379
C     2.33318  -0.16820   0.32647
O     3.45448   0.34973   0.31786
C     1.15409   0.66173  -0.04280
C     1.33876   2.02111  -0.38996
N     1.51971   3.13851  -0.66521
O    -0.00605   0.08586  -0.02671
C    -1.24636   0.41284  -0.28587
C    -1.62629   1.69422  -0.73962
N    -1.96969   2.74095  -1.12087
C    -2.26184  -0.63218  -0.08240
O    -3.44338  -0.42850  -0.29027
O    -1.73928  -1.77767   0.34394
C    -2.66154  -2.85600   0.58044
H     2.71256  -3.33418   1.24092
H     3.68996  -1.98826   1.89884
H     3.87344  -2.46702   0.19201
H     1.12167  -1.78453   0.62123
H    -3.38528  -2.57213   1.35755
H    -2.05145  -3.70152   0.91626
H    -3.19475  -3.11061  -0.34640
