29
Generated by autodE on: 2022-10-22. E = -778.006347 Ha
C    -0.17387   3.14892   0.33555
O    -0.36797   2.53512  -0.92966
C    -0.41295   1.11905  -0.94594
C    -0.07055   0.71976  -2.41480
C     1.07713   1.45024  -3.04559
O    -0.71669  -0.12997  -2.99124
C     0.56610   0.45699  -0.07566
C     1.06975  -0.34717   0.67967
C     0.98317  -1.42097   1.67305
F     0.99125  -0.86874   2.93399
F     2.06494  -2.25946   1.63505
C    -0.30143  -2.21344   1.46012
C    -1.57326  -1.36265   1.27919
C    -1.92926  -0.90862  -0.16518
C    -1.80707   0.59030  -0.50906
H    -0.93571   2.83916   1.07092
H    -0.25710   4.23239   0.17475
H     0.82596   2.92146   0.74412
H     1.38875   0.93392  -3.96276
H     0.74862   2.47205  -3.29339
H     1.91941   1.54481  -2.34388
H    -0.39331  -2.86935   2.34054
H    -0.14047  -2.85763   0.58200
H    -2.40640  -1.97813   1.64920
H    -1.52922  -0.49380   1.95700
H    -2.98501  -1.16751  -0.33765
H    -1.36139  -1.50350  -0.89624
H    -2.49498   0.83847  -1.33098
H    -2.11631   1.18735   0.36225
