19
Generated by autodE on: 2022-06-25. E = -721.999878 Ha
C    -3.78932   0.67585  -1.25729
O    -2.40619   0.61969  -0.87907
C    -2.00649  -0.49503  -0.25349
O    -2.73477  -1.43895   0.00828
C    -0.60175  -0.46832   0.08615
O     0.19466   0.61996  -0.23711
C     1.39708   0.38157   0.16706
C     2.49948   1.38432  -0.05339
C     3.85064   0.98123   0.42751
O     2.20696   2.42688  -0.59940
O     1.53246  -0.75886   0.74187
C     0.16865  -1.44189   0.73723
O     0.05794  -2.52922   1.22763
H    -4.03021  -0.13478  -1.96021
H    -4.43590   0.59541  -0.37153
H    -3.92892   1.64963  -1.74049
H     4.56681   1.78949   0.23770
H     3.80825   0.74730   1.50404
H     4.16553   0.05921  -0.08918
