45
Generated by autodE on: 2022-06-25. E = -1411.458552 Ha. Imaginary frequency = -353.6 cm-1
C     4.36524   1.42015   1.06771
O     3.39846   0.41894   0.71000
C     2.22979   0.46349   1.35150
O     1.94911   1.25520   2.23207
C     1.29515  -0.52177   0.82409
O     0.06009  -0.60912   1.40850
C    -0.62153  -1.48249   0.65819
C    -1.92429  -1.99650   1.22980
C    -2.45487  -3.26007   0.64993
O    -2.46080  -1.32109   2.08375
O     0.22965  -2.32396   0.03551
C     1.50622  -1.69856   0.02860
O     2.43066  -2.16576  -0.58392
C    -1.14937  -0.30589  -0.97970
O    -1.58232  -1.30077  -1.81536
C    -2.12946  -0.87313  -3.07252
C    -2.19778   0.52376  -0.31419
O    -3.37448   0.19919  -0.40134
C    -1.74948   1.68267   0.49711
C    -2.71740   2.23937   1.49094
C    -0.51511   2.22179   0.30245
C    -0.06419   3.43727   1.05091
C     0.41573   1.67321  -0.72069
O     1.39422   2.30915  -1.09532
C     0.09575   0.33002  -1.30004
O     0.75511  -0.20605  -2.30405
C     2.07727   0.19569  -2.72242
H     5.25004   1.21131   0.45635
H     3.97150   2.42105   0.84063
H     4.61296   1.35131   2.13608
H    -2.63133  -3.09450  -0.42567
H    -3.38685  -3.53989   1.15550
H    -1.70503  -4.06214   0.73439
H    -3.05682  -0.30175  -2.91920
H    -1.40408  -0.26487  -3.63326
H    -2.35138  -1.78813  -3.63629
H    -3.68292   1.72369   1.43193
H    -2.87518   3.31781   1.33052
H    -2.31522   2.12317   2.51134
H     0.98419   3.67317   0.83863
H    -0.68214   4.30861   0.77494
H    -0.18746   3.28742   2.13401
H     2.41475  -0.61259  -3.38130
H     2.02730   1.14285  -3.27229
H     2.74013   0.28888  -1.85580
