53
Generated by autodE on: 2022-06-11. E = -4678.677637 Ha
C    -5.53392   3.27879  -5.06409
N    -4.19104   2.79951  -4.80983
C    -3.77863   1.59967  -5.23731
O    -4.52248   0.77650  -5.77396
C    -2.26076   1.30649  -4.99512
C    -2.04196   0.64595  -3.59932
C    -3.22547   0.50465  -2.68769
O    -0.92435   0.32458  -3.25740
C    -1.73698   0.51490  -6.22717
C    -1.41408   1.47752  -7.13498
N    -1.47185   2.75854  -6.54888
C    -2.25021   3.83679  -7.07150
C    -3.35859   3.61405  -7.89713
C    -4.08401   4.69838  -8.39747
C    -3.72727   6.00429  -8.05402
C    -2.63225   6.22206  -7.20838
C    -1.88787   5.14599  -6.72673
N    -1.54352   2.59868  -5.11504
C    -0.18729   2.69970  -4.57043
C    -0.95230   1.38688  -8.57439
Br    0.93469   0.57509  -8.57205
C    -0.62975   2.70230  -9.13874
N    -0.35871   3.69670  -9.67128
C    -1.90878   0.64774  -9.57604
C    -3.11852  -0.09165  -8.99407
C    -2.84811  -1.50155  -8.46469
C    -1.57893  -1.67361  -7.63660
C    -1.53005  -0.96533  -6.28553
Cl    0.14971  -1.35786  -5.58437
Cl   -2.72731  -1.80443  -5.18820
H    -5.66695   4.24736  -4.56665
H    -5.71499   3.40595  -6.14453
H    -6.27896   2.57069  -4.67218
H    -3.45895   3.45269  -4.54249
H    -3.52425   1.50925  -2.34709
H    -2.94418  -0.10502  -1.82007
H    -4.08899   0.06477  -3.20377
H    -3.67348   2.59807  -8.13096
H    -4.94514   4.51391  -9.04356
H    -4.30119   6.85040  -8.43809
H    -2.34685   7.24006  -6.93349
H    -1.02037   5.31124  -6.08636
H     0.48716   1.90516  -4.93348
H     0.20881   3.67639  -4.87725
H    -0.22211   2.67260  -3.47553
H    -1.30754  -0.01838 -10.21019
H    -2.28977   1.43567 -10.24007
H    -3.85337  -0.17045  -9.81020
H    -3.60033   0.52133  -8.22127
H    -2.74241  -2.18691  -9.32125
H    -3.72090  -1.84970  -7.89075
H    -0.70492  -1.34722  -8.21298
H    -1.41503  -2.74002  -7.42976
