32
Generated by autodE on: 2022-06-11. E = -781.339427 Ha
C     4.93625   1.10736   0.02590
N     3.78809   0.24257  -0.12804
C     2.53497   0.74420  -0.12190
O     2.33182   1.97371  -0.07910
C     1.42394  -0.23886  -0.14306
C     1.60904  -1.67455  -0.06769
C     0.47183  -2.64136  -0.33157
O     2.73962  -2.17434   0.11810
N     0.13936   0.29222  -0.21917
C    -0.11728   1.41177  -1.15981
N    -0.78619  -0.30019   0.42583
C    -2.14165   0.01757   0.31931
C    -3.01342  -1.09243   0.37128
C    -4.39225  -0.90824   0.33766
C    -4.92835   0.38492   0.30385
C    -4.07186   1.48993   0.30567
C    -2.68752   1.31924   0.30586
H     4.91520   1.65920   0.98174
H     5.84753   0.49658  -0.00417
H     4.98813   1.85288  -0.78336
H     3.86102  -0.77235  -0.02687
H    -0.31142  -2.24002  -0.98650
H     0.91859  -3.53610  -0.78853
H    -0.00370  -2.94090   0.61400
H    -0.18697   2.36118  -0.62215
H    -1.06375   1.19465  -1.67203
H     0.70079   1.45271  -1.88040
H    -2.58368  -2.09393   0.42253
H    -5.05392  -1.77707   0.35224
H    -6.01063   0.53077   0.29308
H    -4.48312   2.50176   0.30972
H    -2.04243   2.19392   0.34546
