21
Generated by autodE on: 2022-06-11. E = -3897.256193 Ha
N    -0.53438  -3.81410   1.20160
C    -0.56026  -2.79392   0.65064
C    -0.63112  -1.49726  -0.01939
Br   -0.39378  -1.91041  -1.99191
C     0.40515  -0.56540   0.37072
C     0.88675   0.51374   0.63508
C     0.89687   1.93761   0.88485
Cl    0.90773   2.21491   2.68944
Cl    2.36910   2.73246   0.18065
C    -0.37654   2.54056   0.26275
C    -1.69050   1.80690   0.59886
C    -2.13135   0.63145  -0.31807
C    -2.00482  -0.80809   0.21252
H    -0.21926   2.54629  -0.82700
H    -0.42459   3.58825   0.59379
H    -1.67907   1.48792   1.65372
H    -2.47520   2.57472   0.53427
H    -1.63970   0.71026  -1.30153
H    -3.20414   0.76609  -0.51915
H    -2.17073  -0.82485   1.30269
H    -2.77048  -1.45561  -0.23888
