53
Generated by autodE on: 2022-06-11. E = -4678.581185 Ha. Imaginary frequency = -242.2 cm-1
C    -5.12978   4.35631  -4.31083
N    -3.84949   3.68003  -4.21481
C    -3.66020   2.46425  -4.76315
O    -4.57986   1.79423  -5.22552
C    -2.22952   1.95845  -4.61817
C    -2.01142   1.13711  -3.38866
C    -3.22400   0.41540  -2.85378
O    -0.93215   1.04682  -2.81755
C    -1.96612   0.33759  -6.69704
C    -1.42056   1.15993  -7.45840
N    -1.31499   3.06400  -6.49122
C    -2.45653   3.83154  -6.88473
C    -3.52794   3.33776  -7.63911
C    -4.51624   4.20932  -8.10624
C    -4.45977   5.57303  -7.81581
C    -3.39504   6.06917  -7.05390
C    -2.39296   5.21039  -6.60729
N    -1.21582   2.57334  -5.27038
C     0.18811   2.26758  -4.92960
C    -0.74501   1.36477  -8.74968
Br    1.24985   1.62414  -8.42928
C    -1.13312   2.58430  -9.46083
N    -1.42285   3.50685 -10.10111
C    -0.90362   0.13249  -9.67735
C    -2.34935  -0.40193  -9.72158
C    -2.55064  -1.75683  -9.01926
C    -1.90684  -1.98701  -7.64652
C    -2.33637  -1.06183  -6.50014
Cl   -1.48930  -1.67707  -4.98385
Cl   -4.13163  -1.23687  -6.24762
H    -5.86601   3.92057  -3.61620
H    -4.99060   5.41463  -4.05986
H    -5.53145   4.27799  -5.33104
H    -3.04119   4.21407  -3.91331
H    -3.90283   1.14316  -2.37922
H    -2.89154  -0.30539  -2.09655
H    -3.78299  -0.09143  -3.64923
H    -3.59839   2.27473  -7.85730
H    -5.34162   3.80799  -8.69886
H    -5.23822   6.24732  -8.17951
H    -3.33444   7.13476  -6.82050
H    -1.54509   5.59509  -6.03738
H     0.35647   1.18408  -4.96735
H     0.79876   2.77782  -5.67691
H     0.40963   2.63309  -3.92354
H    -0.21600  -0.64048  -9.31035
H    -0.54830   0.41999 -10.67633
H    -2.64689  -0.52850 -10.77297
H    -3.04195   0.34760  -9.30950
H    -2.13249  -2.54549  -9.66639
H    -3.63049  -1.95919  -8.94929
H    -0.81151  -1.90322  -7.70987
H    -2.12502  -3.01729  -7.32951
