18
Generated by autodE on: 2022-05-30. E = -3033.824583 Ha
C     2.68175   0.07239   0.85512
C     1.45845  -0.38960   1.59761
O     1.49389  -0.65089   2.79885
C     0.18319  -0.52578   0.88475
C    -0.27421  -0.14587  -0.32582
Br    0.54365   0.73398  -1.75196
C    -1.79162  -0.46232  -0.32851
C    -2.44186   0.53619   0.65576
C    -2.00876   0.15074   1.85939
C    -1.09534  -1.06252   1.58574
O    -1.77368  -1.65588   0.46125
H     2.55862   1.12395   0.54817
H     2.83932  -0.51789  -0.06029
H     3.55737  -0.01049   1.51207
H    -2.26029  -0.60330  -1.30791
H    -3.06141   1.38410   0.36716
H    -2.17856   0.59560   2.83910
H    -0.92623  -1.77360   2.39939
