24
Generated by autodE on: 2022-05-30. E = -443.787635 Ha
C    -3.24469  -0.84499  -0.24493
N    -2.06450  -0.20080  -0.20462
C    -2.17648   1.27410  -0.17747
C    -0.84884  -0.80570  -0.27591
C    -0.87892  -2.27448  -0.54349
C     0.40832  -0.11819  -0.00005
C     0.55633   0.88586   0.99171
C     1.78579   1.50179   1.22916
C     2.92528   1.12961   0.50831
C     2.81117   0.11904  -0.45544
C     1.58390  -0.49113  -0.70395
H    -3.28155  -1.92872  -0.21455
H    -4.15055  -0.24702  -0.29669
H    -1.27823   1.73219  -0.59968
H    -2.32988   1.63002   0.84887
H    -3.04304   1.55821  -0.78580
H    -1.35564  -2.83246   0.28877
H    -1.47845  -2.51199  -1.44526
H     0.13029  -2.68249  -0.67149
H    -0.29498   1.16434   1.61252
H     1.85634   2.26950   2.00455
H     3.88742   1.60986   0.70041
H     3.68889  -0.19042  -1.02926
H     1.52139  -1.26006  -1.47665
