42
Generated by autodE on: 2022-05-30. E = -3477.619867 Ha. Imaginary frequency = -156.8 cm-1
C     4.87816   0.54734   0.77524
C     3.81502  -0.46676   1.10279
O     4.10408  -1.56145   1.58933
C     2.40960  -0.15751   0.83995
C     1.76086   0.80102   0.14118
Br    2.38062   2.25708  -0.85355
C     0.26758   0.39509   0.12990
O     0.19256  -0.19540   1.43324
C     1.26414  -1.13656   1.22263
C     0.80370  -1.82581  -0.07546
C    -1.08847  -3.32308   0.73711
N    -2.00246  -2.33440   0.70683
C    -2.43256  -1.85225   2.03265
C    -2.39221  -1.72346  -0.44714
C    -2.21824  -2.51989  -1.71109
C    -3.27300  -0.54864  -0.45883
C    -3.13210   0.54866   0.42800
C    -3.96764   1.66266   0.34864
C    -4.97047   1.73885  -0.62375
C    -5.11972   0.67572  -1.52057
C    -4.28949  -0.44208  -1.44145
C     0.17148  -0.84182  -0.77443
H     4.95412   0.67332  -0.31706
H     5.84372   0.19884   1.16473
H     4.63392   1.53299   1.19946
H    -0.45314   1.20726  -0.01093
H     1.44965  -1.75811   2.10331
H     1.24621  -2.74558  -0.44870
H    -0.88682  -3.89968  -0.15691
H    -0.85372  -3.75303   1.70858
H    -1.74138  -1.08823   2.40346
H    -2.43248  -2.70669   2.71852
H    -3.44747  -1.44778   1.97647
H    -2.44989  -1.91060  -2.59262
H    -1.19200  -2.88917  -1.83930
H    -2.88021  -3.40906  -1.72346
H    -2.34222   0.54799   1.17480
H    -3.82094   2.48879   1.04933
H    -5.62027   2.61480  -0.68530
H    -5.89783   0.71121  -2.28760
H    -4.44560  -1.26060  -2.14518
H    -0.07095  -0.79729  -1.83315
