51
Generated by autodE on: 2022-06-22. E = -1146.814744 Ha
C    -3.61983  -0.23200   3.28076
N    -2.68426  -0.51362   2.21157
C    -2.61602   0.25402   1.11956
O    -3.38738   1.19937   0.91250
C    -1.49420  -0.04905   0.09331
C    -0.97878  -1.49678   0.15685
O    -0.66060  -2.02441   1.23723
N    -0.84095  -2.10959  -1.01935
C    -0.15158  -3.37647  -1.14917
N    -1.94151   0.30419  -1.25369
C    -1.51382   1.65117  -1.61515
C    -0.67366   1.60234  -2.83296
N    -0.04059   1.55883  -3.80512
C    -2.73241   2.55923  -1.97257
C    -2.45285   4.01209  -2.19630
O    -3.83512   2.06239  -2.04496
C    -0.72780   2.19391  -0.39421
C    -0.25015   0.93094   0.35323
C    -0.00829   1.21511   1.83443
C     0.97243   0.35521  -0.33066
C     2.02401  -0.22612   0.27763
C     3.13181  -0.81706  -0.45511
C     4.20502  -1.45698   0.06895
C     4.43859  -1.65977   1.53952
C     5.26934  -2.03136  -0.82347
H    -4.64937  -0.17059   2.89680
H    -3.56566  -1.03777   4.02322
H    -3.38752   0.72459   3.77851
H    -1.96818  -1.23619   2.30726
H    -1.05402  -1.53765  -1.83429
H     0.93022  -3.26301  -0.96348
H    -0.54733  -4.10497  -0.42731
H    -0.29843  -3.76417  -2.16474
H    -2.95610   0.24896  -1.35270
H    -2.29718   4.49095  -1.21494
H    -1.53122   4.15879  -2.77851
H    -3.30745   4.48736  -2.69429
H    -1.42165   2.75450   0.24340
H     0.10085   2.85346  -0.68080
H     0.86511   1.87383   1.94679
H    -0.87275   1.72077   2.28649
H     0.18257   0.29067   2.39502
H     0.96913   0.37561  -1.42482
H     2.04969  -0.28115   1.36825
H     3.07104  -0.73681  -1.54711
H     3.65330  -1.23076   2.17496
H     4.51469  -2.73744   1.76822
H     5.40421  -1.21481   1.83782
H     5.37515  -3.11828  -0.65656
H     5.05450  -1.86204  -1.88879
H     6.25485  -1.58942  -0.59102
