28
Generated by autodE on: 2022-06-22. E = -795.253751 Ha
C    -0.85855   3.44160   0.89745
N    -0.61049   2.01183   0.92347
C    -1.17927   1.18429   0.03550
O    -2.08408   1.52739  -0.73779
C    -0.71879  -0.23784   0.06084
N     0.53393  -0.61965   0.00446
C     1.74734  -0.03791  -0.17750
C     1.91348   1.33263  -0.45847
N     2.10142   2.45693  -0.71220
C     2.86805  -0.97931  -0.14891
C     4.24900  -0.43743  -0.38295
O     2.64699  -2.17618   0.05814
C    -1.67493  -1.38727   0.13486
O    -1.23030  -2.53205   0.30423
N    -2.97635  -1.09352   0.01662
C    -3.99246  -2.12680   0.03157
H    -1.93801   3.64089   0.84816
H    -0.45029   3.88922   1.81121
H    -0.37598   3.90851   0.02319
H     0.12644   1.66432   1.52961
H     0.63567  -1.65429   0.09750
H     4.48013   0.35537   0.34613
H     4.31283   0.01603  -1.38538
H     4.98341  -1.24785  -0.29711
H    -3.21945  -0.14631  -0.26916
H    -4.97820  -1.65447   0.12011
H    -3.83914  -2.80077   0.88630
H    -3.97035  -2.73310  -0.88954
