28
Generated by autodE on: 2022-07-27. E = -795.253645 Ha
C    -1.23357  -1.77935   3.97258
N    -0.53728  -1.53513   2.72527
C    -0.96789  -0.61427   1.85368
O    -1.99338   0.06533   2.00780
C    -0.14191  -0.41788   0.62107
N    -0.52156   0.61879  -0.08584
C    -0.08803   1.29445  -1.18077
C     1.11586   0.99749  -1.84938
N     2.11273   0.80470  -2.42629
C    -0.93819   2.42621  -1.55544
C    -0.52337   3.25774  -2.73494
O    -1.95571   2.66124  -0.89727
C     0.99650  -1.31991   0.26870
O     1.83821  -1.61965   1.12663
N     0.99693  -1.81434  -0.97756
C     2.11556  -2.57922  -1.49694
H    -2.30405  -1.94888   3.78750
H    -0.80740  -2.67039   4.44873
H    -1.13832  -0.92609   4.66480
H     0.39035  -1.92806   2.57351
H    -1.37667   1.07071   0.30688
H     0.47092   3.69896  -2.55900
H    -1.25818   4.05500  -2.90187
H    -0.44344   2.62909  -3.63632
H     0.27346  -1.52556  -1.62944
H     1.80490  -3.08094  -2.42117
H     2.97354  -1.92285  -1.71704
H     2.43142  -3.33417  -0.76428
