51
Generated by autodE on: 2022-06-22. E = -1146.758216 Ha. Imaginary frequency = -471.1 cm-1
C    -3.01041  -1.06445   3.48902
N    -2.46074  -1.11079   2.15193
C    -2.85813  -0.24985   1.20144
O    -3.80673   0.54468   1.36786
C    -2.09754  -0.22781  -0.07669
C    -1.13692  -1.28141  -0.41516
O    -0.50960  -1.89451   0.47660
N    -0.95796  -1.56228  -1.72609
C     0.15946  -2.32336  -2.24163
N    -2.66597   0.63837  -0.97154
C    -2.03404   1.54575  -1.78919
C    -1.12731   1.12782  -2.82536
N    -0.38556   0.88016  -3.68642
C    -2.93344   2.71362  -2.14589
C    -2.47423   3.65393  -3.21500
O    -3.97102   2.86101  -1.52096
C    -0.68789   2.46777  -0.53640
C    -0.07157   1.49019   0.29030
C    -0.35546   1.47278   1.77109
C     1.06423   0.78442  -0.23999
C     1.85604  -0.08870   0.44844
C     2.94406  -0.80609  -0.16608
C     3.75410  -1.72387   0.42717
C     3.64672  -2.14365   1.86400
C     4.84075  -2.40418  -0.35344
H    -4.10472  -1.18167   3.47180
H    -2.57781  -1.88110   4.08032
H    -2.78202  -0.10730   3.98888
H    -1.61580  -1.64556   1.93639
H    -1.57199  -1.12797  -2.40378
H     0.76870  -1.69874  -2.91545
H    -0.18153  -3.20815  -2.80224
H     0.78240  -2.65728  -1.40433
H    -3.48433   1.09064  -0.53156
H    -1.42356   3.94370  -3.06042
H    -2.52861   3.14414  -4.19132
H    -3.11842   4.54158  -3.22774
H    -0.08681   2.90561  -1.33774
H    -1.38163   3.16149  -0.05371
H     0.40441   2.07602   2.30017
H    -1.34097   1.90649   1.98854
H    -0.31800   0.46134   2.19620
H     1.28262   0.94385  -1.30103
H     1.65380  -0.26249   1.50699
H     3.11404  -0.59289  -1.22791
H     4.59568  -1.94288   2.39199
H     2.83645  -1.64564   2.41122
H     3.48605  -3.23424   1.92896
H     4.88028  -2.06141  -1.39759
H     4.69636  -3.49954  -0.34890
H     5.82638  -2.22537   0.11277
