25
Generated by autodE on: 2022-06-09. E = -701.724112 Ha
C     0.54865   4.15412   0.75048
N     0.72871   2.73910   0.50327
C    -0.31399   1.91600   0.31972
O    -1.49992   2.31584   0.33926
C    -0.04392   0.48045   0.08089
N    -1.21195  -0.19020  -0.12041
C    -1.64918  -1.37836  -0.49150
C    -3.12803  -1.63623  -0.52634
C    -0.82073  -2.43966  -0.94803
N    -0.30792  -3.38081  -1.40735
C     1.26156  -0.12169   0.21550
O     2.32019   0.50341   0.29090
O     1.21222  -1.45687   0.30075
C     2.44963  -2.17203   0.34948
H     0.00890   4.64155  -0.07737
H    -0.02247   4.33478   1.67568
H     1.53496   4.62341   0.85059
H     1.65739   2.32101   0.47066
H    -1.96962   0.50658   0.03776
H    -3.39387  -2.43760   0.18245
H    -3.68647  -0.72905  -0.25504
H    -3.44139  -1.96468  -1.53010
H     3.00029  -1.92933   1.26994
H     2.18235  -3.23501   0.33618
H     3.07161  -1.92840  -0.52410
