44
Generated by autodE on: 2022-06-09. E = -3810.800068 Ha. Imaginary frequency = -245.9 cm-1
C    -1.90637   3.62745  -0.99816
N    -1.22918   2.35464  -1.16292
C    -1.93075   1.19475  -1.05143
O    -3.15438   1.16808  -0.92632
C    -1.09787  -0.05524  -1.14049
C    -1.78222  -1.37306  -1.09387
O    -1.54928  -2.27410  -1.87870
O    -2.67546  -1.46281  -0.11316
C    -3.38253  -2.70747  -0.00181
N    -0.01772   0.06839  -1.97513
C     1.09355  -0.67422  -2.09001
C     2.24733  -0.10038  -2.86296
C     1.14855  -2.09224  -1.95173
N     1.40988  -3.22651  -1.93809
C     1.38186  -0.36572   0.41213
C     2.37126   0.64656   0.10078
O     3.58141   0.48530   0.18095
O     1.81363   1.79842  -0.32648
C     2.69904   2.87750  -0.64960
C     1.75064  -1.76863   0.93189
C     1.89980  -1.64646   2.45871
C     0.65838  -1.45520   2.91543
C    -0.23555  -1.47630   1.65593
O     0.46078  -2.41304   0.83609
C     0.06957  -0.16834   0.87538
Br   -0.51947   1.40199   1.81438
H    -1.20539   4.43671  -1.23817
H    -2.27043   3.76436   0.03489
H    -2.76913   3.68995  -1.67506
H    -0.24329   2.33708  -0.90317
H    -4.05963  -2.59140   0.85175
H    -2.67590  -3.53007   0.17818
H    -3.95445  -2.90710  -0.91907
H     0.12883   1.02030  -2.31468
H     2.18054   0.99484  -2.90669
H     2.26283  -0.50306  -3.88888
H     3.19294  -0.38232  -2.37794
H     3.39684   2.58175  -1.44547
H     2.05822   3.69758  -0.99391
H     3.26653   3.18652   0.23997
H     2.52539  -2.31190   0.38426
H     2.84785  -1.65320   2.99491
H     0.30662  -1.27074   3.92923
H    -1.29060  -1.72761   1.78449
