49
Generated by autodE on: 2022-06-10. E = -1547.289916 Ha
C    -4.26075  -1.78417   2.29768
N    -2.96435  -1.38654   1.78840
C    -2.83696  -0.53861   0.76022
O    -3.78830   0.00102   0.18516
C    -1.41666  -0.27373   0.32920
N    -0.46416  -1.02854   0.71013
C     0.83778  -0.56202   0.21106
C     1.59334  -1.68990  -0.48540
C     2.91853  -1.47002  -0.89368
C     3.61908  -2.45597  -1.58736
C     3.00424  -3.67952  -1.88128
C     1.68612  -3.90169  -1.47942
C     0.98200  -2.90899  -0.78712
C     1.59439  -0.09045   1.47407
C     2.40741  -1.00814   2.16038
C     3.03255  -0.66395   3.36101
C     2.85488   0.60928   3.90669
C     2.03206   1.52409   3.24550
C     1.40059   1.17587   2.04877
C     0.48716   0.58106  -0.83024
F     1.32635   1.66209  -0.68612
C     0.49414   0.15364  -2.34220
C     0.20476   1.40543  -3.15204
C    -1.10654   1.62882  -3.00460
C    -1.59752   0.52182  -2.08837
O    -0.73762  -0.56618  -2.42417
C    -1.06219   0.84685  -0.62937
C    -1.52371   2.22381  -0.13741
F    -2.74299   2.53358  -0.61110
F    -0.71068   3.22075  -0.51147
F    -1.60339   2.26199   1.20925
H    -4.11927  -2.37093   3.21298
H    -4.81290  -2.39498   1.56456
H    -4.87286  -0.89988   2.53075
H    -2.11658  -1.80271   2.16245
H     3.39961  -0.51477  -0.67234
H     4.64915  -2.27019  -1.90042
H     3.55289  -4.45393  -2.42241
H     1.19618  -4.85181  -1.70523
H    -0.04889  -3.08705  -0.48188
H     2.55392  -2.01037   1.75888
H     3.66069  -1.39895   3.86982
H     3.34784   0.88431   4.84206
H     1.87270   2.52137   3.66216
H     0.75956   1.91560   1.58001
H     1.34599  -0.45673  -2.64559
H     0.95176   2.00655  -3.66838
H    -1.71132   2.46050  -3.36337
H    -2.65241   0.23871  -2.11645
