33
Generated by autodE on: 2022-06-10. E = -803.195704 Ha
C     4.02350   0.94291   0.56932
N     4.04974  -0.43688   0.11392
C     3.01564  -1.28711   0.23293
O     2.98847  -2.43936  -0.21964
C     1.87359  -0.80370   1.04638
N     0.81549  -0.39281   0.59997
C    -0.34474   0.00344   0.20529
C    -0.57507   1.45938   0.07693
C    -1.51572   1.97546  -0.83468
C    -1.68818   3.35432  -0.96954
C    -0.92716   4.24221  -0.20308
C     0.01743   3.73911   0.69871
C     0.19481   2.36302   0.83660
C    -1.34722  -1.04254  -0.10104
C    -2.72570  -0.81078   0.06687
C    -3.64963  -1.82632  -0.18588
C    -3.21787  -3.08869  -0.60482
C    -1.84909  -3.33214  -0.76322
C    -0.92130  -2.32080  -0.51596
H     3.40966   1.58725  -0.08098
H     3.62213   1.00227   1.59261
H     5.04858   1.33340   0.58123
H     4.83201  -0.76145  -0.44933
H    -2.10187   1.29815  -1.45637
H    -2.41919   3.73656  -1.68590
H    -1.06580   5.32040  -0.31053
H     0.61911   4.42365   1.30125
H     0.93336   1.98007   1.54372
H    -3.07747   0.15981   0.41815
H    -4.71523  -1.63030  -0.04543
H    -3.94398  -3.88006  -0.80428
H    -1.50100  -4.31538  -1.08831
H     0.14526  -2.51754  -0.64546
