49
Generated by autodE on: 2022-06-10. E = -1547.184946 Ha. Imaginary frequency = -228.9 cm-1
C    -3.12195  -0.18495   2.77961
N    -3.54729  -1.03133   1.67786
C    -2.83281  -1.30302   0.57607
O    -3.24289  -1.95058  -0.39695
C    -1.47648  -0.73454   0.47867
N    -0.36097  -1.14738   0.70576
C     0.95007  -1.03899   0.60455
C     1.60577  -1.81920  -0.46146
C     2.89386  -1.47872  -0.92063
C     3.48274  -2.18473  -1.97006
C     2.80003  -3.23911  -2.58562
C     1.51605  -3.57736  -2.14486
C     0.92447  -2.87765  -1.09407
C     1.67305  -0.46446   1.76251
C     2.94009  -0.93775   2.15421
C     3.59449  -0.38787   3.25804
C     2.99637   0.63727   3.99663
C     1.73022   1.10422   3.62608
C     1.07394   0.55924   2.52385
C     0.37283   1.18094  -0.85639
F     1.18277   1.99235  -0.15963
C     0.74581   0.71436  -2.26997
C     0.27285   1.82319  -3.23740
C    -1.06332   1.76737  -3.19869
C    -1.38792   0.63294  -2.20257
O    -0.29216  -0.25988  -2.45663
C    -0.99636   1.13770  -0.78529
C    -1.85984   2.10210  -0.06264
F    -3.14420   1.68742   0.01783
F    -1.90410   3.30589  -0.68759
F    -1.44219   2.34524   1.19646
H    -3.43593   0.86090   2.63794
H    -2.02936  -0.21151   2.88546
H    -3.55861  -0.56019   3.71481
H    -4.51687  -1.34114   1.65220
H     3.42202  -0.63434  -0.47686
H     4.47923  -1.90035  -2.31609
H     3.26424  -3.79113  -3.40597
H     0.97139  -4.39611  -2.62093
H    -0.07999  -3.14518  -0.76022
H     3.41128  -1.75425   1.60746
H     4.57528  -0.77229   3.54770
H     3.51036   1.06607   4.85995
H     1.25077   1.90196   4.19819
H     0.09235   0.93812   2.24338
H     1.74628   0.29628  -2.41482
H     0.92710   2.51274  -3.76971
H    -1.80127   2.39869  -3.69179
H    -2.35578   0.12858  -2.28653
