30
Generated by autodE on: 2022-06-16. E = -746.127292 Ha
C     3.79015  -0.78599   0.66194
O     2.39613  -0.44666   0.76019
C     1.73760  -0.28363  -0.38286
O     2.23397  -0.39632  -1.48456
C     0.29039   0.06433  -0.17832
N    -0.21495   0.18349   1.19247
C    -1.52622   0.64696   0.82111
C    -2.38901   1.20264   1.91357
O    -1.23160   1.77525  -0.15267
C    -0.11125   1.41919  -0.79211
O     0.40283   2.05749  -1.67942
C    -2.05577  -0.49441  -0.07978
C    -2.81017  -1.57254   0.68979
C    -0.73498  -0.95451  -0.79775
C    -0.30782  -2.39978  -0.56629
H     4.14987  -0.87918   1.69266
H     4.33873   0.00705   0.13438
H     3.91271  -1.73776   0.12586
H     0.29771   0.89656   1.71702
H    -3.35470   1.53343   1.50616
H    -1.88993   2.05891   2.39069
H    -2.57170   0.43172   2.67403
H    -2.73742  -0.04700  -0.81601
H    -3.73239  -1.15884   1.12429
H    -2.20751  -1.99686   1.50546
H    -3.10177  -2.39404   0.01957
H    -0.80463  -0.77396  -1.87906
H     0.60333  -2.62523  -1.14022
H    -0.10581  -2.60025   0.49508
H    -1.09003  -3.09406  -0.90461
