12
Generated by autodE on: 2022-06-16. E = -157.299005 Ha
C    -1.58551  -0.43633   0.34550
C    -0.66637   0.59173  -0.24335
C     0.67275   0.54272  -0.32583
C     1.57990  -0.55213   0.15049
H    -2.18569  -0.00211   1.16458
H    -2.30950  -0.79257  -0.40857
H    -1.05299  -1.31202   0.74336
H    -1.16249   1.48215  -0.65013
H     1.17891   1.39629  -0.79452
H     2.17800  -0.95670  -0.68517
H     2.30623  -0.16622   0.88751
H     1.03829  -1.38853   0.61500
