23
Generated by autodE on: 2022-06-19. E = -351.521385 Ha
C     3.48506   0.94391   1.12342
C     2.49924   0.61048   0.26162
C     2.75894   0.49401  -1.21864
C     1.14921   0.35562   0.76026
C     0.07697   0.01608   0.00139
C    -1.24290  -0.22559   0.54748
C    -2.36246  -0.56409  -0.14075
C    -3.66645  -0.78417   0.57271
C    -2.41970  -0.74944  -1.63051
H     4.50384   1.14023   0.77785
H     3.29299   1.02767   2.19758
H     2.52223  -0.51874  -1.58510
H     2.12328   1.19101  -1.78972
H     3.80979   0.71073  -1.45699
H     1.01270   0.45328   1.84406
H     0.20600  -0.08317  -1.07979
H    -1.33145  -0.11945   1.63550
H    -3.57632  -0.63719   1.65902
H    -4.04582  -1.80545   0.38852
H    -4.44287  -0.09736   0.19023
H    -3.16520  -0.06454  -2.07189
H    -1.45957  -0.57988  -2.13440
H    -2.76107  -1.77082  -1.87545
