45
Generated by autodE on: 2022-06-19. E = -960.422210 Ha. Imaginary frequency = -353.9 cm-1
C    -2.58973  -2.53880  -2.06547
C    -2.65568  -1.22757  -1.32335
O    -3.56261  -0.42595  -1.51916
C    -1.56482  -0.94353  -0.34620
C    -1.60535   0.11467   0.68343
C    -2.35947   1.29344   0.51808
C    -2.31926   2.29733   1.48765
C    -1.53503   2.15057   2.63511
C    -0.77817   0.98652   2.80521
C    -0.81304  -0.01978   1.84278
C    -0.29443   0.06890  -2.21100
C     0.95940  -0.50567  -2.07754
C     1.49805  -1.40212  -3.17348
C     1.94326   0.01241  -1.10893
C     1.76775   1.06145  -0.26935
C     2.75016   1.47876   0.70748
C     2.66652   2.54809   1.53984
C     3.76518   2.84536   2.52062
C     1.52242   3.52074   1.56113
C     0.42125  -2.24992  -0.63143
C     1.30001  -3.31447  -0.43766
N     2.14570  -4.12154  -0.41175
N    -0.66315  -1.90767  -0.17978
H    -2.65688  -3.38149  -1.35933
H    -1.63634  -2.64109  -2.60551
H    -3.42303  -2.58539  -2.77749
H    -2.96512   1.42096  -0.37518
H    -2.90636   3.20667   1.33901
H    -1.50779   2.94031   3.38896
H    -0.15566   0.86058   3.69385
H    -0.22380  -0.92591   1.99235
H    -0.92518  -0.20463  -3.05918
H    -0.56519   0.97848  -1.67827
H     0.68892  -1.94811  -3.68002
H     2.22799  -2.13144  -2.79118
H     2.01885  -0.79034  -3.93090
H     2.88977  -0.53874  -1.06164
H     0.83135   1.62333  -0.31395
H     3.65029   0.85572   0.77302
H     3.37691   2.83700   3.55509
H     4.59041   2.12125   2.45352
H     4.17396   3.85871   2.35707
H     1.88351   4.53172   1.29992
H     0.70648   3.26119   0.87584
H     1.10179   3.59805   2.57791
