50
Generated by autodE on: 2022-06-26. E = -1261.754663 Ha
C    -3.29788  -2.41346   1.06105
O    -2.72314  -1.89959  -0.15366
C    -1.54115  -1.30206  -0.05356
O    -0.92438  -1.22873   0.99313
C    -1.09102  -0.63750  -1.37681
C    -1.30108  -1.61096  -2.53484
N    -1.82523   0.62145  -1.58193
C    -3.25183   0.57286  -1.86176
C    -1.36399   1.60755  -0.60207
C    -1.66590   3.04706  -1.04805
C    -2.14283   1.43281   0.66593
N    -2.92520   1.28407   1.51131
C     0.18265   1.26955  -0.45248
C     1.07654   2.39705  -1.02820
C     0.63364   1.25164   1.00019
O     0.14788   1.99522   1.83346
C     1.84584   0.44829   1.34818
O     2.44987   0.93115   2.43357
C     3.70548   0.42541   2.90338
C     2.13497  -0.67914   0.63582
O     3.09953  -1.55573   1.02889
C     4.18989  -1.73938   0.11945
C     1.26479  -1.10992  -0.47579
O     1.34076  -2.26591  -0.87907
C     0.37281  -0.10418  -1.20239
C     1.05604   0.06322  -2.57647
H    -4.25657  -2.85937   0.77387
H    -3.45335  -1.59413   1.77672
H    -2.63792  -3.17264   1.50318
H    -0.61228  -2.45792  -2.43053
H    -1.11987  -1.11443  -3.49577
H    -2.32518  -2.00169  -2.53308
H    -3.44249  -0.13768  -2.67493
H    -3.59098   1.55867  -2.20680
H    -3.86890   0.27981  -0.99238
H    -2.74980   3.21607  -1.08945
H    -1.24245   3.75775  -0.32727
H    -1.24164   3.23581  -2.04114
H     0.83844   2.60580  -2.07599
H     0.94629   3.31956  -0.44955
H     2.13342   2.10597  -0.96542
H     4.01185   1.11205   3.70263
H     4.45586   0.43536   2.09962
H     3.59763  -0.59019   3.30418
H     4.83903  -2.50690   0.56055
H     4.75657  -0.80043   0.00590
H     3.83968  -2.07992  -0.86615
H     1.14993  -0.91040  -3.06989
H     2.06866   0.46873  -2.45661
H     0.48298   0.73677  -3.22461
