24
Generated by autodE on: 2022-06-26. E = -572.247784 Ha
C     3.30660   1.74835   0.61540
O     2.48729   0.60709   0.86983
C     1.31354   0.54453   0.18861
O     0.97310   1.44451  -0.57879
C     0.61726  -0.70535   0.41197
C     1.33639  -1.88269   1.00575
N    -0.62541  -0.87793  -0.11847
C    -0.99517  -2.24321  -0.54579
C    -1.56672   0.09485  -0.17973
C    -1.51058   1.33121   0.64752
C    -2.70851  -0.10235  -0.98812
N    -3.68559  -0.18904  -1.62627
H     3.59171   1.80151  -0.44634
H     2.78530   2.67727   0.89218
H     4.20229   1.62411   1.23636
H     0.64281  -2.57760   1.49899
H     1.91062  -2.45570   0.25520
H     2.05070  -1.53005   1.75976
H    -0.13370  -2.72893  -1.01437
H    -1.32531  -2.82444   0.32568
H    -1.81520  -2.18720  -1.26846
H    -2.53064   1.68049   0.86161
H    -0.98346   1.11046   1.59320
H    -0.94681   2.14527   0.16172
