24
Generated by autodE on: 2022-07-27. E = -572.242590 Ha
C    -0.46777  -1.89643   2.26990
O    -0.55260  -1.00499   1.15835
C    -0.00086  -1.42406  -0.00264
O     0.43367  -2.56865  -0.12582
C    -0.07363  -0.47563  -1.10085
C     0.08455  -1.02812  -2.48840
N    -0.35259   0.84682  -0.92268
C    -1.09214   1.55337  -1.98985
C     0.01816   1.59851   0.14021
C    -0.56892   2.95327   0.40912
C     1.03294   1.12371   0.99250
N     1.90443   0.79759   1.70228
H    -0.91482  -1.36521   3.11908
H     0.58080  -2.14232   2.49347
H    -1.02354  -2.82607   2.07554
H     0.75809  -1.89437  -2.44213
H     0.52333  -0.29277  -3.17774
H    -0.86588  -1.38360  -2.92665
H    -0.44772   2.30701  -2.46188
H    -1.44436   0.83635  -2.73302
H    -1.96239   2.05001  -1.54411
H    -1.66575   2.90886   0.52078
H    -0.14989   3.35203   1.34179
H    -0.34258   3.67105  -0.39679
