26
Generated by autodE on: 2022-06-26. E = -689.460832 Ha
C     2.94771  -1.36767  -0.07085
O     2.17753  -0.42655  -0.82608
C     0.90360  -0.20629  -0.38616
C     0.51717   0.95050   0.22247
O     1.24570   2.01979   0.54178
C     2.66044   2.08370   0.33288
C    -0.92606   1.14892   0.60362
O    -1.25791   2.20322   1.12785
C    -1.90603   0.06199   0.34950
C    -3.32426   0.29197   0.77184
C    -1.50850  -1.08835  -0.24867
C    -2.46232  -2.20670  -0.52733
C    -0.08590  -1.26800  -0.66897
O     0.27133  -2.28680  -1.25807
H     3.94145  -1.40401  -0.53665
H     2.49523  -2.36989  -0.09740
H     3.04740  -1.03664   0.97624
H     2.96381   3.06681   0.71461
H     2.90657   2.00558  -0.73386
H     3.17795   1.29524   0.89770
H    -4.00494   0.22202  -0.09263
H    -3.64699  -0.48024   1.48943
H    -3.44581   1.27763   1.23611
H    -2.91610  -2.57261   0.40868
H    -3.29367  -1.85987  -1.16323
H    -1.95983  -3.04258  -1.02758
