41
Generated by autodE on: 2022-10-21. E = -1710.247331 Ha
C    -2.90548   1.34540   1.59946
O    -2.56278   0.03750   1.14606
C    -1.75791  -0.07801   0.01844
O    -2.32352   0.58211  -1.08426
C    -3.71902   0.44230  -1.34211
C    -1.44436  -1.61105  -0.23644
C    -1.71437  -2.46745   1.00773
C    -2.24344  -2.19283  -1.40862
N     0.00532  -1.64361  -0.54138
C     0.58352  -0.32088  -0.78780
C     0.44096   0.09872  -2.26695
C     2.07070  -0.27671  -0.40788
C     2.83015   0.88776  -0.60984
C     4.18278   0.92954  -0.26310
C     4.80813  -0.19777   0.27893
C     4.06350  -1.36358   0.47440
C     2.70691  -1.39888   0.13750
C    -0.30761   0.54109   0.16292
Cl   -0.24836   2.29891  -0.19358
Cl    0.24335   0.32094   1.87458
H    -3.22166   2.00028   0.77496
H    -3.74315   1.21809   2.29870
H    -2.06403   1.81616   2.12935
H    -4.16912   1.44743  -1.36873
H    -3.86933  -0.03899  -2.31954
H    -4.22671  -0.14707  -0.56803
H    -1.15565  -2.09704   1.87605
H    -2.78449  -2.48925   1.25776
H    -1.38747  -3.49815   0.79989
H    -1.89071  -3.22062  -1.58933
H    -3.31753  -2.24857  -1.18606
H    -2.09798  -1.61661  -2.33117
H     0.20251  -2.26351  -1.32357
H    -0.60958   0.11822  -2.57516
H     0.88066   1.08394  -2.46668
H     0.97772  -0.64445  -2.87609
H     2.36522   1.78063  -1.02746
H     4.75124   1.84944  -0.42120
H     5.86756  -0.16686   0.54480
H     4.53826  -2.25315   0.89630
H     2.12200  -2.30191   0.30558
