14
Generated by autodE on: 2022-10-21. E = -1227.029306 Ha
C     1.45287   1.91226   1.77817
O     1.47257   0.85979   0.80229
C     0.34407   0.66299   0.09747
O    -0.29363   1.78153  -0.29790
C    -1.66320   1.98370   0.08877
C    -0.03683  -0.59223  -0.23513
Cl   -1.31159  -0.90252  -1.37796
Cl    0.79282  -1.99350   0.37522
H     2.43042   1.88006   2.27455
H     1.31087   2.89327   1.30333
H     0.65616   1.73922   2.51914
H    -1.81225   3.06996   0.14811
H    -1.85934   1.52860   1.07109
H    -2.34776   1.55857  -0.65884
