41
Generated by autodE on: 2022-10-21. E = -1710.162856 Ha. Imaginary frequency = -257.7 cm-1
C    -2.74493   0.76594   2.47789
O    -2.38367  -0.19672   1.47871
C    -1.81606   0.24790   0.31302
O    -2.64534   0.22112  -0.78355
C    -3.82577   1.02202  -0.68354
C    -0.89488  -1.87470  -0.17436
C    -0.15948  -2.09629   1.10598
C    -2.08867  -2.74609  -0.42734
N    -0.29456  -1.37118  -1.28455
C     0.75179  -0.52928  -1.44165
C     0.77707   0.25180  -2.72430
C     2.00681  -0.66992  -0.70087
C     2.79541   0.46754  -0.41773
C     4.02552   0.34842   0.22788
C     4.51146  -0.90931   0.60501
C     3.75385  -2.04920   0.31178
C     2.52530  -1.93447  -0.33884
C    -0.72867   1.10721   0.25450
Cl    0.29668   1.34997   1.65570
Cl   -0.69156   2.45917  -0.87877
H    -2.88610   1.76548   2.04010
H    -3.69131   0.42846   2.92525
H    -1.97264   0.82252   3.25965
H    -3.57374   2.08147  -0.51396
H    -4.35436   0.92415  -1.64127
H    -4.48199   0.66630   0.12689
H    -0.89019  -2.19786   1.92001
H     0.51964  -1.27582   1.35510
H     0.43649  -3.02823   1.07678
H    -2.80574  -2.65078   0.40227
H    -1.81098  -3.81564  -0.49505
H    -2.60385  -2.47025  -1.36038
H    -0.94536  -1.33570  -2.06913
H    -0.22679   0.31854  -3.16923
H     1.11752   1.28286  -2.55156
H     1.46454  -0.19861  -3.46485
H     2.41836   1.45659  -0.68172
H     4.60748   1.24738   0.44764
H     5.47457  -1.00110   1.11258
H     4.13078  -3.04006   0.57846
H     1.96465  -2.83462  -0.59371
