36
Generated by autodE on: 2022-06-17. E = -936.907817 Ha
C     2.51990   2.32697  -1.50682
O     2.17886   1.42104  -0.43907
C     0.89336   1.22063  -0.21206
O    -0.01447   1.79001  -0.77059
C     0.65708   0.14804   0.87877
C     1.53246   0.44207   2.02306
N     2.22065   0.67127   2.92683
O    -0.67866   0.20923   1.32238
C    -1.52309  -0.56685   0.44477
C    -2.53327  -1.32208   1.30982
C    -2.34761   0.37112  -0.45801
C    -2.93804   1.60464   0.15947
O    -2.60531   0.02787  -1.59873
C    -0.56185  -1.52280  -0.34656
C    -0.59115  -1.36827  -1.86230
O     0.12478  -0.62957  -2.50921
C     0.82641  -1.32805   0.34731
C     2.06444  -1.56763  -0.51807
C     0.90899  -2.27425   1.55996
H     3.61403   2.33611  -1.55294
H     2.09489   1.96019  -2.45134
H     2.13339   3.33148  -1.28652
H    -3.08143  -0.62111   1.95515
H    -3.25180  -1.84976   0.66619
H    -2.01728  -2.05736   1.94141
H    -3.90869   1.32798   0.60579
H    -3.12295   2.35090  -0.62431
H    -2.30116   2.01512   0.95067
H    -0.89733  -2.55236  -0.16622
H    -1.27745  -2.07677  -2.37476
H     2.10935  -0.93325  -1.40659
H     2.96962  -1.39656   0.08357
H     2.07143  -2.61822  -0.84583
H     1.88170  -2.17303   2.06223
H     0.11873  -2.08344   2.29760
H     0.81362  -3.31268   1.21179
