14
Generated by autodE on: 2022-06-17. E = -270.683221 Ha
C    -2.17255  -0.73978   0.50329
C    -0.85166  -0.14967   0.12234
C    -0.89528   1.19042  -0.55446
C     0.30402  -0.81688   0.39176
C     1.64799  -0.35456   0.07928
O     1.95366   0.70629  -0.46071
H    -2.71401  -0.04622   1.17064
H    -2.80621  -0.85200  -0.39411
H    -2.07490  -1.71495   0.99987
H    -1.93091   1.52485  -0.70706
H    -0.38008   1.15994  -1.52713
H    -0.36337   1.94765   0.04404
H     0.24832  -1.79080   0.88677
H     2.45463  -1.06701   0.37876
