22
Generated by autodE on: 2022-07-27. E = -666.143989 Ha
C     2.75118   2.05631  -0.70345
O     2.30116   0.89031  -0.00141
C     0.97531   0.66655   0.00718
O     0.16476   1.40652  -0.55660
C     0.61394  -0.49116   0.76308
C     1.48376  -1.19428   1.60705
N     2.22337  -1.79276   2.28838
O    -0.72604  -0.74958   0.99988
C    -1.72149  -0.47597   0.25200
C    -3.06432  -0.68407   0.82371
C    -1.55948  -0.16965  -1.22813
C    -2.43392   0.88344  -1.82380
O    -0.86263  -0.94226  -1.85977
H     2.35786   2.96976  -0.23366
H     3.84535   2.04183  -0.63757
H     2.43466   2.02154  -1.75611
H    -3.66656  -1.31801   0.15137
H    -2.99842  -1.12829   1.82470
H    -3.58108   0.29116   0.88166
H    -3.45312   0.47130  -1.92308
H    -2.06052   1.14745  -2.82167
H    -2.48765   1.76839  -1.17571
