36
Generated by autodE on: 2022-06-17. E = -936.830000 Ha. Imaginary frequency = -254.6 cm-1
C     2.86170   2.62739  -0.60483
O     2.24910   1.82544   0.41367
C     0.96857   1.46359   0.20811
O     0.34673   1.76680  -0.80693
C     0.46242   0.66402   1.28745
C     1.17691   0.48100   2.48582
N     1.78203   0.30601   3.46988
O    -0.80094   0.15495   1.33584
C    -1.59821  -0.18862   0.36253
C    -2.79665  -0.96120   0.80443
C    -1.86361   0.71308  -0.85109
C    -2.41663   2.06449  -0.47518
O    -1.88771   0.27785  -1.98300
C    -0.27380  -1.93292  -0.40849
C    -0.93429  -2.15759  -1.70195
O    -1.95200  -2.83148  -1.81422
C     1.06653  -1.57343  -0.31118
C     1.82349  -0.96324  -1.44922
C     1.88467  -2.07667   0.83671
H     2.31123   3.57001  -0.73809
H     3.87930   2.83147  -0.25213
H     2.89581   2.08400  -1.55968
H    -3.64152  -0.27337   0.98157
H    -3.09682  -1.66183   0.01206
H    -2.57293  -1.50764   1.72989
H    -3.50312   1.94375  -0.32343
H    -2.25046   2.76246  -1.30621
H    -1.97816   2.45304   0.45247
H    -0.68522  -2.53213   0.40798
H    -0.42378  -1.75979  -2.60141
H     2.66074  -0.35883  -1.07445
H     2.26411  -1.77519  -2.05614
H     1.19729  -0.34495  -2.10203
H     2.68357  -1.37669   1.11821
H     1.27087  -2.31596   1.71560
H     2.38060  -3.00996   0.50809
