17
Generated by autodE on: 2022-10-21. E = -2995.673360 Ha
C    -2.77132  -0.62185  -0.02463
O    -1.73162  -1.48324  -0.49603
C    -0.48061  -1.02274  -0.53504
C     0.17229   0.11242  -0.21859
Br   -0.34477   1.72727   0.60054
C     1.66630  -0.22999  -0.44484
C     2.08167  -1.25701   0.63558
C     1.42786  -2.37615   0.31025
C     0.63672  -2.00642  -0.96487
O     1.55268  -1.09329  -1.59172
H    -3.70450  -1.19196  -0.11294
H    -2.83538   0.28672  -0.64209
H    -2.60619  -0.34726   1.02786
H     2.33390   0.61974  -0.62480
H     2.72219  -1.04460   1.49098
H     1.37923  -3.33575   0.82326
H     0.31688  -2.81721  -1.62869
