35
Generated by autodE on: 2022-10-21. E = -3617.592163 Ha. Imaginary frequency = -152.2 cm-1
C    -3.46326   3.24959  -1.31894
N    -2.63896   3.09892  -0.13957
C    -1.54941   2.27469  -0.14749
O    -1.10044   1.80914  -1.21117
N    -1.11579   2.04753   1.14121
O     0.06472   1.37469   1.36231
N     0.92036   0.86337   0.50124
C     1.26214   1.58138  -0.65522
O     1.73692   1.05096  -1.63741
O     1.25537   2.89854  -0.42134
C     1.62437   3.73315  -1.52692
C     0.56840  -1.28441   0.08507
Br    1.82187  -1.95254   1.31703
C     0.60774  -1.72698  -1.39281
C     0.00602  -3.15197  -1.43573
C    -1.30274  -2.99295  -1.19874
C    -1.48558  -1.46893  -1.01291
O    -0.48801  -0.96005  -1.89998
C    -0.80350  -1.21299   0.34002
O    -1.32998  -1.10677   1.51636
C    -2.73474  -0.81625   1.65656
H    -4.16739   4.07675  -1.16133
H    -2.83911   3.48241  -2.19316
H    -4.04229   2.33717  -1.55143
H    -3.04417   3.31478   0.76543
H     1.53496   4.76456  -1.16673
H     0.93988   3.56515  -2.37082
H     2.65803   3.52853  -1.84043
H     1.53748  -1.53566  -1.93298
H     0.57512  -4.06740  -1.59206
H    -2.09137  -3.73551  -1.08787
H    -2.47022  -1.02493  -1.18221
H    -2.90145   0.22469   1.33815
H    -3.33540  -1.51668   1.06183
H    -2.95750  -0.92865   2.72274
