32
Generated by autodE on: 2022-05-26. E = -3556.933874 Ha
C    -1.50265  -1.35976   2.16853
C    -1.76488  -0.62000   0.89357
N    -2.95795  -0.23730   0.57807
C    -2.87990   0.41266  -0.71866
C    -3.44419   1.83489  -0.68230
C    -1.44114   0.33578  -1.16398
C    -0.75331  -0.26337  -0.14933
C     0.69866  -0.61027  -0.10606
Cl    0.86120  -2.43904  -0.18963
Br    1.50003  -0.04739   1.67136
C     1.60315  -0.02318  -1.18031
C     1.69496   1.51906  -1.20348
C     1.14766   2.17342  -2.47298
C    -0.37536   2.21006  -2.58351
C    -1.07923   0.83594  -2.53271
H    -0.80591  -2.19528   2.01636
H    -2.45241  -1.74213   2.56670
H    -1.05198  -0.69607   2.92168
H    -3.48577  -0.17552  -1.43453
H    -3.41673   2.29578  -1.68011
H    -2.86166   2.46179   0.01028
H    -4.48939   1.81403  -0.34018
H     1.24815  -0.41550  -2.14415
H     2.59810  -0.46210  -1.02963
H     1.18102   1.94320  -0.32661
H     2.75316   1.79717  -1.08912
H     1.51882   3.21078  -2.52047
H     1.56572   1.65690  -3.35548
H    -0.64083   2.68831  -3.54000
H    -0.79017   2.85528  -1.79125
H    -0.47442   0.08978  -3.07046
H    -2.02153   0.91582  -3.09447
