12
Generated by autodE on: 2022-05-26. E = -211.410633 Ha
C     2.28789   0.07451   0.44843
C     1.16641   0.40759  -0.48930
N     0.04034  -0.08159  -0.35252
C    -1.15557  -0.52286  -0.28780
C    -2.24558   0.16815   0.47251
H     2.66284   1.00717   0.90131
H     2.01532  -0.63627   1.25007
H     3.12987  -0.33686  -0.13230
H    -1.38512  -1.44340  -0.83993
H    -2.67637  -0.50232   1.23599
H    -3.07094   0.45487  -0.20281
H    -1.86946   1.07251   0.97232
