20
Generated by autodE on: 2022-05-26. E = -3345.362673 Ha
Cl    1.97510  -0.27257  -0.83937
C     0.25683  -0.25968  -0.21145
Br   -0.32520  -2.17099  -0.03954
C     0.20411   0.42157   1.05390
C    -0.02637   1.38216   1.76081
C    -0.46205   2.71132   2.15639
C    -0.54572   3.55503   0.85814
C    -1.28310   2.89640  -0.32874
C    -0.47397   1.98910  -1.30038
C    -0.66211   0.45887  -1.21465
H    -1.45423   2.64338   2.63450
H     0.21603   3.18118   2.88603
H     0.47714   3.82226   0.54449
H    -1.05132   4.49890   1.11753
H    -2.16847   2.35070   0.04224
H    -1.68392   3.72344  -0.93515
H    -0.77795   2.25757  -2.32363
H     0.60031   2.23024  -1.24275
H    -1.69870   0.23140  -0.92126
H    -0.49334  -0.00080  -2.19961
