17
Generated by autodE on: 2022-05-26. E = -513.519684 Ha
C     3.06570  -0.00029   0.20235
C     1.84923   0.82190   0.51808
O     1.89072   1.93047   1.05808
C     0.56381   0.25784   0.16111
N    -0.62519   0.82698   0.36219
C    -1.63678   0.04276  -0.08444
C    -3.08073   0.36919  -0.01260
C    -1.02627  -1.12971  -0.61840
O    -1.44843  -2.14981  -1.14280
O     0.36807  -0.93011  -0.43107
H     3.96663   0.55304   0.49585
H     3.10197  -0.23474  -0.87367
H     3.02488  -0.96064   0.74185
H    -0.72103   1.74418   0.80307
H    -3.41643   0.50602   1.02881
H    -3.31879   1.29252  -0.56632
H    -3.65421  -0.45673  -0.45473
