11
Generated by autodE on: 2022-05-26. E = -384.741882 Ha
C    -2.87555   0.70382  -0.50423
N    -1.49319   0.70409  -0.07026
C    -0.62432  -0.28494  -0.36008
O    -0.90250  -1.29096  -1.02066
C     0.71752  -0.08507   0.17882
C     1.84400   0.02833   0.59788
F     3.03065   0.14901   1.03987
H    -3.08402   1.56728  -1.15529
H    -3.55695   0.74744   0.35959
H    -3.07104  -0.21769  -1.06428
H    -1.15480   1.48669   0.48126
