28
Generated by autodE on: 2022-05-26. E = -898.254050 Ha. Imaginary frequency = -432.1 cm-1
C     3.65087   1.38087   0.19469
N     2.65774   0.32453   0.15609
C     1.76692   0.16930   1.16961
O     1.86949   0.79178   2.24316
C     0.69795  -0.76034   0.92878
C    -0.22014  -1.59964   0.83480
F    -0.56575  -2.84264   1.10540
C    -1.94150  -0.92879  -0.12412
C    -3.12034  -1.69482   0.36708
N    -1.74941   0.41629   0.12578
C    -0.71549   0.83771  -0.59855
C     0.01366   2.11887  -0.53019
C    -0.24162   2.99559   0.65688
O     0.84040   2.36194  -1.39794
O    -0.51224  -0.00358  -1.63116
C    -1.30477  -1.14963  -1.42298
O    -1.32052  -2.06347  -2.20804
H     4.25368   1.31076   1.11130
H     4.31655   1.27333  -0.67098
H     3.18995   2.38260   0.16312
H     2.39612  -0.05061  -0.75069
H    -2.96090  -2.76453   0.17959
H    -3.26898  -1.53914   1.44482
H    -4.03251  -1.38479  -0.16791
H    -2.05187   0.87449   0.98637
H     0.26949   2.55472   1.53024
H    -1.31326   3.07273   0.89439
H     0.17475   3.99221   0.46398
