28
Generated by autodE on: 2022-05-31. E = -504.201893 Ha
C    -1.95841   1.33971  -2.27702
C    -0.96350   0.23822  -2.02264
O    -0.94518  -0.77141  -2.70381
C     0.06376   0.45840  -0.89061
C     0.89297   1.71800  -1.23204
C    -0.62098   0.61039   0.39942
C    -0.82799   0.45708   1.58627
C    -0.64930  -0.07377   2.93406
C     0.78604  -0.65205   3.00632
C     1.20994  -1.54430   1.81859
C     1.82707  -0.86235   0.56137
C     0.98120  -0.78811  -0.72806
H    -2.28306   1.82385  -1.34528
H    -1.47236   2.11029  -2.89888
H    -2.82017   0.94243  -2.82974
H     1.36071   1.60511  -2.22225
H     0.27174   2.62416  -1.23445
H     1.68688   1.85179  -0.48327
H    -0.80032   0.68489   3.71868
H    -1.38902  -0.87191   3.11868
H     0.86234  -1.23218   3.94061
H     1.49996   0.18392   3.09907
H     1.97052  -2.23748   2.21175
H     0.36098  -2.18318   1.51736
H     2.72785  -1.43762   0.29550
H     2.19791   0.14134   0.82986
H     0.35231  -1.68852  -0.79800
H     1.64938  -0.81120  -1.60414
