23
Generated by autodE on: 2022-06-25. E = -351.521383 Ha
C    -3.19831   1.56606  -1.27235
C    -2.40106   0.84924  -0.44992
C    -2.94882   0.17856   0.78395
C    -0.97717   0.71282  -0.75004
C    -0.07529   0.02201  -0.00822
C     1.32846  -0.08132  -0.35102
C     2.29059  -0.74870   0.33503
C     2.05184  -1.51557   1.60475
C     3.71182  -0.76381  -0.15254
H    -2.79735   2.05171  -2.16737
H    -4.26676   1.68468  -1.07181
H    -2.44308   0.54472   1.69287
H    -4.02728   0.36154   0.89135
H    -2.78397  -0.91125   0.75028
H    -0.62819   1.22046  -1.65740
H    -0.41653  -0.48686   0.89727
H     1.63139   0.44134  -1.26646
H     1.01036  -1.48741   1.94991
H     2.34138  -2.57309   1.47203
H     2.69277  -1.12305   2.41390
H     4.05434  -1.79957  -0.32784
H     3.83816  -0.19315  -1.08426
H     4.39190  -0.34327   0.61000
