32
Generated by autodE on: 2022-06-25. E = -765.074472 Ha
C    -2.65189   2.40436  -1.59623
C    -1.23995   1.92536  -1.39164
O    -0.28597   2.56244  -1.86971
C    -0.98599   0.72079  -0.59961
N     0.32576   0.51241  -0.40902
N     0.89788  -0.46595   0.19791
C     2.28205  -0.38426   0.32951
C     2.94098  -1.58036   0.68540
C     4.32466  -1.61053   0.83961
C     5.08221  -0.44752   0.65381
C     4.43510   0.74845   0.32131
C     3.05004   0.79128   0.16503
C    -2.00286  -0.16873  -0.01678
C    -1.93137  -0.55999   1.33508
C    -2.91158  -1.38350   1.88804
C    -3.97726  -1.83901   1.10326
C    -4.05455  -1.46370  -0.24087
C    -3.07600  -0.63745  -0.79743
H    -3.29677   2.19674  -0.73189
H    -3.09176   1.89649  -2.47059
H    -2.62930   3.48233  -1.80665
H     0.88411   1.26037  -0.86626
H     2.33970  -2.48086   0.82503
H     4.81741  -2.54826   1.10738
H     6.16685  -0.46952   0.77923
H     5.01471   1.66613   0.19529
H     2.57552   1.75056  -0.05474
H    -1.10700  -0.20768   1.95581
H    -2.84517  -1.66998   2.94034
H    -4.74244  -2.48616   1.53833
H    -4.87799  -1.82044  -0.86403
H    -3.13596  -0.36496  -1.85211
