32
Generated by autodE on: 2022-07-27. E = -765.067299 Ha
C    -0.05847  -0.03452  -3.21929
C     0.97332  -0.61528  -2.28805
O     1.96442  -1.19025  -2.75309
C     0.80546  -0.53289  -0.83238
N    -0.15407   0.20553  -0.24310
N    -0.93228   1.09619  -0.76448
C    -1.95166   1.56671   0.05622
C    -2.56171   2.77723  -0.33996
C    -3.58028   3.34094   0.42298
C    -4.02287   2.70839   1.59231
C    -3.44092   1.49680   1.98036
C    -2.42303   0.91879   1.22103
C     1.70856  -1.24797   0.08929
C     2.11735  -0.64559   1.29699
C     2.92669  -1.33314   2.20449
C     3.35885  -2.63002   1.91763
C     2.96932  -3.23609   0.71688
C     2.15328  -2.55803  -0.18690
H     0.12593  -0.43882  -4.22405
H     0.02535   1.06260  -3.24477
H    -1.08311  -0.25880  -2.88999
H    -0.23301   0.03560   0.77320
H    -2.20481   3.26503  -1.24914
H    -4.03409   4.28259   0.10491
H    -4.82483   3.14943   2.18813
H    -3.79612   0.98211   2.87642
H    -2.02837  -0.05350   1.52496
H     1.82192   0.38274   1.52014
H     3.23237  -0.84353   3.13210
H     3.99877  -3.16610   2.62228
H     3.29715  -4.25271   0.48685
H     1.84426  -3.04848  -1.10925
