55
Generated by autodE on: 2022-06-25. E = -1116.567051 Ha. Imaginary frequency = -342.5 cm-1
C     1.20560  -3.48883   0.81025
C     0.42844  -2.38560   0.82668
C    -0.17969  -1.88686   2.11386
C     0.16697  -1.64222  -0.41730
C    -1.00501  -0.83607  -0.56382
C    -1.60056  -0.69822  -1.89236
C    -2.91564  -0.61356  -2.19746
C    -4.03252  -0.66194  -1.19166
C    -3.36340  -0.48108  -3.62699
N    -0.25406   1.05781  -0.20419
C    -1.08519   1.84189   0.59817
C    -2.38810   2.09870   0.11647
C    -3.29062   2.84646   0.86659
C    -2.91477   3.38475   2.10522
C    -1.61669   3.16612   2.57420
C    -0.70544   2.40516   1.83651
N     0.96462   0.80260   0.29715
C     1.68560  -0.11382  -0.42554
C     1.75215   0.15395  -1.91255
C     1.62670   1.57806  -2.40220
O     1.95937  -0.74832  -2.71353
C     2.89611  -0.69117   0.20960
C     3.32318  -0.27669   1.48742
C     4.43364  -0.86189   2.09711
C     5.14830  -1.87330   1.44830
C     4.73804  -2.28999   0.17942
C     3.62649  -1.70925  -0.43291
H     1.63553  -3.86509  -0.12122
H     1.42138  -4.04748   1.72535
H    -1.28061  -1.94502   2.08514
H     0.16958  -2.48013   2.97056
H     0.06638  -0.83107   2.31104
H     0.54918  -2.11696  -1.32362
H    -1.68672  -0.79325   0.28594
H    -0.88766  -0.69320  -2.72459
H    -3.68693  -0.76227  -0.15509
H    -4.65327   0.24828  -1.25859
H    -4.70438  -1.50970  -1.41503
H    -2.51528  -0.46469  -4.32731
H    -3.94740   0.44640  -3.76676
H    -4.03498  -1.31150  -3.90929
H    -2.66968   1.70170  -0.85759
H    -4.29584   3.02217   0.47521
H    -3.62124   3.97940   2.68842
H    -1.29995   3.59657   3.52769
H     0.30522   2.27572   2.22586
H     1.03332   0.69425   1.31214
H     2.39260   1.73199  -3.17718
H     1.73358   2.32149  -1.60430
H     0.64160   1.70901  -2.87504
H     2.80813   0.52387   2.02110
H     4.74446  -0.51697   3.08606
H     6.01657  -2.33089   1.92780
H     5.28362  -3.08048  -0.34140
H     3.31220  -2.05082  -1.41708
