58
Generated by autodE on: 2022-06-28. E = -1317.832184 Ha
C     1.94870   4.37189  -2.17794
N     1.75122   3.43090  -1.09055
C     0.64075   2.68622  -0.99025
O    -0.27623   2.80088  -1.82031
C     0.56544   1.66239   0.18169
C     1.13028   2.29971   1.46290
C     1.31033   0.37178  -0.26126
C     1.91235  -0.44671   0.89100
C     2.10305  -1.89164   0.50350
C     2.95245  -2.79682   1.28367
N     3.56168  -2.26504   2.37671
O     3.12921  -4.00018   0.99490
C     1.42382  -2.42031  -0.55705
N     0.55241  -1.74078  -1.33815
C    -0.08067  -2.34759  -2.49481
C     0.20800  -0.37979  -1.02199
C    -1.09175  -0.13089  -0.14726
C    -2.34308  -0.10063  -1.08230
O    -3.21712  -0.97792  -1.07503
N    -2.39481   0.95298  -1.90764
C    -3.47640   1.11698  -2.85502
C    -1.27607  -1.17506   0.96131
C    -1.52319  -2.52874   0.67151
C    -1.62180  -3.47619   1.69285
C    -1.48697  -3.09246   3.03062
C    -1.25942  -1.74813   3.33376
C    -1.15488  -0.80384   2.30800
N    -0.79866   1.19634   0.36240
C    -1.81462   2.05912   0.91031
H     2.90629   4.88629  -2.03233
H     1.96414   3.85962  -3.15332
H     1.14241   5.12105  -2.20179
H     2.49667   3.30277  -0.41618
H     0.67865   3.28470   1.64715
H     0.91788   1.65875   2.32722
H     2.22041   2.42889   1.40446
H     2.11744   0.61644  -0.96520
H     2.87660   0.01003   1.16402
H     1.27866  -0.38001   1.78726
H     3.41320  -1.30995   2.67544
H     4.13070  -2.87234   2.95556
H     1.57573  -3.46773  -0.82440
H     0.23036  -1.84290  -3.42566
H     0.20385  -3.40580  -2.55685
H    -1.17819  -2.28534  -2.42874
H     0.03968   0.13917  -1.97346
H    -1.65364   1.66572  -1.84393
H    -3.30181   2.02985  -3.43900
H    -4.45078   1.20598  -2.34633
H    -3.54004   0.26159  -3.54765
H    -1.64206  -2.85516  -0.35835
H    -1.80313  -4.52359   1.43890
H    -1.56152  -3.83509   3.82881
H    -1.15547  -1.42871   4.37371
H    -0.95631   0.23710   2.55777
H    -2.02329   2.93831   0.27099
H    -2.75447   1.50086   1.02272
H    -1.54620   2.43314   1.91368
