20
Generated by autodE on: 2022-06-28. E = -457.715316 Ha
C    -3.07479  -0.77641  -0.20500
N    -1.81700  -0.14823   0.16463
C    -1.82993   1.00808   0.95469
C    -0.71288   1.68137   1.27262
C     0.66185   1.26186   0.81335
C     0.57419   0.01733  -0.05492
C     1.77782  -0.59062  -0.64453
N     2.95385   0.02769  -0.36916
O     1.75226  -1.61294  -1.35958
C    -0.61986  -0.58545  -0.31698
H    -3.67104  -1.00811   0.69132
H    -3.67458  -0.12194  -0.85981
H    -2.87024  -1.71270  -0.73923
H    -2.81900   1.32034   1.29483
H    -0.80354   2.57249   1.89796
H     1.14983   2.09369   0.26522
H     1.31916   1.08758   1.69010
H     3.80748  -0.35833  -0.75750
H     3.01495   0.85738   0.20693
H    -0.65290  -1.47730  -0.94478
