38
Generated by autodE on: 2022-06-28. E = -860.043778 Ha
C     3.94576   1.50804   1.65749
N     3.42474   1.01054   0.40048
C     2.32789   0.22515   0.36140
O     1.78647  -0.17713   1.40362
C     1.87731  -0.20730  -0.99478
C     2.87429  -0.45482  -2.08564
N     0.58587  -0.47262  -1.19670
C     0.22608  -1.27682  -2.38400
C    -0.44701   0.05982  -0.44034
C    -0.29429   1.41077   0.09198
O     0.56617   2.22576  -0.31450
N    -1.15760   1.79178   1.07395
C    -1.19792   3.15510   1.55472
C    -1.60075  -0.80186  -0.16099
C    -2.93564  -0.33800  -0.21155
C    -4.00539  -1.19025   0.06316
C    -3.78132  -2.53629   0.37591
C    -2.46808  -3.01715   0.41912
C    -1.39522  -2.16260   0.16572
H     3.22375   2.17551   2.15793
H     4.16971   0.67795   2.34381
H     4.86968   2.06677   1.46386
H     3.76912   1.41775  -0.46210
H     3.88938  -0.20683  -1.75733
H     2.64827   0.14049  -2.98733
H     2.88627  -1.51335  -2.39435
H    -0.85636  -1.41796  -2.40805
H     0.73118  -2.25066  -2.36216
H     0.52934  -0.73257  -3.28901
H    -1.87164   1.14586   1.38652
H    -1.89815   3.21351   2.39789
H    -0.20429   3.48216   1.89923
H    -1.52970   3.86434   0.77646
H    -3.13512   0.69820  -0.49070
H    -5.02646  -0.80356   0.01310
H    -4.62174  -3.20292   0.58241
H    -2.27639  -4.06415   0.66790
H    -0.37291  -2.54085   0.23480
