58
Generated by autodE on: 2022-06-28. E = -1317.742099 Ha. Imaginary frequency = -302.8 cm-1
C     0.17296   4.37155  -2.67123
N     0.20983   3.63559  -1.42192
C     0.41542   2.30164  -1.37393
O     0.59377   1.64769  -2.40502
C     0.45462   1.74830   0.05949
C     1.15438   2.66758   1.02575
C     1.97886   0.13470  -0.38944
C     2.70845  -0.20834   0.89931
C     2.56163  -1.67040   1.27174
C     3.20464  -2.22638   2.46905
N     3.98405  -1.37439   3.18351
O     3.05272  -3.40793   2.84565
C     1.77398  -2.50669   0.54052
N     1.10024  -2.12157  -0.57916
C     0.29906  -3.07421  -1.33297
C     1.21755  -0.82311  -1.04377
C    -1.24394   0.01576  -0.22470
C    -1.82619   0.37184  -1.53343
O    -1.91487  -0.43278  -2.48420
N    -2.34628   1.62112  -1.65424
C    -2.73081   2.15374  -2.94459
C    -1.70323  -1.21312   0.41444
C    -2.85966  -1.90196  -0.03741
C    -3.25568  -3.11085   0.52713
C    -2.52890  -3.68342   1.58123
C    -1.40015  -3.01302   2.05917
C    -0.99239  -1.80818   1.48574
N    -0.59652   1.00236   0.53090
C    -0.89768   1.11690   1.97113
H     0.36192   5.43314  -2.46526
H     0.94852   3.99455  -3.35202
H    -0.80152   4.27951  -3.17678
H     0.01595   4.14091  -0.56509
H     0.52340   3.51325   1.35418
H     1.46672   2.13765   1.93405
H     2.05327   3.08028   0.54995
H     2.43161   0.89708  -1.01937
H     3.77676   0.05798   0.78835
H     2.35366   0.42074   1.73637
H     4.14902  -0.41735   2.89960
H     4.45272  -1.72376   4.01194
H     1.65040  -3.54904   0.83454
H     0.88747  -3.54001  -2.14247
H    -0.07112  -3.86167  -0.66410
H    -0.55760  -2.55323  -1.77654
H     0.84118  -0.65000  -2.04702
H    -2.24899   2.26150  -0.87564
H    -1.89515   2.10336  -3.66146
H    -3.03313   3.20135  -2.82351
H    -3.57710   1.59378  -3.37290
H    -3.44748  -1.48553  -0.85554
H    -4.14951  -3.61144   0.14533
H    -2.84149  -4.63351   2.02063
H    -0.80941  -3.43865   2.87477
H    -0.09329  -1.33269   1.86738
H    -1.05691   2.17424   2.22067
H    -1.82099   0.57244   2.18407
H    -0.09498   0.72283   2.60721
