36
Generated by autodE on: 2022-06-17. E = -617.479755 Ha
C     3.68062   0.67886  -1.07815
N     2.41469   0.65798  -0.38333
C     1.69505  -0.44614  -0.14695
O     2.04067  -1.58798  -0.49218
C     0.38284  -0.21411   0.63220
C     0.50372  -1.09503   1.88403
N     0.25480   1.20883   1.03152
C    -0.89398   1.78669   0.32927
C    -1.88489   0.63826   0.08365
C    -2.67166   0.35307   1.37446
C    -2.89725   0.98910  -1.01097
C    -0.88786  -0.52809  -0.29659
C    -1.46400  -1.92737  -0.06517
C    -0.52032  -0.43552  -1.79125
H     3.65220   1.37793  -1.92874
H     4.50211   0.98529  -0.40995
H     3.89529  -0.32859  -1.45651
H     2.01065   1.50035   0.02806
H     0.70266  -2.13948   1.61618
H    -0.40348  -1.05544   2.49976
H     1.34875  -0.73809   2.49522
H     0.07968   1.24191   2.03327
H    -0.56990   2.21670  -0.63345
H    -1.32918   2.60575   0.92051
H    -2.02143   0.12928   2.23093
H    -3.36636  -0.49048   1.24808
H    -3.27184   1.23797   1.63996
H    -3.57584   1.77903  -0.65022
H    -3.51824   0.11859  -1.27807
H    -2.41802   1.36141  -1.92705
H    -1.74116  -2.11865   0.97840
H    -2.36551  -2.06980  -0.68271
H    -0.73141  -2.69259  -0.36444
H    -0.12074   0.54970  -2.07005
H    -1.40349  -0.63045  -2.41503
H     0.23353  -1.18908  -2.05069
