18
Generated by autodE on: 2022-06-17. E = -235.968070 Ha
C     1.40911  -0.95599   0.99291
C     0.66442   0.03130   0.12669
C     1.58255   1.09668  -0.42256
C    -0.66442  -0.03130  -0.12669
C    -1.58255  -1.09669   0.42255
C    -1.40911   0.95601  -0.99290
H     2.22111  -1.43540   0.41711
H     1.90160  -0.43425   1.83318
H     0.78230  -1.75129   1.41358
H     2.07557   1.64112   0.40287
H     1.08616   1.83614  -1.06228
H     2.39711   0.63546  -1.00948
H    -2.07542  -1.64124  -0.40291
H    -1.08619  -1.83606   1.06239
H    -2.39721  -0.63548   1.00932
H    -1.90184   0.43424  -1.83301
H    -2.22092   1.43562  -0.41700
H    -0.78226   1.75115  -1.41378
