26
Generated by autodE on: 2022-05-28. E = -962.665164 Ha
C     3.57305   2.44746   0.23310
N     2.86594   1.21966  -0.07978
C     1.57080   1.20988  -0.41650
O     0.86317   2.22074  -0.47896
C     0.99070  -0.14659  -0.77831
N     1.59301  -1.28266  -0.09206
N     0.66009  -2.32822  -0.41254
C    -0.65837  -1.83008  -0.29918
F    -1.25267  -2.12016   0.90825
F    -1.48103  -2.37663  -1.22353
C    -0.52483  -0.28045  -0.51221
F    -1.27153   0.10328  -1.59229
C    -0.94372   0.48055   0.74487
O    -0.28368   0.42832   1.76144
O    -2.06835   1.15133   0.59242
C    -2.51738   1.91979   1.72541
H     4.52156   2.19795   0.72390
H     3.78716   3.03556  -0.67444
H     2.97164   3.07024   0.91053
H     3.37422   0.34017  -0.09710
H     1.11164  -0.28067  -1.86628
H     1.53474  -1.08696   0.91570
H     0.83969  -3.18240   0.11457
H    -3.45245   2.39623   1.41168
H    -1.76533   2.67883   1.98228
H    -2.69017   1.25971   2.58666
