14
Generated by autodE on: 2022-05-28. E = -358.148218 Ha
C    -2.91573   0.15432  -0.39990
N    -1.60131  -0.41831  -0.60033
C    -0.49861   0.10882  -0.02133
O    -0.55327   1.13083   0.69625
C     0.75885  -0.57737  -0.28154
N     1.83735  -0.05804   0.29599
N     3.08228  -0.38306   0.29503
H    -2.93626   1.21711  -0.68863
H    -3.23592   0.08733   0.65355
H    -3.63893  -0.39051  -1.01912
H    -1.50775  -1.26505  -1.15089
H     0.86330  -1.46757  -0.90239
H     1.60254   0.77824   0.85655
H     3.16567  -1.22272  -0.29719
