12
Generated by autodE on: 2022-05-28. E = -604.439689 Ha
C     3.23468  -0.00113   0.64912
O     1.87914  -0.47321   0.71271
C     0.97516   0.22843   0.03067
O     1.21780   1.22160  -0.62652
C    -0.37047  -0.35953   0.17581
F    -0.49828  -1.46507   0.92266
C    -1.47854   0.14432  -0.39422
F    -1.51414   1.21147  -1.14048
F    -2.65691  -0.40101  -0.24855
H     3.82136  -0.69052   1.26655
H     3.59604  -0.01588  -0.38914
H     3.30283   1.02143   1.04718
