30
Generated by autodE on: 2022-05-26. E = -854.463744 Ha
C     4.78339   0.76928   1.12579
N     3.55934   0.26140   0.53271
C     2.35711   0.63922   0.98107
O     2.17882   1.41052   1.92506
C     1.16068   0.08472   0.22425
C     1.11750  -1.29295  -0.40446
C    -0.16784  -1.49414  -0.73310
C    -0.83756  -2.59351  -1.47056
C    -0.89717  -0.21379  -0.25759
C    -2.39823  -0.30973  -0.10962
O    -3.11601  -0.39993  -1.10909
N    -2.85864  -0.31489   1.14843
C    -4.27289  -0.44971   1.44234
N    -0.08599   0.13690   0.92926
C    -0.37932   0.85630  -1.26587
O    -0.95438   1.41769  -2.16353
O     0.91197   1.06217  -0.94498
H     4.79404   0.58313   2.21002
H     4.88481   1.85434   0.96400
H     5.63799   0.25893   0.66679
H     3.62076  -0.34979  -0.27549
H     1.97888  -1.92644  -0.61089
H    -0.11236  -3.36039  -1.77559
H    -1.61515  -3.06381  -0.84572
H    -1.34659  -2.20080  -2.36502
H    -2.18844  -0.29279   1.91023
H    -4.85501   0.32090   0.91516
H    -4.42368  -0.33346   2.52205
H    -4.65477  -1.43600   1.13281
H    -0.26238   1.09789   1.24067
