23
Generated by autodE on: 2022-05-26. E = -737.711893 Ha
C     4.86965  -0.67432   0.29045
N     3.43957  -0.66126   0.53311
C     2.59287  -0.08918  -0.33295
O     2.91708   0.46388  -1.38806
C     1.16231  -0.14575   0.04244
N     0.18640   0.35267  -0.67954
C    -1.02640   0.14453  -0.05960
C    -2.27927   0.59468  -0.65634
O    -2.29182   1.18512  -1.74982
N    -3.39589   0.32283   0.05177
C    -4.70733   0.72108  -0.41578
C    -0.76400  -0.54083   1.14734
O    -1.43036  -0.97253   2.07069
O     0.67788  -0.69739   1.14939
H     5.36224  -1.20311   1.11427
H     5.10340  -1.18622  -0.65592
H     5.26899   0.35026   0.23199
H     3.06820  -1.09262   1.37495
H     0.31442   0.82699  -1.57590
H    -3.30124  -0.15246   0.94524
H    -5.46393   0.32412   0.27187
H    -4.81006   1.81819  -0.45645
H    -4.90640   0.32747  -1.42491
