30
Generated by autodE on: 2022-05-26. E = -854.394429 Ha. Imaginary frequency = -470.6 cm-1
C     4.73309   1.09149   1.06210
N     3.44807   0.90239   0.41550
C     2.38308   0.44393   1.08214
O     2.36955   0.12229   2.27309
C     1.14261   0.25834   0.26865
C     1.11857  -1.66738  -0.30644
C     0.02520  -1.91834  -0.85690
C    -1.09897  -2.50162  -1.57945
C    -1.00153   0.29938  -0.14356
C    -2.45099   0.09261  -0.02973
O    -3.15142   0.02792  -1.05179
N    -2.97075  -0.05455   1.20740
C    -4.38797  -0.29612   1.39823
N    -0.07459   0.34357   0.86832
C    -0.32463   0.72679  -1.34386
O    -0.67843   0.98572  -2.47551
O     1.03119   0.83876  -0.96641
H     4.97752   0.21768   1.68265
H     4.73392   1.98387   1.70910
H     5.50443   1.21254   0.29213
H     3.33164   1.18079  -0.55447
H     2.09400  -2.04230  -0.01552
H    -0.79288  -3.43577  -2.08136
H    -1.93005  -2.73241  -0.89441
H    -1.48354  -1.80891  -2.34467
H    -2.38495   0.03652   2.02933
H    -4.71089  -1.20230   0.86260
H    -4.99448   0.54746   1.03097
H    -4.58143  -0.42982   2.46925
H    -0.19821  -0.06880   1.79227
