32
Generated by autodE on: 2022-06-17. E = -930.616826 Ha
C     3.66711   0.80456   0.55395
O     2.72267  -0.20138   0.14716
C     1.47587  -0.06080   0.57041
O     1.10047   0.84864   1.28312
C     0.55783  -1.18789   0.06711
C     1.09378  -2.53623   0.53165
C    -0.90992  -0.89968   0.51963
C    -1.11779  -0.56947   1.98284
O    -0.75796  -1.34532   2.85627
C    -1.82554   0.68301   2.33859
C    -2.03542   1.67220   1.45200
C    -1.55445   1.56363   0.05950
O    -1.34611   2.54479  -0.63290
C    -1.39526   0.15620  -0.48891
N    -0.36274   0.08757  -1.53659
C    -0.40087   0.73091  -2.68774
N    -0.41114   1.27448  -3.72374
N     0.49244  -1.05395  -1.40313
C    -0.05570  -2.20911  -2.12352
H     3.74956   0.82748   1.64970
H     3.35106   1.79112   0.18661
H     4.62387   0.51734   0.10397
H     2.06952  -2.73950   0.07076
H     1.21238  -2.51908   1.62270
H     0.39443  -3.34370   0.27954
H    -1.47171  -1.83063   0.35868
H    -2.10492   0.78405   3.39047
H    -2.47968   2.62753   1.74266
H    -2.38940  -0.11886  -0.88301
H    -1.03449  -2.54984  -1.74170
H     0.66273  -3.03621  -2.07169
H    -0.16537  -1.92854  -3.17996
