20
Generated by autodE on: 2022-06-17. E = -548.948486 Ha
C     3.86058  -0.09807   0.46282
O     2.58913  -0.56431  -0.01250
C     1.51079   0.08757   0.42855
O     1.57082   1.04291   1.18131
C     0.26481  -0.53765  -0.08820
C     0.23448  -1.96692  -0.49907
N    -0.86589   0.14798  -0.13114
C    -0.97426   1.59252   0.16592
N    -1.97018  -0.52263  -0.48552
C    -3.10096   0.13627  -0.56798
N    -4.18280   0.58582  -0.67819
H     3.90945  -0.17224   1.55880
H     4.61038  -0.75106   0.00236
H     4.02363   0.94586   0.15894
H    -0.16182  -2.05831  -1.52404
H    -0.45890  -2.52865   0.14935
H     1.23098  -2.41355  -0.44403
H    -0.01263   2.08428   0.02312
H    -1.31322   1.71727   1.20284
H    -1.71801   2.01435  -0.51934
