32
Generated by autodE on: 2022-06-17. E = -930.574506 Ha. Imaginary frequency = -368.9 cm-1
C     2.78401   0.52431   2.31843
O     2.00978  -0.42811   1.57325
C     1.66830  -0.08705   0.33082
O     2.00205   0.95373  -0.19098
C     0.87064  -1.19127  -0.32778
C     1.22907  -2.59313   0.06090
C    -1.12897  -0.89044   0.57883
C    -0.80753  -0.52146   1.96328
O    -0.61274  -1.36303   2.84036
C    -0.71915   0.92958   2.28105
C    -1.12531   1.87324   1.41238
C    -1.71189   1.51271   0.10146
O    -2.20866   2.36080  -0.63067
C    -1.66545   0.07783  -0.30211
N    -0.20534   0.26377  -1.66633
C    -0.62833   0.69675  -2.84099
N    -1.02652   1.18686  -3.82738
N     0.42460  -0.92663  -1.58565
C    -0.02136  -2.01113  -2.46566
H     2.88754   0.10201   3.32395
H     3.77106   0.65597   1.85294
H     2.26389   1.49110   2.35927
H     0.51978  -3.32465  -0.34160
H     2.24401  -2.84383  -0.29110
H     1.22304  -2.66901   1.15479
H    -1.40420  -1.93721   0.43712
H    -0.32284   1.18156   3.26764
H    -1.07892   2.93975   1.64517
H    -2.42208  -0.21717  -1.03264
H    -0.19104  -1.59500  -3.46573
H    -0.95904  -2.44873  -2.08547
H     0.75709  -2.77793  -2.53000
