20
Generated by autodE on: 2022-06-23. E = -457.715332 Ha
C    -3.11537  -0.54659   0.30353
N    -1.82631   0.09130   0.09252
C    -1.77699   1.39530  -0.41575
C    -0.62352   2.01462  -0.71239
C     0.72864   1.36991  -0.53180
C     0.57468  -0.04779  -0.00509
C     1.74677  -0.90187   0.24536
N     2.95483  -0.35433  -0.04068
O     1.66930  -2.06350   0.69499
C    -0.65201  -0.57898   0.26088
H    -3.76193   0.08642   0.93073
H    -3.63532  -0.73379  -0.65138
H    -2.96592  -1.50604   0.81459
H    -2.74929   1.87290  -0.54961
H    -0.66642   3.03552  -1.09872
H     1.35359   1.98004   0.15250
H     1.28463   1.37812  -1.49167
H     3.05791   0.57966  -0.41601
H     3.78854  -0.91106   0.11179
H    -0.73368  -1.60007   0.63695
