29
Generated by autodE on: 2022-06-23. E = -758.368361 Ha
C     3.86758   2.22456  -0.69625
N     3.84855   0.79241  -0.94100
C     2.79108  -0.03169  -0.79130
O     2.85866  -1.25473  -1.02590
C     1.52970   0.56797  -0.33540
N     0.53567  -0.28348  -0.18547
C    -0.75039  -0.26145   0.21180
C    -1.30915  -1.63498   0.26068
O    -0.60368  -2.59761  -0.11249
N    -2.56304  -1.79064   0.71132
C    -3.17790  -3.09603   0.81422
C    -1.52379   0.94445   0.52252
O    -2.61587   0.87985   1.12682
N    -1.03394   2.14537   0.12545
C    -1.80132   3.36058   0.32547
H     4.87441   2.59843  -0.91772
H     3.63783   2.46532   0.35358
H     3.15478   2.76072  -1.34212
H     4.70288   0.34329  -1.25830
H     1.42304   1.61680  -0.08248
H     0.81290  -1.26514  -0.41009
H    -3.02676  -0.94424   1.04649
H    -4.21808  -2.97377   1.14076
H    -3.17242  -3.61823  -0.15555
H    -2.65473  -3.73868   1.54231
H    -0.29313   2.17496  -0.56581
H    -2.07323   3.47239   1.38464
H    -1.18698   4.21837   0.02484
H    -2.73287   3.36457  -0.26562
