49
Generated by autodE on: 2022-06-23. E = -1216.077229 Ha. Imaginary frequency = -431.3 cm-1
C    -4.23933  -3.75535  -0.29035
N    -3.25372  -2.82141   0.21578
C    -2.96267  -1.67726  -0.43224
O    -3.56038  -1.32566  -1.46487
C    -1.85591  -0.86249   0.11878
N    -1.80836   0.39445  -0.38101
C    -0.69564   1.18947  -0.40951
C     0.05086   1.54910   0.81893
O     1.06612   2.27584   0.77396
N    -0.39587   1.07774   2.00101
C     0.33945   1.30293   3.23073
C    -0.72243   2.11451  -1.58400
O    -1.58973   1.96350  -2.46692
N     0.24400   3.04047  -1.66935
C     0.35248   3.92941  -2.80603
C     0.63248  -0.47747  -1.26753
C     2.04318  -0.04818  -0.94799
C     2.42008  -0.49787   0.44656
C     3.48976   0.14259   1.22002
N     4.26437   1.03700   0.55904
O     3.70602  -0.10786   2.42655
C     1.78032  -1.56351   1.00303
N     0.76162  -2.23948   0.39783
C     0.15748  -3.37770   1.06991
C     0.08922  -1.63741  -0.69283
H    -4.27483  -4.62789   0.37307
H    -5.24111  -3.29841  -0.32703
H    -3.98553  -4.09312  -1.30813
H    -2.70965  -3.07147   1.03447
H    -1.50059  -1.07237   1.12432
H    -2.34966   0.49044  -1.25124
H    -1.29154   0.60956   2.05499
H    -0.19633   0.81199   4.05244
H     1.35295   0.87850   3.16454
H     0.43174   2.37701   3.45923
H     0.89146   3.08264  -0.87838
H     0.41810   3.36348  -3.74894
H     1.25906   4.53735  -2.69631
H    -0.51660   4.60392  -2.88045
H     0.25329  -0.22368  -2.25877
H     2.73386  -0.47428  -1.70693
H     2.13516   1.04351  -1.04641
H     4.99470   1.51996   1.07049
H     4.12707   1.25972  -0.41840
H     2.08408  -1.93736   1.98236
H    -0.59508  -3.07086   1.81796
H     0.93450  -3.95889   1.58376
H    -0.32954  -4.02835   0.33090
H    -0.49161  -2.32847  -1.30321
