32
Generated by autodE on: 2022-07-03. E = -797.706314 Ha
C    -4.99640   1.27070  -0.00030
N    -3.59596   1.44108  -0.33238
C    -2.67902   0.51459  -0.00115
O    -2.98021  -0.52980   0.60684
C    -1.26842   0.77920  -0.38917
C    -0.82830   1.90685  -1.25417
N    -0.46031  -0.17815   0.02603
C     0.87050  -0.43531  -0.04053
C     1.16491  -1.84950   0.25380
O     0.24348  -2.62550   0.59352
N     2.44291  -2.25936   0.14303
C     2.82682  -3.63109   0.39215
C     1.92332   0.58167  -0.13669
O     3.05544   0.31994  -0.60103
N     1.66493   1.80209   0.38764
C     2.60777   2.89590   0.27190
H    -5.55014   2.15495  -0.33752
H    -5.41811   0.37904  -0.49106
H    -5.13664   1.15532   1.08625
H    -3.30597   2.28784  -0.80715
H     0.02803   1.59697  -1.87294
H    -0.51941   2.80268  -0.68945
H    -1.64251   2.20610  -1.92964
H    -0.97851  -0.97926   0.43856
H     3.11131  -1.57132  -0.20314
H     2.33648  -4.32811  -0.30846
H     2.56035  -3.94520   1.41412
H     3.91341  -3.72320   0.27117
H     0.77895   1.97479   0.84639
H     2.14980   3.80155   0.68852
H     2.86937   3.08445  -0.78167
H     3.54170   2.68890   0.81942
