74
Generated by autodE on: 2022-07-03. E = -4370.543789 Ha. Imaginary frequency = -219.8 cm-1
C     1.60285  -4.30900  -0.80909
N     2.32138  -3.71075  -1.91797
C     2.57228  -2.38377  -1.95873
O     2.27657  -1.61137  -1.04119
C     3.28806  -1.86508  -3.18124
C     3.25636  -0.38409  -3.37718
N     4.25078  -2.67259  -3.62738
C     5.00766  -2.69730  -4.76739
C     5.90183  -1.61662  -5.24443
O     6.51399  -1.73342  -6.32390
N     6.11733  -0.54934  -4.44876
C     6.92727   0.56688  -4.89279
C     5.44085  -4.11956  -4.99050
O     4.88094  -5.02785  -4.33646
N     6.43231  -4.36453  -5.85219
C     6.86882  -5.70829  -6.15853
C     2.88565  -2.25369  -6.06500
C     1.98903  -2.24295  -5.19730
C     0.49773  -2.15317  -5.13161
C    -0.06910  -2.20191  -3.69021
O    -0.39052  -3.21613  -3.11459
O    -0.18532  -0.98597  -3.16442
C    -0.76357  -0.87817  -1.85026
C     0.01731  -0.79823  -5.71612
O    -1.07903  -0.64296  -6.21174
O     0.91518   0.16586  -5.59677
C     0.56940   1.45812  -6.11095
C    -0.14762  -3.33193  -5.92937
C     0.62220  -3.93507  -7.10626
C     0.93850  -3.09177  -8.35003
C     1.80070  -1.82407  -8.23246
C     3.15149  -1.97020  -7.48112
Br    3.89763  -0.03505  -7.50688
C     4.07377  -2.91277  -8.22534
C     4.09642  -4.26500  -7.85696
C     4.77511  -5.20632  -8.63566
C     5.47049  -4.80484  -9.77741
C     5.46999  -3.45384 -10.14187
C     4.76774  -2.51964  -9.37931
H     2.00489  -3.93589   0.14229
H     1.73028  -5.39852  -0.84706
H     0.52697  -4.07459  -0.85174
H     2.31883  -4.21905  -2.79863
H     3.56795  -0.09740  -4.38535
H     2.23606  -0.02225  -3.20809
H     3.90647   0.11077  -2.63334
H     4.17483  -3.65265  -3.30674
H     5.68101  -0.49510  -3.53845
H     6.91148   1.34296  -4.11757
H     6.53336   0.99053  -5.83002
H     7.97194   0.26443  -5.07008
H     6.75923  -3.55885  -6.38898
H     6.00998  -6.38821  -6.24906
H     7.41684  -5.69919  -7.10846
H     7.53382  -6.10782  -5.37372
H    -1.74746  -1.36648  -1.83184
H    -0.86454   0.19609  -1.65985
H    -0.09548  -1.33484  -1.10948
H     0.33573   1.39189  -7.18293
H    -0.29627   1.86432  -5.56820
H     1.45135   2.08835  -5.95395
H    -1.14362  -2.98964  -6.24530
H    -0.30512  -4.14153  -5.20588
H     0.00483  -4.77940  -7.45633
H     1.54278  -4.39593  -6.72533
H     1.41391  -3.76739  -9.07962
H    -0.01015  -2.76713  -8.81074
H     2.02749  -1.47486  -9.25093
H     1.23570  -1.01633  -7.75579
H     3.57594  -4.58921  -6.95580
H     4.77093  -6.25546  -8.33471
H     6.01228  -5.53804 -10.37945
H     6.01543  -3.12466 -11.02951
H     4.76724  -1.47040  -9.67617
