23
Generated by autodE on: 2022-06-21. E = -351.521383 Ha
C    -3.44169   0.31783   1.53467
C    -2.51912   0.17208   0.55820
C    -2.92354   0.04027  -0.88799
C    -1.09736   0.14056   0.89582
C    -0.07776   0.00162   0.01150
C     1.31794  -0.02212   0.39881
C     2.39122  -0.15180  -0.42151
C     2.30684  -0.29629  -1.91459
C     3.78697  -0.15949   0.13479
H    -4.51160   0.34498   1.31003
H    -3.14510   0.41356   2.58374
H    -2.56473  -0.91052  -1.31605
H    -2.48310   0.84581  -1.49880
H    -4.01614   0.07924  -1.00113
H    -0.85565   0.24003   1.96092
H    -0.31143  -0.09825  -1.05184
H     1.51270   0.07687   1.47360
H     1.28048  -0.28395  -2.30332
H     2.78448  -1.23935  -2.23437
H     2.87106   0.51427  -2.40884
H     3.79915  -0.04956   1.22909
H     4.38843   0.65620  -0.30531
H     4.30803  -1.09773  -0.12810
