47
Generated by autodE on: 2022-06-21. E = -1015.820221 Ha. Imaginary frequency = -354.2 cm-1
C    -4.48954   2.72382  -0.13243
N    -3.54588   1.62361  -0.13264
C    -2.42662   1.66432   0.61621
O    -2.17169   2.61640   1.36311
C    -1.48534   0.50061   0.45727
C    -0.56352   0.04946   1.52028
C    -0.07928   0.92012   2.51686
C     0.84026   0.46589   3.46385
C     1.29540  -0.85551   3.44079
C     0.82368  -1.72633   2.45300
C    -0.09485  -1.28137   1.50529
C    -0.03748   1.82074  -0.99542
C     0.23400   0.97391  -2.05388
C    -0.28065   1.30377  -3.43926
C     1.28153  -0.05736  -1.96850
C     2.11050  -0.27389  -0.91830
C     3.08024  -1.34625  -0.86724
C     3.97707  -1.58326   0.12424
C     4.13546  -0.72723   1.34833
C     4.91488  -2.75467   0.04828
C    -1.46974  -0.64067  -1.65179
C    -1.85556  -1.61264  -2.57516
N    -2.04394  -2.33323  -3.47780
N    -1.78236  -0.37955  -0.49256
H    -4.91758   2.88589   0.86979
H    -4.00643   3.66140  -0.44945
H    -5.30283   2.49037  -0.82989
H    -3.74667   0.80421  -0.69439
H    -0.42203   1.95147   2.53345
H     1.20689   1.15738   4.22617
H     2.01580  -1.20400   4.18389
H     1.17350  -2.76045   2.41912
H    -0.46028  -1.97571   0.74761
H    -0.69646   2.67780  -1.14806
H     0.58805   1.84327  -0.10520
H    -0.42842   0.40199  -4.05225
H     0.45241   1.93911  -3.96777
H    -1.23124   1.85476  -3.39217
H     1.36444  -0.71692  -2.84035
H     2.04344   0.38433  -0.04853
H     3.07821  -2.03205  -1.72313
H     3.41207   0.09489   1.41134
H     4.03754  -1.33865   2.26124
H     5.15176  -0.29464   1.37558
H     5.96658  -2.41983   0.09904
H     4.77880  -3.33777  -0.87438
H     4.76784  -3.42861   0.91153
