29
Generated by autodE on: 2022-06-16. E = -666.967037 Ha
C     3.66634  -0.90690   0.00193
O     2.47115  -0.15948  -0.29329
C     1.45328  -0.29648   0.53950
O     1.46484  -0.96724   1.54813
C     0.20422   0.45894   0.06524
C     0.58611   1.68452  -0.64768
N     0.84591   2.66785  -1.20712
N    -0.65272   0.78640   1.23403
N    -1.97463   0.30167   0.99265
C    -2.79948   1.36611   0.42702
C    -1.79187  -0.87712   0.12436
C    -3.05535  -1.39150  -0.54075
C    -0.67850  -0.46657  -0.86125
C     0.04234  -1.61980  -1.54243
H     3.44708  -1.98370  -0.01161
H     4.05922  -0.61788   0.98633
H     4.38066  -0.65097  -0.78792
H    -0.27000   0.25203   2.01552
H    -2.78422   2.22079   1.11635
H    -3.83889   1.02314   0.33674
H    -2.46530   1.72382  -0.56632
H    -1.38136  -1.67311   0.76960
H    -3.44742  -0.68245  -1.28503
H    -2.84222  -2.33907  -1.05710
H    -3.83920  -1.58489   0.20730
H    -1.11670   0.18131  -1.63451
H     0.85743  -1.26197  -2.18732
H     0.46196  -2.32743  -0.80972
H    -0.66702  -2.17467  -2.17446
