17
Generated by autodE on: 2022-06-16. E = -509.620894 Ha
C     3.10707   0.40340   0.02971
N     2.08368   1.41714  -0.02108
N     0.88200   1.01977  -0.02454
C     0.24857  -0.19140   0.00689
C     0.87313  -1.45788   0.04842
N     1.29075  -2.54697   0.08153
C    -1.21639  -0.17770  -0.00721
O    -1.90617  -1.18264   0.01658
O    -1.71427   1.06904  -0.04892
C    -3.14293   1.20281  -0.06503
H     3.06013  -0.26720  -0.84484
H     3.02494  -0.21280   0.94092
H     4.08126   0.90529   0.03332
H     0.19501   1.78705  -0.05933
H    -3.34331   2.27987  -0.09095
H    -3.56309   0.71558  -0.95650
H    -3.57961   0.75567   0.83936
