29
Generated by autodE on: 2022-06-16. E = -666.905962 Ha. Imaginary frequency = -411.2 cm-1
C     3.86390  -0.13947  -0.29554
O     2.52523   0.33794  -0.49493
C     1.66570   0.14856   0.51159
O     1.95808  -0.38377   1.57081
C     0.31172   0.59959   0.18444
C     0.08132   1.48667  -0.90064
N    -0.09822   2.20346  -1.80241
N    -0.61050   0.51647   1.19053
N    -1.87330   0.47129   0.82948
C    -2.75553   0.17008   1.94114
C    -1.98078  -0.98482  -0.53569
C    -2.94028  -0.34706  -1.50364
C    -0.65658  -1.26287  -0.90866
C     0.12434  -2.35612  -0.24180
H     3.86122  -1.22406  -0.11508
H     4.33277   0.37354   0.55637
H     4.40522   0.08975  -1.22049
H    -0.29025  -0.02155   2.00899
H    -2.91472   1.07554   2.55031
H    -3.72909  -0.14085   1.54035
H    -2.36042  -0.62871   2.59801
H    -2.42400  -1.69146   0.17604
H    -3.33869  -1.09590  -2.20969
H    -2.44202   0.43954  -2.09002
H    -3.79707   0.10498  -0.98058
H    -0.31446  -0.92647  -1.89151
H     0.08035  -2.27053   0.85798
H     1.18112  -2.35500  -0.54632
H    -0.29218  -3.34774  -0.49712
