39
Generated by autodE on: 2022-05-29. E = -1101.579539 Ha
C     2.42239   2.38565   1.82315
N     1.65931   1.21826   1.42595
C     1.41337   0.94807   0.13713
O     1.89474   1.60915  -0.78814
C     0.53384  -0.27611  -0.15223
C     1.28144  -1.53022   0.50217
C     0.66832  -2.83796   0.05410
C    -0.50818  -2.91048   0.68571
C    -0.61617  -1.63450   1.49733
O     0.76729  -1.39976   1.83542
C    -0.86971  -0.39366   0.55489
C    -1.22081   0.82547   1.40220
O    -1.47928   0.79553   2.58651
O    -1.20977   1.94242   0.67769
C    -1.42186   3.18053   1.37347
C    -1.88692  -0.54767  -0.60911
C    -3.13450  -1.36002  -0.31290
N    -1.07110  -1.11301  -1.69447
C     0.18608  -0.37683  -1.67678
C    -0.01671   0.95781  -2.31639
N    -0.38538   1.88556  -2.90882
C     1.24587  -1.07770  -2.42885
N     2.08425  -1.63245  -3.00453
H     2.36545   2.48891   2.91345
H     2.00872   3.29176   1.35513
H     3.48065   2.29993   1.52782
H     1.31576   0.56722   2.12795
H     2.37207  -1.44563   0.47323
H     1.10058  -3.51615  -0.67942
H    -1.27764  -3.67571   0.60310
H    -1.24763  -1.64104   2.38897
H    -0.66208   3.30589   2.15798
H    -2.42482   3.19985   1.82216
H    -1.32499   3.96790   0.61785
H    -2.21391   0.47171  -0.87490
H    -3.67402  -0.91519   0.53699
H    -2.91018  -2.40830  -0.07892
H    -3.80545  -1.33985  -1.18527
H    -1.53465  -1.03355  -2.60023
