13
Generated by autodE on: 2022-05-29. E = -357.898956 Ha
C    -3.16465  -0.06015   0.65982
C    -1.76718   0.38869   0.48938
N    -0.82859  -0.39444   0.05815
C     0.53250  -0.12048  -0.14950
C     1.35535  -1.14363  -0.64069
N     2.05220  -1.99172  -1.05157
C     1.03775   1.15558   0.13408
N     1.44587   2.22679   0.37610
H    -3.47304   0.07427   1.71091
H    -3.29895  -1.11343   0.37348
H    -3.83549   0.57231   0.05353
H    -1.48457   1.41823   0.72991
H    -1.09776  -1.35840  -0.16510
