24
Generated by autodE on: 2022-10-06. E = -834.114341 Ha
C     3.52283   0.06518   0.72026
C     2.57412  -0.55228  -0.27365
O     2.92148  -0.79232  -1.42264
C     1.24195  -1.05881   0.26062
N     0.41306  -1.63834  -0.80841
C    -0.82491  -0.85665  -0.87015
C    -1.94821  -1.64482  -1.38676
N    -2.83854  -2.26627  -1.79853
C    -1.05353  -0.40000   0.57712
C    -2.11687   0.69859   0.77092
O    -2.59716   0.80526   1.92728
O    -2.41039   1.40366  -0.23048
C     0.38617   0.00420   0.98916
C     0.68970   1.45402   0.54724
O     0.35830   2.36804   1.34037
O     1.22786   1.61074  -0.58437
H     3.01189   0.55701   1.55842
H     4.14455  -0.74708   1.13541
H     4.18720   0.77506   0.20922
H     1.52643  -1.83853   0.99379
H     0.93190  -1.55385  -1.68343
H    -0.74901   0.04221  -1.50477
H    -1.35040  -1.27085   1.18109
H     0.49042  -0.05241   2.07980
