14
Generated by autodE on: 2022-10-06. E = -379.003712 Ha
C    -2.90732   0.77876   0.06452
C    -1.78960  -0.14991  -0.32751
O    -2.00203  -1.21291  -0.93488
C    -0.44842   0.22799   0.05365
N     0.51817  -0.62903  -0.27522
C     1.83773  -0.61597  -0.09037
C     2.47271   0.44861   0.56981
N     3.00380   1.33357   1.11952
H    -2.60784   1.83354  -0.02542
H    -3.16824   0.59941   1.12214
H    -3.79454   0.57900  -0.55148
H    -0.19905   1.14712   0.58209
H     0.14163  -1.45273  -0.77060
H     2.41322  -1.45989  -0.46807
