24
Generated by autodE on: 2022-10-06. E = -834.041137 Ha. Imaginary frequency = -385.8 cm-1
C     3.39152   0.00370   0.19249
C     2.20937  -0.08525  -0.72990
O     2.09868   0.63091  -1.73202
C     1.15689  -1.02358  -0.36156
N     0.13266  -1.16538  -1.22414
C    -1.06868  -1.66690  -0.83147
C    -1.10081  -2.78051   0.05530
N    -1.15008  -3.66269   0.81594
C    -1.49955  -0.05426   0.55072
C    -2.00893   0.97381  -0.45878
O    -3.01571   1.63272  -0.09444
O    -1.43591   1.07315  -1.58161
C    -0.30743   0.08932   1.26979
C     0.53948   1.32919   1.37202
O     1.35345   1.35137   2.34808
O     0.40017   2.26007   0.53179
H     3.05651   0.44443   1.14780
H     4.17001   0.63785  -0.25206
H     3.79369  -0.99725   0.41392
H     1.32907  -1.79837   0.38349
H     0.00212  -0.34757  -1.83933
H    -1.88138  -1.60594  -1.55672
H    -2.29490  -0.62747   1.03845
H    -0.15557  -0.60025   2.10669
