14
Generated by autodE on: 2022-05-26. E = -2973.384099 Ha
N     2.63023  -2.09894  -0.12287
C     1.59671  -1.61962   0.12466
C     0.34398  -1.06117   0.43765
C    -0.13351   0.17597   0.19516
Br    0.67974   1.61130  -0.66026
C    -1.60826   0.15398   0.66925
C    -2.36793  -0.74945  -0.32713
C    -1.91508  -1.98172  -0.08136
C    -0.88330  -1.81079   1.05302
O    -1.47014  -0.72819   1.78990
H    -2.05040   1.11858   0.93759
H    -3.06585  -0.39301  -1.08322
H    -2.14309  -2.92331  -0.57887
H    -0.64958  -2.67556   1.68088
