26
Generated by autodE on: 2022-05-26. E = -3330.277289 Ha. Imaginary frequency = -333.9 cm-1
C     4.11087   0.57043  -1.11051
N     4.04168   0.25129   0.30452
C     2.98022   0.41830   1.10893
O     2.94616   0.14397   2.31045
C     1.75392   0.89632   0.45164
N     1.00443   1.80030   0.22909
N    -0.16358   2.20400   0.01384
C    -1.03743   0.10272  -0.34507
Br   -2.59458   0.25799   0.70402
C    -1.09653   0.15738  -1.89255
C    -1.52714  -1.24244  -2.37097
C    -0.47565  -2.03008  -2.11912
C     0.57734  -1.10522  -1.48408
O     0.30958   0.12550  -2.17343
C     0.04196  -0.72234  -0.06676
C     0.23124  -1.50941   1.08858
N     0.41011  -2.17669   2.02860
H     3.09928   0.67062  -1.52470
H     4.65487   1.51191  -1.28671
H     4.62500  -0.23823  -1.64824
H     4.88516  -0.08152   0.76840
H    -0.20914   2.68348  -0.89706
H    -1.59231   1.02940  -2.33047
H    -2.51137  -1.49609  -2.76257
H    -0.36563  -3.10601  -2.24937
H     1.63095  -1.39479  -1.53937
