20
Generated by autodE on: 2022-06-18. E = -457.715328 Ha
C    -3.15758   0.17782   0.31783
N    -1.79997  -0.30746   0.13118
C    -1.59098  -1.63565  -0.26100
C    -0.37034  -2.13267  -0.51598
C     0.89276  -1.31508  -0.40303
C     0.56453   0.11743  -0.01525
C     1.62129   1.13168   0.12631
N     2.88862   0.70697  -0.10741
O     1.39870   2.31935   0.43836
C    -0.71779   0.51556   0.21893
H    -3.71828   0.18161  -0.63212
H    -3.12682   1.20206   0.70986
H    -3.70046  -0.45556   1.03666
H    -2.49755  -2.23790  -0.34286
H    -0.28786  -3.18020  -0.81467
H     1.58137  -1.77768   0.33419
H     1.45291  -1.34700  -1.35964
H     3.10807  -0.24904  -0.35637
H     3.64824   1.37302  -0.01997
H    -0.92422   1.55013   0.49778
