18
Generated by autodE on: 2022-06-18. E = -534.526640 Ha
C    -3.94799  -0.06647   0.91603
O    -2.62264  -0.29412   1.40815
C    -1.61639  -0.07967   0.54014
O    -1.78482   0.28914  -0.61789
C    -0.33747  -0.34071   1.15547
O     0.78954  -0.20209   0.51083
C     1.08954   0.16044  -0.70652
C     2.49484   0.19007  -1.05172
C     3.50463  -0.19404   0.00067
O     2.82288   0.52805  -2.19438
H    -4.16585  -0.72852   0.06467
H    -4.07111   0.98054   0.60095
H    -4.62342  -0.29064   1.74984
H    -0.22367  -0.66756   2.18716
H     0.29755   0.42232  -1.40615
H     4.51389  -0.11682  -0.42361
H     3.32671  -1.22334   0.35090
H     3.41948   0.46600   0.87863
