38
Generated by autodE on: 2022-06-18. E = -992.227089 Ha. Imaginary frequency = -312.7 cm-1
C     3.25678   1.68368  -2.26271
O     2.63491   1.51686  -0.97816
C     2.07800   0.33200  -0.73559
O     2.23023  -0.65061  -1.44298
C     1.44069   0.28466   0.61414
O     0.61781   1.21644   1.07953
C    -0.49932   1.66814   0.52941
C    -0.76255   1.79559  -0.87495
C    -2.12263   2.33976  -1.23854
O     0.04190   1.45837  -1.76119
C    -1.21249  -0.90875   0.29705
C    -1.54676  -1.05420  -1.13666
N    -0.57796  -1.41552  -2.01175
O    -2.72383  -0.89946  -1.51541
C    -2.39904  -0.68481   1.22190
C    -1.95216  -0.57132   2.65409
C    -0.78307  -1.09288   3.05374
N     0.09887  -1.72187   2.16423
C     1.35393  -2.23385   2.68574
C    -0.02155  -1.44632   0.81246
H     3.62550   2.71540  -2.28726
H     4.09079   0.97780  -2.38262
H     2.51788   1.52372  -3.06065
H     2.13434  -0.05548   1.38854
H    -1.15805   2.11941   1.27013
H    -2.73606   1.50739  -1.62022
H    -2.01067   3.07398  -2.05065
H    -2.64235   2.80161  -0.38849
H     0.41088  -1.29599  -1.79794
H    -0.83486  -1.38104  -2.99336
H    -2.97374   0.19903   0.90842
H    -3.10609  -1.53393   1.10730
H    -2.60533  -0.09388   3.38676
H    -0.44853  -1.06951   4.09282
H     2.02995  -1.42465   3.01733
H     1.16223  -2.89176   3.54536
H     1.86388  -2.81878   1.90907
H     0.65232  -2.01694   0.17363
