33
Generated by autodE on: 2022-10-21. E = -1829.930545 Ha
C    -1.64950   1.75934   1.95129
O    -1.16244   0.51512   1.41960
C    -1.08143   0.30298   0.05156
O    -2.12690   0.77898  -0.68029
C    -3.44163   0.31038  -0.33859
C    -0.79860  -1.27582  -0.06264
C    -1.24140  -1.83236  -1.36883
N    -1.56328  -2.35494  -2.35162
C    -1.54098  -2.00725   0.99169
N    -2.08993  -2.61467   1.81137
N     0.62387  -1.37687   0.14422
C     1.31616  -2.62904  -0.10222
C     1.30850  -0.09840   0.16909
C     2.56678  -0.11293  -0.59270
N     3.59190  -0.14570  -1.13187
C     1.73095   0.34026   1.64449
C     1.41532  -0.60962   2.75444
O     2.35715   1.36439   1.77791
C     0.26771   0.85908  -0.50774
Cl    0.32831   0.60330  -2.29575
Cl    0.49084   2.58591  -0.19302
H    -2.12259   2.37264   1.17507
H    -0.81560   2.31118   2.40548
H    -2.38993   1.50662   2.72258
H    -3.58854  -0.72704  -0.67624
H    -3.62687   0.37737   0.74221
H    -4.14161   0.96331  -0.87312
H     2.27666  -2.62894   0.43057
H     1.49941  -2.80662  -1.17663
H     0.71402  -3.45756   0.29870
H     1.76930  -0.17695   3.69860
H     1.93270  -1.56493   2.56754
H     0.34107  -0.82536   2.80720
