19
Generated by autodE on: 2022-10-21. E = -602.868977 Ha
C    -3.08465   0.79351  -0.09100
C    -1.64193   0.54546  -0.43235
O    -1.13041   0.95893  -1.46629
C    -0.87444  -0.29939   0.51237
C    -1.57925  -0.97756   1.53990
N    -2.18649  -1.50307   2.38454
N     0.42222  -0.64384   0.31040
C     0.89909  -1.91528   0.90308
C     1.31190   0.12369  -0.36290
C     1.15719   1.52429  -0.51184
N     1.13239   2.68622  -0.58845
C     2.53200  -0.42045  -0.84232
N     3.54539  -0.80312  -1.27153
H    -3.64873  -0.15277  -0.08478
H    -3.51692   1.47175  -0.83676
H    -3.16911   1.23336   0.91531
H     1.89548  -2.14994   0.51947
H     0.95231  -1.78577   1.99272
H     0.19666  -2.71574   0.64700
