19
Generated by autodE on: 2022-10-26. E = -602.868917 Ha
C     2.60953   1.22218   1.36450
C     1.31199   0.51299   1.09396
O     0.61357   0.05506   1.99095
C     0.95277   0.31444  -0.32851
C     1.90340   0.65056  -1.32585
N     2.69581   0.95992  -2.12262
N    -0.14030  -0.39067  -0.71818
C    -0.07847  -1.10120  -2.01614
C    -1.28839  -0.45054  -0.00430
C    -2.26561  -1.44564  -0.26959
N    -3.10483  -2.23777  -0.42939
C    -1.65350   0.54167   0.94022
N    -2.05004   1.36729   1.65952
H     3.45531   0.65882   0.93955
H     2.60649   2.21681   0.89097
H     2.74300   1.32293   2.44848
H     0.86582  -1.65264  -2.07736
H    -0.92281  -1.79102  -2.09838
H    -0.14086  -0.35595  -2.82109
