14
Generated by autodE on: 2022-10-21. E = -1227.028100 Ha
C     2.01747  -1.29678  -1.01543
O     0.89927  -0.53193  -1.49984
C    -0.14710  -0.29094  -0.67858
O    -1.34197  -0.76281  -1.09725
C    -1.34423  -1.98651  -1.84619
C    -0.06247   0.44941   0.47752
Cl   -1.43020   0.67577   1.52912
Cl    1.39313   1.29060   0.93130
H     2.33595  -1.95332  -1.83680
H     2.84392  -0.62865  -0.73521
H     1.72467  -1.90587  -0.14777
H    -2.39479  -2.18457  -2.09136
H    -0.94384  -2.81468  -1.23949
H    -0.76010  -1.89008  -2.77168
