33
Generated by autodE on: 2022-10-21. E = -1829.870311 Ha. Imaginary frequency = -370.5 cm-1
C    -2.80077   2.14676  -0.35931
O    -2.24842   0.83424  -0.08731
C    -1.05002   0.58402  -0.64187
O    -0.97212   0.23917  -1.92428
C    -2.10121  -0.29327  -2.63868
C    -0.81753  -1.46675   0.39524
C    -1.90084  -2.25258  -0.11046
N    -2.83402  -2.83802  -0.48622
C    -1.09644  -1.05829   1.73858
N    -1.50982  -0.73262   2.77671
N     0.45407  -1.68825  -0.13146
C     0.55963  -2.54059  -1.33149
C     1.42974  -0.74641   0.10177
C     2.44913  -0.66057  -0.90017
N     3.28515  -0.53938  -1.69885
C     1.93026  -0.46465   1.49974
C     3.05130   0.52415   1.63248
O     1.46658  -1.07615   2.44328
C     0.17377   1.15078  -0.13261
Cl    1.16256   2.06024  -1.27457
Cl    0.04398   1.94997   1.42384
H    -2.11576   2.93308  -0.01249
H    -3.74146   2.19486   0.20103
H    -2.99427   2.26204  -1.43569
H    -1.85370  -1.32029  -2.93819
H    -3.00588  -0.28409  -2.02166
H    -2.24109   0.33111  -3.53121
H     1.56926  -2.96360  -1.37348
H    -0.15159  -3.36827  -1.24418
H     0.35419  -1.97088  -2.24743
H     3.99836  -0.00046   1.41862
H     3.08109   0.89683   2.66410
H     2.96676   1.35668   0.92125
