20
Generated by autodE on: 2022-06-21. E = -457.715324 Ha
C     3.11593   0.52740  -0.33303
N     1.73123   0.58516   0.10556
C     1.39803   1.33791   1.23862
C     0.15473   1.37608   1.74324
C    -1.00185   0.61366   1.14512
C    -0.54231  -0.18739  -0.06232
C    -1.47866  -1.02950  -0.82392
N    -2.76187  -1.04525  -0.38281
O    -1.14438  -1.70282  -1.82020
C     0.75243  -0.15424  -0.48720
H     3.17337  -0.01724  -1.28365
H     3.75187   0.01210   0.40654
H     3.51673   1.54150  -0.48614
H     2.22684   1.89431   1.68001
H    -0.02880   1.99121   2.62715
H    -1.81696   1.31369   0.86865
H    -1.45595  -0.04855   1.91045
H    -3.07492  -0.50869   0.41600
H    -3.43906  -1.61216  -0.88120
H     1.05581  -0.74167  -1.35527
