20
Generated by autodE on: 2022-07-27. E = -606.928733 Ha
C     1.38202   0.64196   3.58362
N     0.72025   0.72979   2.29782
C     0.81079  -0.27309   1.40052
O     1.41975  -1.32483   1.63465
C     0.14146  -0.04458   0.09215
O    -0.34506   1.16720  -0.06198
C    -1.15249   1.72192  -0.92568
C    -1.88862   1.00114  -1.87676
N    -2.55504   0.41922  -2.64128
C     0.20986  -1.04365  -0.99673
C     0.56663  -0.55513  -2.38144
O     0.12835  -2.24038  -0.74913
H     1.01899  -0.22367   4.16012
H     1.17377   1.55694   4.15094
H     2.47279   0.53540   3.46797
H     0.20807   1.57166   2.05947
H    -1.31595   2.78783  -0.76740
H     0.74025   0.52794  -2.44574
H    -0.21821  -0.83739  -3.09986
H     1.49104  -1.08267  -2.66556
