40
Generated by autodE on: 2022-06-21. E = -1064.657712 Ha. Imaginary frequency = -230.4 cm-1
C     2.80255   0.40724   2.99262
N     2.41667   0.52590   1.60271
C     2.11358  -0.58245   0.87458
O     2.36019  -1.72207   1.31015
C     1.52947  -0.36328  -0.45561
C     1.73052  -1.27009  -1.55670
C     1.99452  -0.70053  -2.94114
O     1.84398  -2.49838  -1.39695
O     1.12853   0.94378  -0.64603
C     0.08651   1.36632  -1.30138
C    -0.53336   0.65355  -2.36305
N    -1.12623   0.11522  -3.20930
C    -1.67909   0.87929   0.34109
C    -2.58675   1.78709  -0.41194
N    -3.50315   1.25211  -1.24641
O    -2.49686   3.01546  -0.25326
C    -1.04219   1.47128   1.58431
C    -0.66472   0.41542   2.58001
C    -0.77831  -0.89541   2.33443
N    -1.29428  -1.37562   1.11644
C    -1.06870  -2.77623   0.77440
C    -1.71707  -0.50927   0.18668
H     2.04655  -0.13743   3.58331
H     2.91994   1.41351   3.41416
H     3.75893  -0.12822   3.09761
H     2.05803   1.41713   1.28094
H     2.01158   0.39566  -2.99794
H     1.26064  -1.08871  -3.66256
H     2.98503  -1.08010  -3.23912
H    -0.08841   2.44188  -1.22968
H    -4.04682   1.88377  -1.82583
H    -3.61342   0.25673  -1.39123
H    -0.14846   2.07516   1.33341
H    -1.73619   2.19771   2.04254
H    -0.27167   0.73450   3.54706
H    -0.48587  -1.66854   3.04418
H    -1.29318  -3.40848   1.64364
H    -0.01873  -2.92266   0.47860
H    -1.72253  -3.05919  -0.05978
H    -2.12324  -0.97458  -0.71334
