30
Generated by autodE on: 2022-06-04. E = -857.463638 Ha
C    -1.04456   3.07004  -2.17663
N    -0.30683   2.19006  -1.28954
C    -0.84369   1.10188  -0.71232
O    -2.00570   0.73863  -0.88718
C     0.11963   0.26168   0.18630
C     0.68728   1.12866   1.32147
F     1.53294   2.07892   0.87373
F    -0.29475   1.75564   1.99155
F     1.37131   0.39276   2.21007
C    -0.60397  -0.87934   0.74771
C    -0.95179  -2.03890   0.80811
C    -1.03780  -3.45738   0.48931
C    -0.48600  -3.62276  -0.94885
C     0.85923  -2.92258  -1.23911
C     0.84609  -1.43003  -1.68076
C     1.28138  -0.35356  -0.66341
H    -0.52591   3.16588  -3.14247
H    -2.04188   2.64942  -2.34699
H    -1.15125   4.07395  -1.73646
H     0.66059   2.42429  -1.09486
H    -0.42514  -4.03523   1.20217
H    -2.06500  -3.84914   0.55816
H    -1.24334  -3.25601  -1.66197
H    -0.37653  -4.70324  -1.13620
H     1.53536  -3.04770  -0.37504
H     1.32676  -3.48877  -2.05991
H     1.54984  -1.33934  -2.52197
H    -0.14158  -1.17281  -2.09955
H     2.01227  -0.78301   0.03862
H     1.79284   0.46395  -1.19164
