16
Generated by autodE on: 2022-06-04. E = -472.258382 Ha
N    -2.44744  -2.25618  -0.54391
C    -1.88858  -1.28340  -0.22568
C    -1.17228  -0.12059   0.14652
N    -1.87913   0.85544   0.68144
N    -2.44560   1.71873   1.14512
C     0.28435   0.03387  -0.03401
C     0.94901   1.21287   0.34782
C     2.32696   1.33058   0.16468
C     3.06127   0.28164  -0.39854
C     2.40229  -0.89140  -0.77868
C     1.02423  -1.01961  -0.59987
H     0.39384   2.04342   0.78863
H     2.82968   2.25256   0.46568
H     4.13979   0.37859  -0.54033
H     2.96330  -1.71845  -1.21986
H     0.52109  -1.94079  -0.90076
