25
Generated by autodE on: 2022-06-17. E = -684.633445 Ha
C     1.04796   3.42681  -0.09631
N     0.89757   2.03988   0.27000
N    -0.11168   1.41118  -0.18173
C    -1.15878   2.10702  -0.96829
C    -0.19144   0.04318   0.01015
C    -1.48877  -0.59086   0.13380
O    -2.56818  -0.01726   0.25358
O    -1.40661  -1.93922   0.08655
C    -2.62681  -2.65917   0.27350
C     1.05501  -0.71310   0.23535
O     1.19271  -1.61816   1.04129
O     2.04398  -0.34693  -0.60092
C     3.32221  -0.95167  -0.38537
H     0.18969   4.04253   0.22249
H     1.16604   3.55928  -1.18695
H     1.95184   3.80288   0.39710
H    -1.86311   1.38193  -1.37140
H    -1.67757   2.83020  -0.32639
H    -0.65601   2.63855  -1.78564
H    -2.35676  -3.72193   0.25060
H    -3.34183  -2.43637  -0.53263
H    -3.08742  -2.40984   1.24124
H     3.68159  -0.74861   0.63477
H     3.27288  -2.03960  -0.54055
H     3.99985  -0.49860  -1.11900
