31
Generated by autodE on: 2022-06-17. E = -763.245258 Ha. Imaginary frequency = -400.6 cm-1
C     2.74943  -2.62231   0.24516
O     1.98771  -1.41038   0.21712
C     0.73363  -1.49644  -0.26761
O     0.27571  -2.54071  -0.70525
C     0.03392  -0.21672  -0.12706
C     0.82939   0.98226   0.31428
O     1.32424   1.15395   1.40950
O     0.99527   1.84795  -0.69685
C     1.67545   3.07046  -0.38677
C    -1.05928  -0.68788   1.84257
C    -2.12133   0.19071   1.69506
N    -1.78075   1.05411  -0.18357
C    -3.03966   1.47427  -0.76181
N    -1.12911   0.07933  -0.78989
C    -1.81492  -0.88838  -1.64946
H     2.89774  -3.01203  -0.77250
H     3.71517  -2.36038   0.69315
H     2.24338  -3.38447   0.85574
H     1.13288   3.62383   0.39424
H     2.70107   2.86979  -0.04448
H     1.69419   3.65087  -1.31672
H    -1.18969  -1.74615   1.60328
H    -0.19806  -0.43328   2.46048
H    -2.11810   1.14878   2.21951
H    -3.10730  -0.19169   1.41632
H    -3.45721   2.24487  -0.09942
H    -3.78826   0.67113  -0.86871
H    -2.87959   1.93246  -1.75344
H    -2.42612  -1.57244  -1.03764
H    -2.46022  -0.34854  -2.35033
H    -1.07856  -1.46429  -2.21230
