21
Generated by autodE on: 2022-06-01. E = -777.428247 Ha
C     4.27342  -1.42956  -1.72120
O     3.11408  -1.22959  -0.89032
C     2.16102  -0.45634  -1.38356
O     2.16557   0.09971  -2.46249
C     1.02627  -0.32355  -0.44938
N    -0.05020   0.38619  -0.69412
C    -0.92431   0.30943   0.36759
C    -2.18975   1.01086   0.35006
O    -2.56580   1.70487  -0.58331
O    -2.89631   0.81099   1.47080
C    -4.17017   1.46447   1.54919
C    -0.32504  -0.52697   1.34924
O    -0.60747  -0.94557   2.44714
O     0.94550  -0.89841   0.73985
H     3.98112  -1.90721  -2.66689
H     4.76070  -0.46604  -1.92644
H     4.94003  -2.08400  -1.14956
H    -0.21180   0.91965  -1.55213
H    -4.04987   2.55585   1.48636
H    -4.83071   1.12301   0.73883
H    -4.59115   1.18618   2.52224
