20
Generated by autodE on: 2022-10-20. E = -420.515838 Ha
C     4.03425   1.14676  -0.09070
C     3.07521   0.11885   0.38015
N     1.80874   0.15551   0.06702
N     0.89755  -0.75974   0.37992
C    -0.40673  -0.40178   0.12061
C    -1.38091  -1.42855   0.24476
C    -2.72889  -1.18582   0.00522
C    -3.17381   0.09149  -0.36921
C    -2.23200   1.11900  -0.48319
C    -0.87614   0.89194  -0.23534
H     3.53067   1.94216  -0.66138
H     4.56257   1.60523   0.76294
H     4.81001   0.69459  -0.73415
H     3.39466  -0.72540   0.99673
H     1.51932   0.96497  -0.50285
H    -1.03659  -2.42576   0.52939
H    -3.44604  -2.00505   0.10837
H    -4.23256   0.28124  -0.55817
H    -2.55646   2.12730  -0.75595
H    -0.19471   1.74410  -0.29905
