17
Generated by autodE on: 2022-10-20. E = -881.716873 Ha
C     2.75004   0.63384  -0.47724
O     1.49292   1.15119  -0.92393
C     0.38238   0.49157  -0.58622
C     0.06634  -0.61248   0.11716
Cl    1.00571  -1.72904   1.05025
C    -1.48008  -0.61112   0.16610
C    -1.92176   0.57973   1.05099
C    -1.60556   1.66685   0.34111
C    -0.98462   1.11311  -0.96248
O    -1.76743  -0.07970  -1.14182
H     3.51890   1.30541  -0.87926
H     2.91099  -0.38477  -0.86147
H     2.80109   0.62780   0.62176
H    -1.95565  -1.58238   0.34123
H    -2.33971   0.49626   2.05365
H    -1.68850   2.72211   0.59808
H    -0.97967   1.75977  -1.84692
