50
Generated by autodE on: 2022-10-23. E = -1391.077190 Ha
C     2.53871   3.22008  -2.36988
N     2.08277   2.30194  -1.34194
C     1.52412   1.12932  -1.65563
O     1.33381   0.75624  -2.81944
C     1.11726   0.20148  -0.49336
C     2.37128  -0.63318  -0.09892
O     3.42740  -0.06761   0.20252
N     2.15645  -1.94928  -0.05725
C     3.09164  -2.91154   0.48130
N     0.01515  -0.66827  -0.88321
C    -1.16227  -0.46548  -0.05170
C    -1.98205  -1.75962   0.12167
O    -2.98762  -1.82271   0.79769
O    -1.51001  -2.77644  -0.59316
C    -2.20198  -4.02686  -0.45745
C    -2.12368   0.63191  -0.55983
C    -3.16597   1.09617   0.25997
C    -4.03439   2.09379  -0.18566
C    -3.87817   2.64717  -1.46087
C    -2.84519   2.19249  -2.28181
C    -1.97382   1.19288  -1.83453
C    -0.50612  -0.01436   1.27974
C     0.09109  -1.12774   2.12659
O    -0.33433  -2.27224   2.12488
C     1.20308  -0.74079   3.02606
C     1.88821   0.41125   2.88770
C     1.61241   1.35721   1.78978
O     2.21042   2.42177   1.69561
C     0.56990   0.95413   0.76855
H     2.91808   4.12913  -1.88800
H     1.71449   3.49211  -3.04697
H     3.34409   2.77425  -2.97509
H     2.22944   2.54538  -0.36249
H     1.20833  -2.22776  -0.31833
H     2.62678  -3.45873   1.31592
H     3.40024  -3.63965  -0.28491
H     3.98055  -2.38272   0.84703
H    -0.14250  -0.66881  -1.88722
H    -1.69094  -4.72836  -1.12655
H    -3.25633  -3.91847  -0.74846
H    -2.14137  -4.37825   0.58278
H    -3.30707   0.67124   1.25370
H    -4.83636   2.44191   0.46959
H    -4.55593   3.43014  -1.80891
H    -2.70682   2.61700  -3.27890
H    -1.16859   0.87278  -2.49506
H    -1.21801   0.50677   1.93682
H     1.45933  -1.46731   3.80111
H     2.70652   0.67692   3.56112
H     0.08320   1.87541   0.42648
