38
Generated by autodE on: 2022-10-23. E = -1009.394900 Ha
C     4.18462   2.39276   2.24131
N     3.25230   1.37575   1.80469
C     2.28109   1.64412   0.91718
O     2.13944   2.76675   0.38874
C     1.35138   0.54554   0.55813
N     0.36804   0.98571  -0.24189
C    -0.78526   0.53680  -0.74259
C    -1.41542   1.51468  -1.63874
O    -0.90099   2.58876  -1.93230
O    -2.61388   1.12890  -2.08716
C    -3.29497   2.03339  -2.96600
C    -1.41826  -0.73213  -0.34751
C    -1.54508  -1.06107   1.01526
C    -2.11308  -2.27420   1.40049
C    -2.55929  -3.18129   0.43234
C    -2.44363  -2.86075  -0.92341
C    -1.88141  -1.64342  -1.31314
C     1.58718  -0.85310   0.96860
O     2.11210  -1.12247   2.06813
N     1.28936  -1.82628   0.08532
C     1.30637  -3.22504   0.46676
H     4.94481   1.92694   2.88045
H     4.68573   2.86305   1.38159
H     3.68334   3.19069   2.81531
H     3.21391   0.46303   2.25843
H     0.56355   1.97313  -0.50825
H    -2.69386   2.22361  -3.86699
H    -3.49897   2.98605  -2.45583
H    -4.23562   1.53936  -3.23536
H    -1.18809  -0.36473   1.77709
H    -2.20503  -2.51540   2.46186
H    -2.99564  -4.13579   0.73525
H    -2.78902  -3.56436  -1.68429
H    -1.78211  -1.40052  -2.37201
H     0.84112  -1.58670  -0.79074
H     0.92137  -3.82047  -0.36961
H     2.32650  -3.56296   0.70586
H     0.67065  -3.40051   1.34944
