50
Generated by autodE on: 2022-10-23. E = -1391.021909 Ha. Imaginary frequency = -260.2 cm-1
C     4.13834   2.76992  -1.39207
N     3.34024   1.61642  -1.02647
C     2.03732   1.52042  -1.32230
O     1.41618   2.32451  -2.03082
C     1.29660   0.36563  -0.68470
C     2.13213  -0.88250  -0.48379
O     2.98844  -0.95747   0.40297
N     2.00523  -1.79966  -1.45890
C     2.66789  -3.08623  -1.35958
N     0.02050   0.29329  -1.17584
C    -1.07443  -0.24726  -0.59645
C    -0.97291  -1.51384   0.17611
O     0.06816  -2.03830   0.53209
O    -2.17133  -2.02542   0.45594
C    -2.19462  -3.20204   1.27780
C    -2.37917   0.20309  -1.14065
C    -3.49094   0.39200  -0.29774
C    -4.69654   0.85754  -0.81989
C    -4.81823   1.13669  -2.18612
C    -3.72048   0.95054  -3.02934
C    -2.50815   0.48787  -2.51234
C    -0.57113   0.96551   1.44236
C    -0.87702   0.03761   2.52643
O    -2.03431  -0.22753   2.87815
C     0.26860  -0.60615   3.22147
C     1.53624  -0.20658   3.01882
C     1.84300   0.91316   2.09783
O     2.91587   1.50872   2.15396
C     0.76614   1.32791   1.16337
H     5.19159   2.47216  -1.47806
H     3.79730   3.16623  -2.35658
H     4.05859   3.56871  -0.63544
H     3.70644   0.97326  -0.32696
H     1.20170  -1.72578  -2.07507
H     2.55185  -3.62224  -2.30956
H     2.23621  -3.69624  -0.54819
H     3.73846  -2.94812  -1.15568
H    -0.17085   1.13459  -1.73983
H    -3.25401  -3.44132   1.42288
H    -1.71298  -3.00295   2.24460
H    -1.68112  -4.03169   0.77156
H    -3.39657   0.19551   0.76974
H    -5.54736   1.00983  -0.15190
H    -5.76654   1.49808  -2.59029
H    -3.80545   1.15837  -4.09831
H    -1.66435   0.32628  -3.18646
H    -1.38549   1.61169   1.11773
H     0.01616  -1.39450   3.93485
H     2.38090  -0.64173   3.55803
H     0.93027   2.31321   0.72355
