51
Generated by autodE on: 2022-06-04. E = -1275.875301 Ha
C    -1.35726  -2.41756   6.23215
C    -2.48206  -1.66370   5.57844
O    -3.63470  -1.81204   5.94344
C    -2.15365  -0.59936   4.49559
C    -3.51733   0.10344   4.20820
C    -4.05231   1.06817   5.23106
O    -4.11527  -0.10389   3.16989
C    -1.16562   0.40885   5.18336
C     0.34868   0.16554   5.02104
C     1.04384   1.19493   4.12119
C     0.98037   0.98021   2.61153
C    -0.45153   0.80676   1.97481
C    -1.38922   1.85415   2.42588
N    -2.10236   2.71549   2.72752
C    -0.32050   1.06072   0.52060
N    -0.18506   1.30211  -0.60415
C    -1.00112  -0.60535   2.19561
C    -1.63663  -1.21700   3.20777
C    -1.82439  -2.69783   2.77919
C    -3.13083  -3.36578   3.19055
C    -0.56516  -3.53716   3.18040
C    -0.73040  -5.01571   3.35917
O     0.51901  -2.99238   3.28402
N    -1.68316  -2.64719   1.29003
C    -2.91604  -2.41837   0.52545
N    -0.82615  -1.51785   1.09825
C     0.35699  -1.76347   0.52945
N     1.36084  -1.94705  -0.03649
H    -0.51585  -2.61976   5.56200
H    -0.96923  -1.79417   7.05511
H    -1.74812  -3.34829   6.66309
H    -3.72519   0.84636   6.25313
H    -5.14877   1.07946   5.16995
H    -3.68713   2.07383   4.96310
H    -1.40036   1.41987   4.83563
H    -1.41990   0.42791   6.25185
H     0.80666   0.23772   6.01814
H     0.56183  -0.85030   4.66069
H     2.11850   1.21139   4.36274
H     0.66506   2.20203   4.36364
H     1.45284   1.83643   2.10985
H     1.53973   0.07896   2.32184
H    -3.98016  -2.68674   3.05400
H    -3.10012  -3.67754   4.23929
H    -3.29855  -4.27146   2.59506
H    -1.29644  -5.20512   4.28562
H     0.25701  -5.48854   3.43292
H    -1.30622  -5.45374   2.53145
H    -2.63313  -2.28667  -0.52680
H    -3.47048  -1.52961   0.87003
H    -3.55949  -3.30249   0.59545
