19
Generated by autodE on: 2022-07-27. E = -473.680967 Ha
C     1.64370  -1.10732   1.30004
C     0.19776  -0.87864   1.62841
O    -0.25229  -1.25926   2.70609
C    -0.76158  -0.21394   0.68506
C    -2.19618  -0.15968   1.09901
N    -0.40783   0.32183  -0.47670
C    -1.46637   0.92435  -1.32093
N     0.86113   0.34394  -0.89052
C     1.14733   0.86981  -2.05334
N     1.55941   1.30782  -3.06561
H     2.17162  -0.14880   1.19034
H     2.08590  -1.69537   2.11526
H     1.75558  -1.62772   0.33820
H    -2.29870  -0.63537   2.07846
H    -2.55796   0.87879   1.17144
H    -2.84659  -0.68388   0.38027
H    -1.01501   1.30466  -2.24102
H    -1.94046   1.74710  -0.77269
H    -2.21551   0.16122  -1.56151
