19
Generated by autodE on: 2022-06-04. E = -473.684391 Ha
C    -3.21368  -0.76726  -0.16292
C    -1.80797  -0.77313   0.38206
O    -1.54025  -1.41939   1.39073
C    -0.79449   0.02858  -0.35508
C    -1.13923   0.80250  -1.58029
N     0.47131   0.09137   0.05201
C     0.98365  -0.61689   1.24701
N     1.30087   0.84236  -0.67826
C     2.55851   0.94318  -0.32420
N     3.70469   1.13246  -0.13767
H    -3.23871  -1.16157  -1.19109
H    -3.83955  -1.39290   0.48537
H    -3.62062   0.25565  -0.19389
H    -0.91065   1.87099  -1.42983
H    -2.19150   0.69626  -1.85465
H    -0.51001   0.47425  -2.42438
H     0.83299  -1.69375   1.12517
H     0.44115  -0.27579   2.13395
H     2.04941  -0.39075   1.34383
