32
Generated by autodE on: 2022-06-04. E = -802.123831 Ha
C    -3.42380   1.08945  -1.74562
C    -2.36056   1.29000  -0.70989
O    -2.54020   1.92013   0.31341
C    -0.96518   0.66468  -0.99002
C    -0.27978   1.62752  -2.01668
C     0.47415   2.79383  -1.45671
O    -0.40588   1.42213  -3.20524
C    -0.18520   0.54753   0.23392
C     0.56377   0.10022   1.07235
C     1.41172  -0.93652   1.67515
C     0.64504  -1.67730   2.70153
N     0.03048  -2.28390   3.47402
C     2.62901  -0.38664   2.30519
N     3.60179   0.03964   2.76790
C     1.81998  -1.91759   0.50579
C     0.64707  -2.41222  -0.35900
C     0.24560  -1.58096  -1.60987
C    -1.07067  -0.77741  -1.57155
H    -3.77024   0.04374  -1.70776
H    -3.02961   1.26102  -2.75769
H    -4.26995   1.75710  -1.53949
H     1.41648   2.42980  -1.01548
H     0.69703   3.51577  -2.25246
H    -0.09791   3.26772  -0.64401
H     2.33896  -2.76511   0.97629
H     2.55373  -1.37460  -0.10762
H     0.95771  -3.40534  -0.71607
H    -0.23556  -2.59747   0.27639
H     0.12884  -2.29539  -2.43863
H     1.07899  -0.92317  -1.90805
H    -1.82340  -1.32925  -0.98823
H    -1.45728  -0.67770  -2.59410
