51
Generated by autodE on: 2022-06-04. E = -1275.808347 Ha. Imaginary frequency = -241.7 cm-1
C    -0.47755  -2.06797   6.05694
C    -1.82539  -1.60086   5.58555
O    -2.85884  -2.10674   5.97774
C    -1.84459  -0.41832   4.57863
C    -3.28806   0.08291   4.34573
C    -4.11183   0.47816   5.54109
O    -3.72886   0.20097   3.21681
C    -1.00468   0.74978   5.20428
C    -1.15745   2.14036   4.57922
C    -0.83509   2.30958   3.08766
C     0.52114   1.73581   2.63914
C     0.36102   0.49355   1.69386
C    -0.27914   0.94516   0.43619
N    -0.82790   1.33517  -0.50653
C     1.69575  -0.06674   1.40085
N     2.75306  -0.50838   1.22985
C    -0.49961  -0.53646   2.34005
C    -1.25006  -0.84820   3.28471
C    -2.12209  -2.92091   2.34540
C    -3.55975  -3.04627   2.73614
C    -1.14330  -3.73821   3.15796
C     0.27862  -3.98384   2.73318
O    -1.57627  -4.26031   4.17746
N    -1.81880  -2.50555   1.10759
C    -2.85117  -1.95214   0.21956
N    -0.55592  -2.07751   0.94252
C    -0.07614  -1.95779  -0.27902
N     0.47023  -1.83876  -1.30993
H    -0.56731  -3.07763   6.47518
H     0.26702  -2.04895   5.24867
H    -0.12523  -1.38405   6.84654
H    -4.68597   1.38145   5.29017
H    -4.82654  -0.33557   5.73987
H    -3.51817   0.63814   6.44857
H     0.04792   0.43741   5.17591
H    -1.27559   0.82781   6.26849
H    -0.49365   2.80446   5.15782
H    -2.17829   2.51810   4.75201
H    -0.85002   3.38684   2.86579
H    -1.64614   1.87619   2.48330
H     1.11351   2.47908   2.08777
H     1.12956   1.40233   3.49133
H    -3.62980  -3.14430   3.82355
H    -4.15294  -2.18362   2.41750
H    -3.99100  -3.95965   2.29073
H     0.87502  -3.06465   2.80723
H     0.69320  -4.75187   3.39929
H     0.33331  -4.31702   1.68721
H    -2.42222  -1.84245  -0.78298
H    -3.16211  -0.96706   0.60015
H    -3.70809  -2.63095   0.17122
