24
Generated by autodE on: 2022-06-12. E = -779.520524 Ha
C     1.63710  -2.55978   2.43944
O     0.97678  -1.66618   1.52943
C     1.60906  -0.52426   1.25495
O     2.68240  -0.20860   1.73415
C     0.85008   0.33229   0.31747
O    -0.27202  -0.20871  -0.08366
C    -1.34052   0.09732  -0.75768
C    -1.73169   1.40255  -1.15079
N    -2.21942   2.42163  -1.43711
C    -2.28429  -1.02669  -0.97850
C    -1.88552  -2.37055  -0.44443
O    -3.32215  -0.81115  -1.58882
C     1.34656   1.56960  -0.30566
C     2.57856   2.23997   0.22197
O     0.74481   1.98898  -1.29267
H     1.78010  -2.07392   3.41529
H     0.97518  -3.42720   2.53850
H     2.61241  -2.86635   2.03516
H    -0.94278  -2.69923  -0.90962
H    -1.70452  -2.31248   0.63997
H    -2.68308  -3.09215  -0.65938
H     2.72614   3.17732  -0.32961
H     3.45417   1.58644   0.09174
H     2.48325   2.43573   1.30015
