42
Generated by autodE on: 2022-06-12. E = -3572.855740 Ha
C     2.57271   2.28311   4.31762
O     2.29464   2.34804   2.90723
C     1.52573   1.39131   2.39783
O     1.04315   0.48535   3.03741
C     1.37986   1.55632   0.87129
C     1.25539   3.05735   0.56429
O     0.20860   3.66082   0.66017
O     2.40670   3.60642   0.20408
C     2.39871   5.02125  -0.05310
C     0.20773   0.82668   0.40123
C    -0.42795  -0.08397  -0.08080
C    -0.69702  -1.35579  -0.71781
Br   -1.02917  -0.91549  -2.71460
C    -1.92555  -2.08933  -0.23416
C    -2.84158  -1.45437   0.61565
C    -3.97212  -2.13421   1.07787
C    -4.19925  -3.45812   0.69518
C    -3.28954  -4.09812  -0.15511
C    -2.16201  -3.41981  -0.61749
C     0.61414  -2.17477  -0.63739
C     1.92660  -1.42624  -0.93844
C     2.63076  -0.66504   0.22105
C     2.61928   0.87608   0.18818
H     3.10778   1.35276   4.55417
H     3.20039   3.15329   4.53892
H     1.63609   2.32888   4.89055
H     3.42468   5.27974  -0.33770
H     2.10248   5.56825   0.85320
H     1.70289   5.25536  -0.87088
H    -2.66710  -0.42028   0.91976
H    -4.67561  -1.62474   1.74043
H    -5.08229  -3.99108   1.05534
H    -3.46109  -5.13244  -0.46202
H    -1.47180  -3.92689  -1.29325
H     0.64780  -2.58309   0.38722
H     0.51991  -3.03508  -1.31435
H     1.77353  -0.75192  -1.79684
H     2.62917  -2.19513  -1.29375
H     2.25553  -1.02385   1.19323
H     3.69322  -0.95094   0.19693
H     3.51746   1.26951   0.68446
H     2.64799   1.22775  -0.85344
