35
Generated by autodE on: 2022-06-17. E = -762.608969 Ha
C    -1.76048   1.17593   1.78012
C    -1.05848   1.55045   0.70496
C    -0.66610   2.97087   0.41813
C    -0.52832   0.55456  -0.31268
C     0.93866   0.14299   0.02884
C     1.80215  -0.08145  -1.17048
C     2.87915   0.64591  -1.51814
C     3.63838   0.33022  -2.77829
C     3.41406   1.81735  -0.74102
N     0.70412  -1.13997   0.76864
C     0.67059  -1.11788   2.10675
N     0.72661  -1.14946   3.27185
N    -0.38555  -1.80295   0.16142
N    -1.21519  -0.73798  -0.30564
C    -2.53534  -0.91683  -0.57482
C    -3.07809  -2.30596  -0.36320
O    -3.21709   0.02251  -0.99253
H    -2.03691   0.13328   1.95599
H    -2.08636   1.91101   2.52124
H     0.42536   3.05940   0.27866
H    -0.97217   3.64938   1.22662
H    -1.12933   3.31223  -0.52386
H    -0.56787   0.99890  -1.31783
H     1.38870   0.85707   0.72365
H     1.48564  -0.89595  -1.83229
H     3.20657  -0.52423  -3.31935
H     3.64974   1.20358  -3.45359
H     4.69394   0.10356  -2.54775
H     2.89238   2.00165   0.20701
H     4.48552   1.67075  -0.52279
H     3.34525   2.73523  -1.35026
H    -0.00256  -2.28132  -0.66053
H    -2.87730  -2.64849   0.66260
H    -2.59604  -3.02043  -1.04865
H    -4.15831  -2.29234  -0.55318
