12
Generated by autodE on: 2022-06-17. E = -411.054239 Ha
C    -2.61306   0.24143  -1.11128
C    -1.68753  -0.34707  -0.10402
O    -1.99997  -1.14059   0.76641
N    -0.34153   0.11700  -0.24782
N     0.41890  -0.40998   0.62658
N     1.67920  -0.21620   0.78251
C     2.25425   0.63443  -0.06785
N     2.89390   1.34999  -0.73427
H    -3.62961  -0.14288  -0.96747
H    -2.60072   1.33965  -1.01947
H    -2.25091   0.00187  -2.12422
H    -0.01280  -1.07902   1.30203
