41
Generated by autodE on: 2022-10-21. E = -3513.801447 Ha. Imaginary frequency = -338.6 cm-1
C     4.71275  -1.90256   1.12150
O     3.29366  -1.78955   0.90748
C     2.90525  -1.33178  -0.28022
O     3.64550  -1.04682  -1.20255
C     1.46028  -1.08404  -0.34451
N     0.53650  -1.76778  -0.75334
C    -0.77586  -1.78663  -0.88703
C    -1.39420  -1.81403  -2.25247
C    -1.51038  -2.22897   0.32743
C    -2.98893  -2.46189   0.18337
O    -0.92251  -2.39427   1.39255
C    -0.80387   0.75018  -0.32784
Br   -2.28479   0.92195   0.88229
C    -0.89580   1.45013  -1.67562
C    -0.84820   2.98362  -1.39039
C     0.59175   3.19103  -0.83607
C     1.21844   1.76397  -0.93559
C     0.53689   1.23677  -2.20821
C     0.50519   0.94585   0.14024
O     0.75232   1.08735   1.46500
C     2.09000   1.34877   1.87187
H     5.14935  -2.62422   0.41702
H     4.83163  -2.25586   2.15167
H     5.19282  -0.92178   0.99412
H    -2.32816  -1.23589  -2.26323
H    -1.64024  -2.84576  -2.55725
H    -0.71167  -1.38691  -2.99785
H    -3.48835  -1.59719  -0.27597
H    -3.15961  -3.32766  -0.47842
H    -3.42589  -2.66231   1.16988
H    -1.72317   1.12962  -2.32082
H    -1.62967   3.28792  -0.68071
H    -1.00343   3.54283  -2.32549
H     0.60209   3.56441   0.19794
H     1.16804   3.89525  -1.45392
H     2.31404   1.73030  -0.90820
H     0.78894   0.19875  -2.44911
H     0.75010   1.86868  -3.08278
H     2.48072   2.27564   1.42391
H     2.06364   1.46365   2.96352
H     2.75656   0.51095   1.61954
