46
Generated by autodE on: 2022-10-21. E = -1259.299805 Ha
C    -0.03846   2.82938  -0.51019
O    -0.43545   1.94322  -1.55326
C    -1.11517   0.77087  -1.15962
O    -2.33625   1.12257  -0.53305
C    -3.29944   1.82159  -1.30659
C    -1.35072  -0.07751  -2.42828
C    -0.31238  -1.13792  -2.79917
C     1.06782  -0.65163  -3.24703
C     1.88788   0.18811  -2.26746
C     2.08768  -0.42672  -0.84172
C     3.07692   0.42129  -0.13817
N     3.81730   1.12794   0.40522
C     2.65862  -1.78172  -1.00985
N     3.08102  -2.84212  -1.20769
C     0.85599  -0.48904   0.05651
C    -0.38866  -0.00290  -0.07278
C    -1.04023  -0.27295   1.30798
C    -2.55765  -0.42657   1.43462
C    -3.13910  -1.59344   0.69484
O    -3.19369   0.28692   2.18147
O    -0.37619  -1.47690   1.72052
C     0.93387  -1.01205   1.51867
C     1.98874  -1.95616   1.99390
O     0.94105   0.21918   2.36144
C    -0.30784   0.72737   2.24125
O    -0.67872   1.74997   2.74729
H     0.22577   3.78057  -0.99091
H     0.84434   2.44581   0.02896
H    -0.85706   2.99857   0.20464
H    -2.85624   2.70333  -1.79493
H    -4.07598   2.15156  -0.60323
H    -3.76105   1.17419  -2.06947
H    -2.30915  -0.59393  -2.27620
H    -1.48639   0.63012  -3.26065
H    -0.21227  -1.86199  -1.97501
H    -0.73762  -1.71332  -3.63681
H     1.65789  -1.53390  -3.54334
H     0.95770  -0.03757  -4.15621
H     1.43965   1.17441  -2.12039
H     2.89562   0.33315  -2.68201
H    -2.96304  -2.49563   1.30572
H    -2.64994  -1.75324  -0.27529
H    -4.22097  -1.45557   0.57099
H     1.82386  -2.15396   3.06188
H     1.92165  -2.89765   1.43462
H     2.98980  -1.52424   1.86411
