46
Generated by autodE on: 2022-10-21. E = -1259.216261 Ha. Imaginary frequency = -346.5 cm-1
C    -1.51779   2.96872  -0.07441
O    -1.16356   2.39324  -1.32633
C    -1.02284   1.00052  -1.38657
O    -2.22259   0.32574  -1.08373
C    -3.37108   0.64987  -1.85484
C    -0.53064   0.72128  -2.82653
C    -0.02485  -0.70442  -3.08665
C     1.49166  -0.80396  -3.32049
C     2.43276  -0.11374  -2.33025
C     2.33921  -0.60089  -0.83834
C     3.48352  -0.02693  -0.09914
N     4.37456   0.46327   0.45581
C     2.44255  -2.07568  -0.81593
N     2.50007  -3.23163  -0.86055
C     1.05724  -0.15500  -0.20343
C    -0.00958   0.43989  -0.43251
C    -1.16936  -0.14309   1.71696
C    -2.60978  -0.29601   1.53014
C    -3.10244  -1.65854   1.12871
O    -3.36127   0.65223   1.74272
O    -0.36835  -1.25767   1.72496
C     0.86872  -0.85238   1.94680
C     1.92303  -1.82513   2.30110
O     0.86388   0.36351   2.50143
C    -0.44760   0.90659   2.37836
O    -0.70173   2.01179   2.78809
H    -2.32091   2.40820   0.42453
H    -1.86690   3.98901  -0.28548
H    -0.64477   3.02249   0.59426
H    -4.23922   0.30910  -1.27381
H    -3.45634   1.73488  -2.01793
H    -3.36769   0.13383  -2.82927
H    -1.37327   0.97300  -3.48607
H     0.25156   1.46373  -3.03644
H    -0.51705  -1.10749  -3.98454
H    -0.32980  -1.36976  -2.26412
H     1.77097  -1.86638  -3.40604
H     1.72394  -0.35108  -4.29869
H     2.26693   0.97201  -2.29762
H     3.47014  -0.27929  -2.65590
H    -4.16153  -1.59366   0.84887
H    -2.50968  -2.06430   0.29737
H    -2.99491  -2.34857   1.98250
H     1.83882  -2.02850   3.38251
H     2.92063  -1.41060   2.11147
H     1.77861  -2.75830   1.74697
