23
Generated by autodE on: 2022-06-07. E = -684.240103 Ha
C     0.62189   2.13432   0.67271
N     0.84983   0.72578   0.36146
C    -0.03277  -0.17402  -0.03752
C    -1.47014  -0.06336  -0.22819
C    -2.26689   0.80948   0.53870
C    -3.64263   0.86479   0.31862
C    -4.23652   0.05459  -0.65393
C    -3.45103  -0.82704  -1.40508
C    -2.07634  -0.89272  -1.19420
O     0.58047  -1.32883  -0.30712
C     1.99074  -1.20489  -0.06030
O     2.72736  -2.15291  -0.24617
C     2.12737   0.12943   0.37873
C     3.29851   0.78919   0.75910
N     4.29026   1.32387   1.07243
H    -0.22682   2.50652   0.08954
H     1.52246   2.69573   0.39628
H     0.42774   2.26184   1.74616
H    -1.82748   1.41748   1.32822
H    -4.25574   1.53920   0.91983
H    -5.31462   0.10412  -0.82195
H    -3.91268  -1.46587  -2.16079
H    -1.46101  -1.57609  -1.78062
