30
Generated by autodE on: 2022-06-07. E = -3315.468454 Ha
F    -2.11709   2.76708  -2.03073
C    -1.88406   1.43742  -2.29882
F    -3.03978   0.97099  -2.86595
C    -1.55454   0.74196  -1.05225
C    -0.75913   0.27844  -0.26382
C     0.48187  -0.15356   0.34213
Br    0.54831  -2.19245   0.02921
C     0.59612   0.06337   1.83221
C     1.83422  -0.07854   2.47968
C     1.93934   0.13400   3.85414
C     0.81069   0.48963   4.60198
C    -0.42440   0.62880   3.96462
C    -0.53085   0.41632   2.58742
C     1.61872   0.48770  -0.49310
C     1.46265   0.47077  -2.02587
C     0.66641   1.62155  -2.70443
C    -0.72602   1.29871  -3.27985
H     2.72039  -0.36931   1.91386
H     2.90832   0.01960   4.34537
H     0.89566   0.65580   5.67836
H    -1.31184   0.90493   4.53865
H    -1.49936   0.52712   2.09537
H     1.69773   1.52972  -0.13973
H     2.55828  -0.00974  -0.21583
H     2.48720   0.51004  -2.42466
H     1.06362  -0.50645  -2.34371
H     0.58737   2.48543  -2.02344
H     1.26780   1.97538  -3.55455
H    -0.75520   0.26880  -3.66777
H    -0.96224   1.97503  -4.11685
