53
Generated by autodE on: 2022-06-07. E = -3999.696474 Ha. Imaginary frequency = -360.1 cm-1
C     1.55834  -4.75740   4.88879
N     1.81947  -4.11906   3.60909
C     2.04204  -4.85704   2.45260
C     2.59982  -6.15981   2.48798
N     3.05763  -7.22849   2.51933
C     2.31202  -3.87850   1.39787
O     2.77185  -3.96208   0.28687
O     1.86864  -2.68434   1.93453
C     1.33670  -2.91620   3.18712
C     1.06375  -1.72973   4.00783
C     0.41517  -1.81058   5.25286
C     0.14154  -0.65185   5.97839
C     0.50792   0.59965   5.47553
C     1.15628   0.68690   4.23937
C     1.43058  -0.46614   3.50741
C    -0.53551  -3.81714   2.30767
C    -0.05281  -4.87754   1.83284
C    -0.26601  -6.08842   1.00796
F    -0.37074  -7.18614   1.83620
F     0.85833  -6.32336   0.24298
C    -1.46038  -6.01970   0.06981
C    -2.84639  -6.12356   0.71425
C    -3.18921  -5.12840   1.83208
C    -2.90148  -3.64972   1.49510
C    -1.78377  -3.02628   2.37013
Br   -1.33621  -1.25545   1.46463
C    -2.27552  -2.79122   3.79338
C    -2.08942  -3.80278   4.74724
C    -2.58859  -3.66511   6.04490
C    -3.28146  -2.50917   6.41106
C    -3.48617  -1.50275   5.46171
C    -2.99545  -1.64689   4.16273
H     1.79328  -4.06464   5.70308
H     0.50963  -5.08084   4.95483
H     2.21322  -5.63234   4.97482
H     0.08705  -2.76547   5.64958
H    -0.37448  -0.73223   6.93712
H     0.28559   1.50581   6.04361
H     1.44658   1.66058   3.83881
H     1.92468  -0.39246   2.53965
H    -1.33322  -6.85207  -0.63989
H    -1.35321  -5.08889  -0.50624
H    -3.57608  -6.01330  -0.10461
H    -2.97753  -7.14367   1.10848
H    -4.25730  -5.24444   2.06986
H    -2.65727  -5.42382   2.74691
H    -2.60592  -3.55086   0.44180
H    -3.80137  -3.03357   1.63031
H    -1.53103  -4.70067   4.48290
H    -2.42060  -4.46184   6.77305
H    -3.66022  -2.39180   7.42894
H    -4.02723  -0.59353   5.73380
H    -3.15257  -0.84816   3.43761
