12
Generated by autodE on: 2022-06-19. E = -157.299005 Ha
C    -1.63750  -0.36186   0.10925
C    -0.57876   0.69780   0.17659
C     0.74522   0.54571   0.01392
C     1.49252  -0.72167  -0.27512
H    -2.20065  -0.41428   1.05785
H    -1.23295  -1.36253  -0.09974
H    -2.37955  -0.12507  -0.67368
H    -0.94615   1.71102   0.38353
H     1.36830   1.44514   0.09869
H     2.24491  -0.92039   0.50847
H     0.83698  -1.60135  -0.34572
H     2.05326  -0.63875  -1.22301
