19
Generated by autodE on: 2022-06-16. E = -365.404925 Ha
C     3.13547  -0.33043  -0.21067
C     1.78810   0.29899   0.07041
O     1.74044   1.47879   0.53349
C     0.63694  -0.45846  -0.19611
N    -0.56853   0.16447   0.07171
C    -1.79780  -0.25542  -0.05302
C    -2.92422   0.64781   0.31028
C    -2.04882  -1.63298  -0.55885
H     3.68488   0.28866  -0.93977
H     3.73613  -0.34038   0.71430
H     3.05796  -1.35619  -0.59898
H     0.63450  -1.47076  -0.58889
H    -0.41512   1.11745   0.42772
H    -3.54281   0.18847   1.10066
H    -2.56657   1.62687   0.66012
H    -3.58760   0.79847  -0.55895
H    -1.56029  -2.38152   0.09025
H    -1.62082  -1.76244  -1.56899
H    -3.12413  -1.84695  -0.60013
