42
Generated by autodE on: 2022-06-21. E = -1049.697635 Ha
C    -4.18072  -0.69549  -0.52481
N    -2.95488  -0.62232   0.26450
C    -3.08683  -0.09923   1.54166
C    -2.07748   0.40257   2.27807
C    -0.67699   0.38037   1.75224
C    -0.61643   0.46468   0.20792
C    -0.65977   1.90919  -0.29239
N    -1.51062   2.72119   0.35435
O     0.00386   2.28482  -1.26420
C    -1.77136  -0.31825  -0.52394
C    -0.98678  -1.53924  -1.08711
C    -1.71931  -2.77397  -1.51904
N     0.07581  -1.71756  -0.13766
C     0.64905  -0.36107  -0.26619
C     1.93235  -0.10541   0.47375
C     2.59805   1.12164   0.32197
C     3.78532   1.37053   1.01353
C     4.32499   0.39916   1.86315
C     3.66784  -0.82410   2.01652
C     2.47811  -1.07478   1.32611
C     0.76707  -0.27657  -1.80534
O     1.63250   0.18312  -2.50869
O    -0.28808  -0.96456  -2.28783
H    -4.46834   0.29232  -0.93355
H    -4.05975  -1.39030  -1.36473
H    -5.00203  -1.06671   0.10338
H    -4.10645  -0.13681   1.93340
H    -2.27205   0.74908   3.29408
H    -0.18454  -0.55537   2.05752
H    -0.07232   1.19553   2.17586
H    -2.08283   2.38068   1.12417
H    -1.62287   3.67604   0.02721
H    -2.09705   0.26510  -1.39844
H    -2.29735  -3.17772  -0.67758
H    -2.40254  -2.54516  -2.34736
H    -0.99940  -3.53421  -1.85626
H     0.73613  -2.43154  -0.45507
H     2.18112   1.88087  -0.33871
H     4.29196   2.33028   0.88711
H     5.25402   0.59610   2.40339
H     4.07918  -1.58972   2.67854
H     1.97022  -2.03071   1.45959
