42
Generated by autodE on: 2022-06-21. E = -1049.661761 Ha. Imaginary frequency = -458.1 cm-1
C    -3.97814  -1.47220   0.16167
N    -2.77693  -0.73826   0.51338
C    -2.23743  -0.88764   1.78041
C    -1.24745  -0.10504   2.25261
C    -0.74674   1.07892   1.46773
C    -1.10115   0.96302  -0.00494
C    -0.80774   2.08089  -0.90342
N     0.04519   3.03203  -0.42426
O    -1.31412   2.20173  -2.03736
C    -2.03125  -0.02387  -0.45593
C    -0.95074  -1.34037  -1.37476
C    -1.79877  -2.43493  -1.93853
N     0.01834  -1.63201  -0.42546
C     0.95569  -0.64694  -0.45486
C     1.94333  -0.39555   0.57198
C     2.84270   0.68626   0.44396
C     3.74340   0.97684   1.46647
C     3.76979   0.20073   2.63123
C     2.88396  -0.87312   2.76660
C     1.97678  -1.17061   1.75031
C     0.83868  -0.02263  -1.75586
O     1.51856   0.79408  -2.35564
O    -0.29199  -0.58192  -2.33439
H    -4.80439  -1.20906   0.84284
H    -4.28449  -1.20754  -0.85749
H    -3.83834  -2.56597   0.20847
H    -2.66903  -1.69701   2.37614
H    -0.84844  -0.28940   3.25114
H     0.34015   1.20220   1.61852
H    -1.18780   2.01416   1.87384
H     0.64818   2.83099   0.36578
H     0.37565   3.72479  -1.08829
H    -2.61901   0.25963  -1.33273
H    -2.16810  -3.08212  -1.13407
H    -2.65310  -2.01739  -2.48645
H    -1.19641  -3.04434  -2.63032
H    -0.23219  -2.13403   0.42429
H     2.81682   1.29642  -0.45731
H     4.43066   1.81860   1.35471
H     4.47783   0.43217   3.43012
H     2.89720  -1.48420   3.67188
H     1.29195  -2.00993   1.87810
