41
Generated by autodE on: 2022-05-30. E = -1119.820488 Ha
C    -1.34038  -3.13090   1.47574
N    -1.05950  -2.08741   0.50722
C    -0.94242  -0.80964   0.88412
O    -1.12309  -0.42243   2.03925
C    -0.52214   0.22477  -0.19607
C    -1.11527   1.58102   0.21736
O    -2.19510   1.93025  -0.26911
N    -0.42168   2.31832   1.08817
C    -0.94282   3.56766   1.61334
C     1.01656   0.18246  -0.47577
C     1.94154  -0.00489   0.70105
C     2.67498   1.09078   1.17807
C     3.51022   0.95289   2.29051
C     3.63432  -0.28743   2.92106
C     2.92582  -1.39039   2.43130
C     2.08358  -1.25265   1.32741
O     1.17133  -0.91150  -1.38750
N    -0.10675  -1.23911  -1.99609
C     0.12189  -1.48428  -3.41169
C    -1.00941  -0.13029  -1.64438
C    -0.85797   1.04405  -2.54261
N    -0.65753   1.90086  -3.29646
C    -2.40903  -0.58205  -1.71451
N    -3.50262  -0.95060  -1.80832
H    -1.44518  -4.08497   0.94541
H    -2.27270  -2.91729   2.01927
H    -0.52480  -3.21602   2.21241
H    -0.79447  -2.33247  -0.44825
H     0.38729   1.90553   1.54280
H    -1.31268   4.19789   0.79292
H    -0.13547   4.09488   2.13586
H    -1.77250   3.39354   2.31823
H     1.27788   1.12201  -0.98875
H     2.59631   2.05555   0.67168
H     4.07322   1.81483   2.65522
H     4.29103  -0.39879   3.78690
H     3.03151  -2.36589   2.91131
H     1.54601  -2.11909   0.94275
H     0.58472  -0.62157  -3.91911
H     0.77464  -2.36151  -3.50625
H    -0.84761  -1.71651  -3.87532
