22
Generated by autodE on: 2022-05-30. E = -679.419257 Ha
C    -2.61165  -1.22561  -0.50235
N    -1.78218  -1.58165   0.63875
C    -0.57292  -1.11843   0.96137
O     0.09223  -1.52020   1.92542
C     0.05891  -0.06106   0.08883
C     1.30350  -0.41615  -0.69402
O     1.56485   0.19540  -1.73161
N     2.03704  -1.40813  -0.17066
C     3.28261  -1.86506  -0.75286
C    -0.42275   1.20923   0.05578
C    -1.60913   1.58042   0.77384
N    -2.55602   1.89424   1.34341
C     0.19342   2.29165  -0.66242
N     0.59366   3.23734  -1.18127
H    -2.00512  -0.76734  -1.29238
H    -3.07011  -2.13752  -0.90799
H    -3.41307  -0.52811  -0.21520
H    -2.14887  -2.27991   1.28501
H     1.74793  -1.77404   0.73618
H     3.27434  -2.96051  -0.85286
H     4.13946  -1.57940  -0.12235
H     3.40439  -1.41384  -1.74407
