19
Generated by autodE on: 2022-07-26. E = -440.328819 Ha
C    -1.41197   0.60758  -3.42197
N    -0.79028  -0.62526  -3.05217
O    -0.36781  -0.58781  -1.77078
C    -0.46518   0.37865  -0.91179
C     0.06822   0.17906   0.41130
C    -0.04151   1.23047   1.34830
C     0.45969   1.08100   2.64005
C     1.07795  -0.11514   3.02168
C     1.19196  -1.16429   2.09865
C     0.69493  -1.02547   0.80627
H    -2.30635   0.85261  -2.80692
H    -0.73233   1.48495  -3.34013
H    -1.72767   0.50997  -4.46863
H    -0.94384   1.31654  -1.19260
H    -0.52471   2.16405   1.05013
H     0.36794   1.90220   3.35462
H     1.47040  -0.23142   4.03436
H     1.67440  -2.09917   2.39355
H     0.78561  -1.84440   0.09073
