41
Generated by autodE on: 2022-05-30. E = -1119.762898 Ha. Imaginary frequency = -205.6 cm-1
C    -0.82246  -2.54346   2.24644
N    -0.86843  -1.74616   1.03407
C    -0.98848  -0.40814   1.09520
O    -1.09254   0.15891   2.19696
C    -0.97720   0.37370  -0.19186
C    -0.73291   1.86454  -0.18087
O    -0.54067   2.47146  -1.24728
N    -0.70181   2.47637   1.00670
C    -0.33048   3.87039   1.12418
C     1.30524  -0.09707  -0.68715
C     2.00488  -0.32338   0.55421
C     2.37962   0.80738   1.30975
C     2.98464   0.64419   2.55337
C     3.22874  -0.64164   3.04899
C     2.86961  -1.76822   2.29686
C     2.25710  -1.61651   1.05668
O     0.90615  -1.13754  -1.38454
N     0.18388  -1.02321  -2.53182
C     0.60431   0.09988  -3.35247
C    -1.57700  -0.14877  -1.36782
C    -2.08423   0.70264  -2.41471
N    -2.58714   1.25150  -3.30762
C    -2.27387  -1.40870  -1.39391
N    -2.87296  -2.40058  -1.48304
H    -0.69924  -3.59634   1.96564
H    -1.75431  -2.43293   2.82090
H     0.01826  -2.24198   2.89082
H    -0.58747  -2.19783   0.17140
H    -0.85658   1.88067   1.82516
H     0.64782   4.05979   0.65357
H    -0.27157   4.13215   2.18770
H    -1.06957   4.52743   0.63833
H     1.37941   0.87191  -1.17931
H     2.18181   1.80665   0.91633
H     3.26785   1.52093   3.13926
H     3.70549  -0.76821   4.02359
H     3.06908  -2.76967   2.68349
H     1.97670  -2.49111   0.46873
H     0.39200   1.10091  -2.94899
H     1.69220   0.01885  -3.53375
H     0.07798  -0.00951  -4.30844
