30
Generated by autodE on: 2022-05-29. E = -1020.667671 Ha
C    -4.59075   0.26540   0.79819
N    -3.18176  -0.00338   0.59392
C    -2.41059   0.75898  -0.17432
O    -2.77194   1.76075  -0.80323
C    -0.95833   0.35443  -0.30176
C    -0.14528  -0.61368   0.22917
C    -0.43049  -1.67117   1.20903
C     0.71871  -2.50532   1.70285
O    -1.56484  -1.87173   1.64810
C     1.23401  -0.44098  -0.41817
C     1.56712  -1.55670  -1.33555
N     1.77729  -2.41400  -2.08581
C     2.40769  -0.21247   0.57289
O     3.45079  -0.81523   0.50965
O     2.08499   0.72174   1.44103
C     3.07907   1.06929   2.42737
O     1.12326   0.76581  -1.18885
N    -0.23515   1.14782  -1.15940
C    -0.53976   2.14256  -1.98536
N    -0.61916   3.01482  -2.75560
H    -5.19572  -0.59140   0.46362
H    -4.79745   0.43756   1.86574
H    -4.88315   1.15457   0.22848
H    -2.73344  -0.80383   1.06864
H     1.35035  -2.88395   0.88605
H     1.35329  -1.89565   2.36799
H     0.32057  -3.34924   2.27929
H     3.32607   0.18573   3.03193
H     3.98173   1.44917   1.92956
H     2.62217   1.84744   3.04768
