16
Generated by autodE on: 2022-05-29. E = -438.207078 Ha
C    -2.73023   0.92810   0.47003
N    -2.50668  -0.49858   0.61100
C    -1.34957  -1.16159   0.44976
O    -1.22044  -2.37991   0.61274
C    -0.18472  -0.37150   0.05496
C     0.84610   0.18849  -0.26599
C     2.07629   0.87005  -0.65011
C     2.97677   1.28509   0.47420
O     2.31954   1.07124  -1.82994
H    -2.91132   1.40245   1.44751
H    -3.60172   1.11275  -0.17484
H    -1.85456   1.40249   0.01003
H    -3.28922  -1.07921   0.90743
H     3.26243   0.39957   1.06550
H     2.43296   1.96382   1.15183
H     3.87023   1.78171   0.07345
