14
Generated by autodE on: 2022-05-29. E = -582.336166 Ha
C    -3.56792   0.07435  -0.91976
O    -2.14620   0.30014  -0.82203
C    -1.49734  -0.40979   0.07622
O    -1.96168  -1.23587   0.83071
C    -0.03237  -0.09705   0.09952
C     0.78148  -0.79248   1.03177
N     1.35562  -1.41202   1.83188
O     0.37825   0.79230  -0.73735
N     1.57853   1.30704  -0.99753
C     2.60485   0.84452  -0.28821
N     3.63786   0.58890   0.20402
H    -3.91836   0.73826  -1.71686
H    -4.05201   0.32369   0.03471
H    -3.76266  -0.97638  -1.17546
