56
Generated by autodE on: 2022-06-22. E = -1079.770538 Ha
C     4.38776  -1.26032   1.93170
N     3.11998  -0.76396   1.44058
C     3.00968   0.37623   0.74323
O     3.96803   1.13354   0.52915
C     1.63327   0.68915   0.16601
N     0.54678   0.04636   0.87705
C     0.35575   0.54988   2.23115
C    -0.65700   0.03182   0.01125
C    -1.41255   1.37723   0.20288
C    -0.92360   2.59376  -0.30612
C    -1.52311   3.81894  -0.00085
C    -2.63370   3.87336   0.84325
C    -3.12026   2.68282   1.38649
C    -2.51396   1.46281   1.07560
C    -1.57327  -1.13735   0.39631
C    -1.14736  -2.15217   1.26124
C    -1.96896  -3.24813   1.54969
C    -3.23426  -3.35366   0.96926
C    -3.67033  -2.34944   0.09729
C    -2.84994  -1.25552  -0.18028
C    -0.02567  -0.23036  -1.44944
C    -0.10508  -1.73073  -1.80610
C    -0.80137   0.47302  -2.57392
C     1.50668   0.23740  -1.32890
C     2.50225  -0.89689  -1.65026
C     1.90236   1.39689  -2.25582
H     5.01278  -1.66229   1.11544
H     4.95054  -0.45300   2.42269
H     4.20620  -2.06076   2.66029
H     2.28099  -1.33467   1.50804
H     1.56159   1.79307   0.21855
H     0.23163   1.64947   2.26751
H     1.22230   0.28895   2.85410
H    -0.53189   0.09325   2.68770
H    -0.05482   2.61245  -0.95315
H    -1.11042   4.73553  -0.42929
H    -3.10662   4.82911   1.08119
H    -3.97634   2.69706   2.06572
H    -2.90988   0.56220   1.54122
H    -0.15255  -2.09203   1.70185
H    -1.61118  -4.02492   2.23021
H    -3.87638  -4.20916   1.19223
H    -4.65638  -2.41752  -0.36886
H    -3.20969  -0.48092  -0.85936
H     0.41718  -1.91458  -2.75377
H     0.33137  -2.38271  -1.04108
H    -1.14753  -2.04000  -1.94852
H    -1.85426   0.15426  -2.55674
H    -0.78908   1.56481  -2.52859
H    -0.38616   0.17620  -3.54874
H     3.53241  -0.52824  -1.54158
H     2.38934  -1.22647  -2.69157
H     2.38850  -1.77153  -1.00042
H     2.93713   1.69700  -2.03114
H     1.86161   1.08962  -3.31105
H     1.27746   2.29108  -2.14363
