18
Generated by autodE on: 2022-06-22. E = -235.968069 Ha
C     1.40832  -1.16449   0.73869
C     0.66477  -0.00065   0.12869
C     1.58453   1.16159  -0.15907
C    -0.66479   0.00065  -0.12868
C    -1.58458  -1.16153   0.15927
C    -1.40825   1.16442  -0.73890
H     1.89876  -0.85617   1.67960
H     0.78128  -2.03693   0.95784
H     2.22190  -1.49382   0.06768
H     2.39829   0.84783  -0.83734
H     1.08917   2.02976  -0.60997
H     2.07860   1.49932   0.76974
H    -1.08962  -2.02874   0.61244
H    -2.39957  -0.84699   0.83567
H    -2.07697  -1.50095  -0.76983
H    -2.22076   1.49512  -0.06722
H    -1.90009   0.85546  -1.67885
H    -0.78083   2.03614  -0.95980
