38
Generated by autodE on: 2022-06-22. E = -843.750557 Ha
C     5.12625   2.25551   0.33247
N     3.75029   1.94152   0.02366
C     3.13249   0.83568   0.55996
O     3.73042   0.17251   1.44357
C     1.82108   0.59714   0.01997
N     0.96561  -0.42315   0.33427
C     1.52663  -1.60977   1.01603
C    -0.34999  -0.38272   0.04637
C    -1.16007  -1.60724  -0.05788
C    -0.69055  -2.76835  -0.70845
C    -1.49987  -3.89898  -0.82620
C    -2.79900  -3.89676  -0.30809
C    -3.28522  -2.74642   0.32473
C    -2.47966  -1.61526   0.44425
C    -1.00554   0.90676  -0.26216
C    -0.84779   2.02879   0.57947
C    -1.54195   3.20925   0.32866
C    -2.40144   3.30555  -0.77512
C    -2.56389   2.20424  -1.61835
C    -1.87660   1.01436  -1.36193
H     5.83361   1.49208  -0.04132
H     5.27881   2.33924   1.41944
H     5.38483   3.21831  -0.12760
H     3.32862   2.38611  -0.78396
H     1.41204   1.34437  -0.65521
H     2.14791  -2.18467   0.31730
H     0.71671  -2.22919   1.40577
H     2.16360  -1.25314   1.82896
H     0.30961  -2.77840  -1.14404
H    -1.11593  -4.78457  -1.33842
H    -3.43165  -4.78223  -0.40323
H    -4.29946  -2.73227   0.73103
H    -2.86683  -0.72366   0.94108
H    -0.17943   1.96764   1.44078
H    -1.41807   4.06161   1.00110
H    -2.94065   4.23508  -0.97194
H    -3.23017   2.26771  -2.48206
H    -2.01438   0.15484  -2.02081
