38
Generated by autodE on: 2022-07-27. E = -843.750636 Ha
C     5.41400   1.48787  -0.02834
N     3.99061   1.37024  -0.24587
C     3.23996   0.43564   0.42865
O     3.77479  -0.22381   1.35386
C     1.88203   0.35146  -0.03845
N     0.89512  -0.47386   0.42282
C     1.28546  -1.58993   1.31204
C    -0.40663  -0.29793   0.11769
C    -0.88234   0.99952  -0.40818
C    -1.74495   1.04086  -1.51942
C    -2.26527   2.25409  -1.97865
C    -1.94154   3.44819  -1.33062
C    -1.08908   3.42048  -0.21774
C    -0.56110   2.21427   0.23486
C    -1.37665  -1.40168   0.20354
C    -1.07476  -2.70405  -0.24931
C    -2.02845  -3.72094  -0.19037
C    -3.30885  -3.46221   0.30956
C    -3.62938  -2.17077   0.74498
C    -2.67893  -1.15269   0.68832
H     5.79305   2.34537  -0.59972
H     5.63931   1.65454   1.03623
H     5.97109   0.58681  -0.34550
H     3.59705   1.79883  -1.07577
H     1.57072   1.05111  -0.80985
H     1.92197  -1.18105   2.10023
H     0.39335  -2.04649   1.74340
H     1.86581  -2.33352   0.75170
H    -2.00825   0.11076  -2.02685
H    -2.92764   2.26328  -2.84764
H    -2.35008   4.39695  -1.68615
H    -0.83996   4.34812   0.30333
H     0.10353   2.20689   1.10124
H    -0.09012  -2.91687  -0.66888
H    -1.77246  -4.72051  -0.55013
H    -4.05469  -4.25924   0.35306
H    -4.62725  -1.95664   1.13538
H    -2.93720  -0.14942   1.03266
