56
Generated by autodE on: 2022-06-22. E = -1079.699117 Ha. Imaginary frequency = -348.5 cm-1
C     4.53537   2.22831   1.86482
N     3.13362   2.07253   1.53608
C     2.51396   0.86916   1.64298
O     3.07326  -0.09056   2.20362
C     1.19365   0.80557   0.97630
N     0.14572   0.08659   1.50263
C     0.38194  -0.89530   2.57018
C    -1.09025   0.19753   0.87791
C    -1.64590   1.54339   0.62599
C    -2.68166   1.73367  -0.31643
C    -3.25063   2.98733  -0.53346
C    -2.80362   4.10509   0.18075
C    -1.78271   3.93873   1.12248
C    -1.21683   2.68213   1.34376
C    -2.03127  -0.93769   0.99168
C    -1.60136  -2.27444   0.82538
C    -2.48485  -3.34735   0.93453
C    -3.83830  -3.12709   1.20948
C    -4.28700  -1.81440   1.38945
C    -3.40041  -0.74234   1.28757
C     0.18154   0.11364  -1.49073
C    -0.59387  -1.06779  -2.00229
C    -0.17754   1.41704  -2.14771
C     1.48329  -0.01974  -0.93736
C     2.01340  -1.41050  -0.65516
C     2.56333   0.93142  -1.43281
H     4.80897   3.28706   1.77476
H     4.73240   1.90025   2.89591
H     5.18278   1.63726   1.19324
H     2.69084   2.78663   0.96824
H     0.89685   1.75261   0.53135
H     0.92696  -1.78178   2.22211
H     0.97097  -0.42426   3.36530
H    -0.58112  -1.20257   2.98751
H    -1.24531   1.46484  -2.39743
H    -4.04696   3.09361  -1.27469
H    -3.24570   5.08896   0.00775
H    -1.42778   4.79490   1.70224
H    -0.43820   2.58123   2.10149
H    -0.55520  -2.47788   0.60881
H    -2.11146  -4.36503   0.79566
H    -4.53266  -3.96688   1.28795
H    -5.33676  -1.62143   1.62474
H    -3.77487   0.26655   1.45952
H    -0.41587  -1.99390  -1.44628
H    -1.67910  -0.87904  -2.00617
H    -0.30660  -1.27156  -3.05553
H     0.06076   2.29213  -1.52206
H     0.38033   1.54276  -3.09682
H    -3.03841   0.88009  -0.89380
H     2.26879  -1.92801  -1.59827
H     1.28476  -2.03894  -0.12719
H     2.92503  -1.36856  -0.04280
H     2.28656   1.99027  -1.33291
H     2.76156   0.74748  -2.50467
H     3.51068   0.77802  -0.89513
