44
Generated by autodE on: 2022-06-18. E = -958.839697 Ha
C    -3.89101   2.22582  -0.06458
N    -3.30544   0.89858  -0.07264
C    -1.98260   0.70995   0.07254
O    -1.21647   1.66047   0.28628
C    -1.43187  -0.73445  -0.04701
C    -2.46603  -1.78862   0.35972
C    -0.90839  -0.99238  -1.48521
C    -1.81243  -0.53964  -2.62390
C     0.47012  -0.32096  -1.49554
C     1.43583  -0.85303  -2.54855
C     0.95797  -0.38950  -0.00478
C     2.14143  -1.37289   0.13704
C     1.82171  -2.82747   0.31102
O     3.28735  -0.95549   0.08966
C     1.52119   0.99958   0.38576
O     1.82141   1.87450  -0.40044
O     1.71110   1.11860   1.69907
C     2.25182   2.36206   2.16557
N    -0.20397  -0.86163   0.72927
C    -0.28010  -0.78854   2.17089
H    -3.63162   2.76189   0.86097
H    -4.98232   2.13458  -0.12767
H    -3.53497   2.82975  -0.91566
H    -3.89743   0.10857  -0.29900
H    -2.91955  -1.57866   1.33865
H    -3.27484  -1.85373  -0.38382
H    -1.97867  -2.77294   0.40206
H    -0.77160  -2.08481  -1.55265
H    -2.81903  -0.97748  -2.53802
H    -1.91497   0.55683  -2.64770
H    -1.39616  -0.85560  -3.59254
H     0.31658   0.74578  -1.70036
H     2.39994  -0.32583  -2.50121
H     1.01701  -0.69348  -3.55369
H     1.62695  -1.93134  -2.43429
H     2.72104  -3.42654   0.11600
H     1.49101  -2.99761   1.34869
H     0.99212  -3.13478  -0.34035
H     3.24501   2.53746   1.72773
H     1.58265   3.19323   1.90034
H     2.32765   2.26926   3.25516
H     0.69583  -1.02990   2.61311
H    -1.00056  -1.53332   2.54205
H    -0.58446   0.20327   2.55694
