32
Generated by autodE on: 2022-06-18. E = -801.491768 Ha
C     2.84756   0.59223  -2.18924
N     2.27909  -0.09227  -1.04222
C     1.79420   0.58208   0.00010
O     1.85470   1.80039   0.18117
C     1.22030  -0.22701   1.14583
C     2.09969  -0.46514   2.31973
N    -0.03096  -0.55479   1.12449
C    -0.67790  -1.19221   2.28039
C    -0.79673  -0.47444  -0.09813
C    -0.49896  -1.45634  -1.07997
C    -1.34031  -1.53601  -2.33450
O     0.46957  -2.25147  -0.94675
C    -1.81220   0.53756  -0.15906
O    -2.59395   0.75207  -1.08393
O    -1.82525   1.30897   0.96724
C    -2.80133   2.34887   1.01612
H     3.49333   1.41393  -1.85145
H     2.06325   1.01290  -2.84032
H     3.44647  -0.11896  -2.77181
H     1.95545  -1.06149  -1.13822
H     2.03831  -1.51850   2.63422
H     3.13961  -0.21186   2.08274
H     1.76614   0.15491   3.16935
H    -0.32660  -0.74783   3.21897
H    -1.75908  -1.05440   2.18675
H    -0.44458  -2.26774   2.26576
H    -1.02146  -2.41662  -2.90835
H    -2.41384  -1.59870  -2.10860
H    -1.19640  -0.63247  -2.94747
H    -2.64996   3.07188   0.20029
H    -3.82083   1.94005   0.94640
H    -2.66617   2.84770   1.98388
