32
Generated by autodE on: 2022-07-27. E = -801.487312 Ha
C    -2.31840   2.22578   1.13545
N    -1.98283   1.02064   0.39812
C    -1.58916  -0.09291   1.01687
O    -1.56401  -0.28711   2.23467
C    -1.25010  -1.28346   0.14277
C    -2.29260  -2.32370  -0.04236
N    -0.04482  -1.40291  -0.31374
C     0.36398  -2.59406  -1.07490
C     0.89615  -0.30210  -0.23084
C     1.91923  -0.36448   0.76877
C     1.84080  -1.52511   1.75045
O     2.82313   0.48266   0.89863
C     0.65326   0.72007  -1.20062
O    -0.33203   0.74417  -1.95844
O     1.56959   1.71383  -1.22843
C     1.31680   2.78434  -2.13999
H    -1.41315   2.77826   1.43696
H    -2.93526   2.87537   0.50184
H    -2.88292   1.96337   2.03978
H    -1.76515   1.09053  -0.59996
H    -1.99457  -3.25054   0.47703
H    -3.25660  -1.98558   0.35468
H    -2.39659  -2.56491  -1.11254
H     1.45741  -2.62781  -1.09620
H    -0.01459  -2.49999  -2.10422
H    -0.03331  -3.50796  -0.61758
H     0.88932  -1.49746   2.30526
H     2.67688  -1.44571   2.45765
H     1.89525  -2.49959   1.24006
H     1.28358   2.42374  -3.17902
H     2.15070   3.48671  -2.01708
H     0.36731   3.28926  -1.90574
