31
Generated by autodE on: 2022-06-18. E = -635.613709 Ha
C    -1.19886   2.78056  -0.51975
N    -0.10717   2.08136  -0.21853
C     1.10761   2.90431   0.00027
C    -0.04218   0.71959  -0.03942
C     1.22295   0.00969  -0.24099
C     2.15110   0.37079  -1.24718
C     3.35289  -0.32124  -1.41084
C     3.66196  -1.41451  -0.59608
C     2.74505  -1.80584   0.38984
C     1.55280  -1.10831   0.56567
C    -1.27236  -0.04045   0.23824
C    -2.26064   0.42406   1.14029
C    -3.37320  -0.34968   1.45763
C    -3.55242  -1.61573   0.88043
C    -2.59287  -2.09055  -0.01707
C    -1.47463  -1.31555  -0.33538
H    -1.15842   3.86499  -0.44655
H    -2.11922   2.26197  -0.77524
H     1.86356   2.32715   0.53802
H     1.51035   3.25478  -0.95768
H     0.81846   3.77301   0.60477
H     1.91803   1.19178  -1.92683
H     4.04584  -0.01238  -2.19808
H     4.59908  -1.95976  -0.72995
H     2.96954  -2.65804   1.03684
H     0.85963  -1.41974   1.34967
H    -2.14877   1.40675   1.60370
H    -4.10892   0.03473   2.16912
H    -4.42977  -2.21799   1.12734
H    -2.71657  -3.07165  -0.48327
H    -0.73763  -1.70413  -1.04069
