22
Generated by autodE on: 2022-05-31. E = -872.696049 Ha
C     4.00092  -0.75543  -0.09911
O     2.61989  -0.97498  -0.42180
C     1.76777   0.01005  -0.11807
O     2.09845   1.06057   0.39827
C     0.38996  -0.35012  -0.48857
C    -0.76380   0.22907  -0.12256
C    -1.01646   1.40182   0.76991
F    -2.33511   1.54333   1.00425
F    -0.58441   2.55425   0.23062
F    -0.41791   1.27191   1.96699
C    -1.87214  -0.67600  -0.71698
C    -1.83011  -2.00211   0.07803
C    -0.68496  -2.58260  -0.28859
C    -0.04655  -1.60050  -1.29628
O    -1.22216  -1.07243  -1.93249
H     4.38593   0.11863  -0.64403
H     4.53153  -1.66246  -0.40987
H     4.12059  -0.59380   0.98191
H    -2.84692  -0.20994  -0.88841
H    -2.57538  -2.31319   0.80852
H    -0.22504  -3.50766   0.05596
H     0.67949  -1.99651  -2.01160
