37
Generated by autodE on: 2022-05-31. E = -1289.798073 Ha. Imaginary frequency = -386.8 cm-1
C     2.62531   1.15647  -2.85309
O     2.02728   1.23233  -1.55024
C     1.92930   0.09487  -0.85745
O     2.32565  -0.98328  -1.25541
C     1.28238   0.32955   0.44602
C     0.80075  -0.55103   1.34164
C     0.80325  -2.04809   1.32504
F     0.07450  -2.56286   0.31063
F     2.04096  -2.55180   1.21625
F     0.27677  -2.53969   2.46367
C     0.20120   0.31977   2.46518
O     1.14981   1.40018   2.46123
C     0.99298   1.71269   1.05914
C    -0.52223   1.94754   1.00305
C    -1.05899   1.03163   1.87740
C    -2.13969  -0.43823   0.79808
C    -2.80789  -1.36095   1.72198
N    -2.14276  -0.14335  -0.37279
C    -1.79969   0.80514  -1.26160
C    -2.48882   2.04645  -1.22594
N    -3.05776   3.06560  -1.21781
C    -1.00323   0.48654  -2.45175
C    -0.63563  -0.95648  -2.66897
O    -0.69588   1.37526  -3.24642
H     2.60481   2.17675  -3.25138
H     2.04670   0.48453  -3.50114
H     3.66093   0.79602  -2.77480
H     0.09545  -0.14324   3.44952
H     1.63759   2.53300   0.73414
H    -0.98909   2.81623   0.54928
H    -1.97079   1.17421   2.46140
H    -3.15515  -2.24776   1.17149
H    -3.68064  -0.83862   2.14796
H    -2.14167  -1.65226   2.54369
H    -1.52126  -1.47674  -3.07321
H    -0.35872  -1.46330  -1.73705
H     0.17995  -1.02822  -3.39902
