34
Generated by autodE on: 2022-10-08. E = -674.959014 Ha
C     0.17356   1.76566   0.54780
C     0.71657   0.38536   0.66223
C     2.03230   0.04317   0.12570
C     2.28331  -1.22168  -0.46147
C     3.53752  -1.54557  -0.97674
C     4.58271  -0.61607  -0.94069
C     4.34896   0.64809  -0.38527
C     3.09808   0.97573   0.13404
N    -0.06016  -0.56469   1.24884
C     0.55351  -1.69063   1.97946
C    -1.41960  -0.49757   1.33917
C    -2.32564  -0.00426   0.34579
C    -3.69933   0.13540   0.69853
C    -4.65400   0.53139  -0.22965
C    -4.29145   0.80208  -1.55954
C    -2.95188   0.65696  -1.93383
C    -1.98044   0.27501  -1.00663
H    -0.50266   1.97649   1.39442
H    -0.42894   1.93414  -0.36825
H     0.98589   2.50406   0.53239
H     1.47434  -1.94916  -0.53872
H     3.69501  -2.52937  -1.42623
H     5.56390  -0.86896  -1.34877
H     5.15375   1.38684  -0.35060
H     2.95171   1.96255   0.57603
H     0.03609  -1.77944   2.94488
H     0.42818  -2.63300   1.43041
H     1.61510  -1.49640   2.16137
H    -1.84273  -0.97932   2.22226
H    -3.99939  -0.07804   1.72815
H    -5.69720   0.63201   0.08234
H    -5.04190   1.11851  -2.28737
H    -2.65185   0.84629  -2.96822
H    -0.95283   0.13714  -1.34457
