47
Generated by autodE on: 2022-10-08. E = -920.231270 Ha. Imaginary frequency = -297.6 cm-1
C    -2.28253   2.82401   1.40621
N    -0.89380   2.89675   0.98618
C    -0.07615   1.75489   1.02697
N    -0.02815   1.00166   2.22508
N     1.16767   1.94071   0.47285
C     1.25843  -0.12061  -1.17016
C     2.60412  -0.67772  -1.11861
C     3.35450  -0.66580  -2.31373
C     4.66752  -1.13193  -2.33497
C     5.26687  -1.59121  -1.15700
C     4.54653  -1.57336   0.04259
C     3.22759  -1.12286   0.06746
N     0.20083  -0.49244  -0.47102
C     0.24386  -1.73212   0.31755
C    -0.91983   0.39353  -0.35232
C    -1.07001   1.33145  -1.53278
C    -2.21696  -0.22594   0.10804
C    -2.39600  -0.82237   1.37480
C    -3.63536  -1.31972   1.78170
C    -4.74343  -1.25098   0.93405
C    -4.58687  -0.68521  -0.33345
C    -3.34786  -0.18450  -0.73680
H    -2.92706   2.24415   0.72540
H    -2.35856   2.37775   2.40812
H    -2.68229   3.84580   1.47038
H    -0.78789   3.40997   0.11325
H     0.52236   1.51335   2.91993
H    -0.95644   0.86192   2.61531
H     1.95120   1.46719   0.90769
H     1.37553   2.82556   0.02312
H     1.09885   0.64719  -1.92055
H     2.88990  -0.29346  -3.22973
H     5.22925  -1.13024  -3.27165
H     6.29857  -1.94981  -1.17053
H     5.01912  -1.90589   0.96948
H     2.69386  -1.08354   1.01680
H     0.43079  -1.51511   1.37491
H    -0.71537  -2.24792   0.21227
H     1.03106  -2.37943  -0.07714
H    -1.16197   0.78033  -2.48462
H    -1.96777   1.94716  -1.41096
H    -0.21935   2.01718  -1.63293
H    -1.56380  -0.90424   2.06774
H    -3.73067  -1.76417   2.77536
H    -5.71344  -1.63793   1.25460
H    -5.43466  -0.63384  -1.02113
H    -3.26866   0.24367  -1.73494
