19
Generated by autodE on: 2022-07-27. E = -585.837135 Ha
C     2.80564   0.37540   2.33039
N     2.26029  -0.28021   1.15449
C     0.94264  -0.41909   0.98759
O     0.08191  -0.03700   1.78458
C     0.49236  -1.17474  -0.23501
C     1.06841  -2.48350  -0.60422
O    -0.51981  -0.78312  -0.90681
C    -1.22865   0.39245  -0.90069
C    -0.73624   1.57336  -0.33339
N    -0.32429   2.57837   0.10309
C    -2.38805   0.36174  -1.68925
N    -3.36696   0.35252  -2.33033
H     2.30600   1.34183   2.49200
H     3.87769   0.54306   2.17672
H     2.66303  -0.24145   3.23186
H     2.89336  -0.64688   0.44879
H     1.14077  -3.13033   0.28559
H     2.09848  -2.34083  -0.98010
H     0.46377  -2.96482  -1.38316
