19
Generated by autodE on: 2022-06-16. E = -585.842812 Ha
C    -3.79404   0.45174   0.51124
N    -2.36071   0.29948   0.35881
C    -1.83656  -0.25963  -0.74210
O    -2.50573  -0.68078  -1.69088
C    -0.33883  -0.36126  -0.79193
C     0.35115  -0.94098  -1.95279
O     0.25752   0.09243   0.24490
C     1.56043   0.19956   0.60874
C     2.65075  -0.18853  -0.18785
N     3.61227  -0.48204  -0.78539
C     1.75146   0.76240   1.88303
N     1.93142   1.22702   2.94058
H    -3.99733   0.94925   1.46656
H    -4.21465   1.05851  -0.30608
H    -4.29986  -0.52683   0.50127
H    -1.74252   0.62021   1.09729
H     0.96665  -1.80197  -1.64075
H    -0.39049  -1.26316  -2.69064
H     1.02959  -0.19885  -2.40698
