25
Generated by autodE on: 2022-06-16. E = -664.463643 Ha. Imaginary frequency = -227.8 cm-1
C     2.78459   1.33190   1.48286
N     2.07371   0.57383   0.46926
C     1.35617  -0.51531   0.79048
O     1.38553  -1.05637   1.89436
C     0.59533  -1.11239  -0.38808
C     1.13452  -2.36341  -0.97740
C    -1.32760  -1.99131   0.79938
C    -2.17158  -0.93381   0.85158
C    -0.89239   0.70930  -0.89186
C    -0.66761   1.58095   0.19007
N    -0.53302   2.32996   1.07803
C    -1.84175   1.02076  -1.88351
N    -2.64916   1.28263  -2.68678
O    -0.11909  -0.37150  -1.18290
H     3.41058   0.66442   2.09118
H     2.07568   1.85152   2.14882
H     3.42237   2.07435   0.98889
H     1.97677   0.98198  -0.45634
H     1.27949  -3.10885  -0.18280
H     0.46339  -2.75346  -1.75330
H     2.12663  -2.15871  -1.42030
H    -1.45819  -2.76980   0.04337
H    -0.61428  -2.18634   1.60174
H    -2.11692  -0.20161   1.66151
H    -2.98715  -0.81517   0.13416
