55
Generated by autodE on: 2022-06-25. E = -1286.028292 Ha
C    -2.35957   0.09418   2.61987
O    -1.47644  -0.90260   2.12575
C    -1.16018  -0.92311   0.74406
C    -2.49894  -0.98634  -0.01171
O    -3.05422  -2.06567  -0.15822
C    -3.16321   0.27573  -0.40689
C    -4.64347   0.24515  -0.63101
C    -2.41412   1.38551  -0.64291
C    -3.01902   2.65913  -1.14583
C    -0.93309   1.33194  -0.56226
O    -0.26169   2.17774  -1.13540
C    -0.23533   0.28235   0.31848
O     0.23011   0.86394   1.52042
C     0.54323   2.24724   1.60827
C     0.98034  -0.41616  -0.42530
C     0.57393  -0.75262  -1.87486
C     1.59138  -1.29135  -2.84259
O    -0.60987  -0.71643  -2.18616
C     2.26983   0.37680  -0.31650
C     3.06151   0.27707   0.83623
C     4.20850   1.06012   0.98340
C     4.58445   1.95358  -0.02394
C     3.80591   2.05328  -1.18112
C     2.65858   1.26999  -1.32486
N     1.04445  -1.69115   0.30633
C     2.03745  -2.68270  -0.07143
C    -0.31619  -2.19687   0.46968
C    -0.43127  -3.27974   1.53225
H    -3.40490  -0.09528   2.31826
H    -2.07468   1.10841   2.30457
H    -2.29982   0.03610   3.71596
H    -5.14391   1.00919  -0.01472
H    -5.05974  -0.73954  -0.38790
H    -4.88485   0.47747  -1.68154
H    -2.31598   3.49651  -1.05846
H    -3.94288   2.89821  -0.59916
H    -3.29307   2.55967  -2.21100
H     1.26349   2.57288   0.84508
H     0.99099   2.38297   2.60242
H    -0.36140   2.87514   1.54104
H     1.33275  -2.34162  -3.05512
H     2.62301  -1.23666  -2.48212
H     1.49928  -0.73566  -3.78847
H     2.76620  -0.41310   1.62487
H     4.81014   0.97279   1.89133
H     5.48127   2.56722   0.09014
H     4.09037   2.74582  -1.97676
H     2.05212   1.37732  -2.22453
H     1.72831  -3.30657  -0.93295
H     2.22837  -3.35788   0.77549
H     2.98606  -2.19191  -0.32175
H    -0.67803  -2.63495  -0.48031
H    -0.01873  -2.94652   2.49433
H    -1.48835  -3.54132   1.67447
H     0.10064  -4.18769   1.21343
