29
Generated by autodE on: 2022-06-25. E = -596.535449 Ha
C    -3.42291  -1.96627   0.52883
C    -2.43035  -1.07330  -0.11360
N    -1.30860  -0.72041   0.44265
C    -0.95145  -1.26998   1.76302
C    -0.51123   0.33991  -0.09700
C    -1.21312   1.50038  -0.51227
C    -0.44081   2.68033  -1.08381
O    -2.47044   1.62517  -0.44657
C     0.93444   0.09450  -0.10906
C     1.42078  -1.20961  -0.37269
C     2.78612  -1.49481  -0.37590
C     3.72285  -0.48560  -0.12702
C     3.26474   0.80769   0.14698
C     1.89830   1.09132   0.17089
H    -3.00038  -2.97558   0.67959
H    -3.71404  -1.59287   1.52504
H    -4.31772  -2.05311  -0.09957
H    -2.61483  -0.67859  -1.11196
H    -0.96594  -2.36722   1.73897
H     0.04602  -0.92026   2.04039
H    -1.67939  -0.91596   2.50778
H    -1.10095   3.19600  -1.79651
H    -0.18472   3.40099  -0.28944
H     0.48869   2.39303  -1.59243
H     0.70977  -2.01076  -0.58754
H     3.12166  -2.51389  -0.58594
H     4.79285  -0.70572  -0.13571
H     3.97952   1.60505   0.36737
H     1.57455   2.09565   0.44151
