26
Generated by autodE on: 2022-06-25. E = -689.460049 Ha
C     2.26327  -2.17409  -0.89418
O     1.91048  -0.80844  -1.14293
C     0.78321  -0.34713  -0.52706
C     0.81607   0.56735   0.48338
O     1.87231   1.12152   1.07944
C     3.20374   0.62718   0.90080
C    -0.46967   1.14255   1.01714
O    -0.41659   2.05156   1.85828
C    -1.76647   0.59635   0.53570
C    -3.02001   1.13436   1.15338
C    -1.78924  -0.33457  -0.44986
C    -3.07121  -0.89037  -0.98512
C    -0.51320  -0.83623  -1.04630
O    -0.52988  -1.64477  -1.97940
H     3.18393  -2.36636  -1.46081
H     2.45544  -2.33515   0.17964
H     1.47493  -2.86105  -1.23327
H     3.81714   1.17968   1.62391
H     3.56559   0.81869  -0.11753
H     3.25506  -0.44825   1.12348
H    -3.68470   1.56048   0.38434
H    -2.79648   1.90986   1.89541
H    -3.58607   0.32658   1.64639
H    -2.88587  -1.63594  -1.76700
H    -3.69811  -0.08589  -1.40471
H    -3.65994  -1.35732  -0.17840
