55
Generated by autodE on: 2022-06-25. E = -1285.993173 Ha. Imaginary frequency = -439.3 cm-1
C    -1.47886  -1.02036   3.61229
O    -0.82254  -1.50653   2.44236
C    -1.08691  -0.79576   1.28191
C    -2.46072  -0.99038   0.71068
O    -3.14317  -1.94616   1.07119
C    -2.93585  -0.02589  -0.30737
C    -4.14300  -0.39890  -1.11414
C    -2.30879   1.17218  -0.45063
C    -2.80640   2.18747  -1.43124
C    -1.07926   1.52612   0.32865
O    -0.60089   2.68092   0.24957
C    -0.51643   0.50781   1.17407
O     0.55004   0.74717   1.98358
C     0.58944   1.93747   2.77777
C     1.18192  -0.28246  -0.91771
C     0.24605   0.10039  -1.99619
C     0.48320   1.43498  -2.66128
O    -0.68052  -0.61924  -2.39550
C     2.47817   0.45441  -0.86452
C     2.56516   1.72503  -0.27849
C     3.78227   2.41151  -0.26596
C     4.92025   1.84228  -0.84424
C     4.83677   0.58031  -1.44264
C     3.62351  -0.10933  -1.45432
N     1.05896  -1.43617  -0.20512
C     2.10673  -1.84828   0.74782
C    -0.17234  -2.04352  -0.05515
C    -0.26601  -3.42551   0.51143
H    -1.18085   0.01387   3.84599
H    -1.17431  -1.67717   4.43850
H    -2.57422  -1.06516   3.50242
H    -4.96052   0.32850  -0.97938
H    -4.51315  -1.39232  -0.83237
H    -3.89640  -0.40486  -2.18883
H    -3.87831   2.39285  -1.28100
H    -2.24681   3.12554  -1.34544
H    -2.70044   1.80449  -2.46047
H     0.99658   2.78909   2.21672
H     1.24428   1.71242   3.63100
H    -0.41403   2.19424   3.15009
H     1.50015   1.50996  -3.07205
H     0.36162   2.25404  -1.93451
H    -0.25123   1.55486  -3.46775
H     1.67450   2.17983   0.15155
H     3.83827   3.39974   0.19659
H     5.86986   2.38246  -0.83484
H     5.71932   0.13155  -1.90445
H     3.55826  -1.09446  -1.92176
H     1.66954  -1.91875   1.74988
H     2.50796  -2.82757   0.45370
H     2.91591  -1.11829   0.76723
H    -0.81208  -1.85943  -0.91300
H     0.25223  -3.55539   1.46767
H     0.15309  -4.14252  -0.21610
H    -1.32533  -3.67626   0.65452
