11
Generated by autodE on: 2022-05-26. E = -285.486737 Ha
C     1.10522  -1.85618   0.86531
C     0.55623  -0.80943   0.59507
C    -0.08356   0.48590   0.37263
O    -0.13026   1.31699   1.28786
N    -0.59841   0.70643  -0.85155
C    -0.60184  -0.19176  -1.99007
H     1.59321  -2.78851   1.10064
H    -1.03930   1.61754  -0.96316
H    -0.11612   0.28138  -2.85715
H    -1.63059  -0.46394  -2.27356
H    -0.05462  -1.10965  -1.74443
