23
Generated by autodE on: 2022-10-13. E = -463.635867 Ha
C    -2.04640   1.73864  -2.99534
C    -1.24536   1.32648  -1.81669
O    -0.99182   0.05475  -1.69172
C    -0.41602  -0.76791  -0.81808
C    -0.55716  -2.20513  -1.21972
C     0.26110  -0.35222   0.37576
C     0.62848   0.98703   0.69406
C     1.32213   1.28821   1.86753
C     1.67324   0.28895   2.77894
C     1.33238  -1.03950   2.48230
C     0.65174  -1.35681   1.31356
H    -3.10509   1.93930  -2.73259
H    -1.65260   2.67091  -3.43541
H    -2.03472   0.95260  -3.76558
H    -1.00834   2.01182  -1.00556
H     0.41171  -2.73397  -1.23251
H    -1.21877  -2.77353  -0.53962
H    -0.99150  -2.26211  -2.22755
H     0.42242   1.80207   0.00717
H     1.59342   2.32841   2.06699
H     2.20525   0.53548   3.70039
H     1.60231  -1.84024   3.17607
H     0.40443  -2.40030   1.11695
