36
Generated by autodE on: 2022-10-06. E = -708.930241 Ha. Imaginary frequency = -373.0 cm-1
C    -1.48983  -0.14617   2.23733
N    -1.66534  -1.06669   1.12601
C    -1.78678  -0.60658  -0.16666
N    -2.36377  -1.47291  -1.08465
N    -2.04750   0.72345  -0.38139
C    -0.44746   1.49842  -1.87450
C    -1.10817   2.04684  -3.07571
O     0.03545   0.30412  -1.94968
C     0.35447  -0.55829  -0.91487
C     0.57984  -1.94128  -1.46115
C     1.16275  -0.11788   0.22239
C     1.65030   1.19429   0.42424
C     2.35661   1.53197   1.57925
C     2.60151   0.58061   2.57457
C     2.16854  -0.73386   2.37184
C     1.47789  -1.08275   1.21330
H    -1.30747  -0.73502   3.14463
H    -0.64399   0.54974   2.11291
H    -2.40744   0.44292   2.39460
H    -1.11903  -1.92263   1.19558
H    -2.13392  -2.44887  -0.90938
H    -2.15385  -1.22822  -2.05159
H    -2.85193   0.94483  -0.96459
H    -1.91515   1.36013   0.39923
H    -0.17023   2.15403  -1.05274
H    -1.98486   2.64207  -2.77243
H    -0.42716   2.73447  -3.60940
H    -1.41871   1.24275  -3.75707
H     1.65004  -2.16551  -1.61440
H     0.18158  -2.70531  -0.77467
H     0.05982  -2.05633  -2.42129
H     1.51479   1.96656  -0.32991
H     2.72106   2.55540   1.69868
H     3.13993   0.85482   3.48444
H     2.37459  -1.50063   3.12282
H     1.16702  -2.11903   1.08017
