69
Generated by autodE on: 2022-10-24. E = -1798.087081 Ha
C   -25.76375  -8.63852  -2.42908
O   -26.09097  -7.42312  -1.72928
C   -25.34315  -7.11575  -0.68770
O   -24.35825  -7.71493  -0.32228
C   -25.78872  -5.80909   0.01936
C   -27.03443  -5.25726  -0.55296
N   -27.98478  -4.76387  -0.99588
O   -24.75650  -4.86035  -0.19519
C   -24.18197  -4.45834   1.04341
C   -22.73357  -4.73600   0.92648
N   -21.62122  -4.99479   0.73545
C   -24.40326  -2.92148   1.12365
O   -23.52602  -2.10544   0.97390
O   -25.69156  -2.66526   1.26160
C   -26.09393  -1.28363   1.25579
C   -24.91452  -5.26260   2.13222
C   -25.86499  -6.00091   1.53347
C   -27.00016  -6.91625   2.02928
O   -27.28065  -7.66911   0.85716
C   -28.40945  -8.53068   0.82774
O   -26.64300  -7.76649   3.08428
C   -25.76864  -8.84764   2.76469
C   -28.23625  -6.10763   2.46129
C   -28.22228  -5.45013   3.83881
C   -27.06095  -4.49248   4.11183
C   -25.76501  -5.21345   4.54169
C   -24.51572  -5.13171   3.60741
C   -23.56177  -6.28203   4.00525
C   -23.19628  -6.41300   5.35696
C   -22.32262  -7.41748   5.77248
C   -21.78236  -8.31228   4.84121
C   -22.12861  -8.18465   3.49624
C   -23.01062  -7.17870   3.08407
C   -23.77372  -3.78690   3.83433
C   -22.37443  -3.70865   3.73102
C   -21.70259  -2.49411   3.88522
C   -22.41405  -1.32639   4.16750
C   -23.80216  -1.39294   4.30826
C   -24.47206  -2.60749   4.14545
H   -24.74311  -8.58051  -2.83170
H   -26.49416  -8.72151  -3.24101
H   -25.84791  -9.49466  -1.74505
H   -25.83490  -0.82287   0.29245
H   -25.59752  -0.74564   2.07452
H   -27.17934  -1.29034   1.40098
H   -28.55996  -9.03628   1.79354
H   -29.32582  -7.98507   0.55151
H   -28.19969  -9.28604   0.05736
H   -26.33396  -9.70705   2.36954
H   -25.00699  -8.56042   2.02958
H   -25.27344  -9.14131   3.69922
H   -29.09133  -6.79692   2.42509
H   -28.41369  -5.34571   1.68882
H   -28.24743  -6.22644   4.62081
H   -29.17197  -4.89782   3.92616
H   -26.90205  -3.86115   3.22530
H   -27.36255  -3.80835   4.91946
H   -25.44475  -4.83260   5.51940
H   -25.98731  -6.27535   4.68551
H   -23.58715  -5.71221   6.09576
H   -22.05818  -7.49892   6.82959
H   -21.09621  -9.09861   5.16439
H   -21.71698  -8.87222   2.75355
H   -23.27076  -7.12063   2.02946
H   -21.79468  -4.60661   3.52679
H   -20.61501  -2.46616   3.78619
H   -21.89098  -0.37491   4.28767
H   -24.37515  -0.49303   4.54331
H   -25.55384  -2.61502   4.24754
