48
Generated by autodE on: 2022-10-24. E = -1003.619079 Ha
C    -3.72241   1.77194   0.37561
O    -3.82941   0.73804   1.33815
C    -2.63158   0.07567   1.70544
O    -3.01386  -1.13573   2.30406
C    -3.62502  -2.08480   1.44033
C    -1.69143  -0.14353   0.57976
C    -0.58993  -0.22442   0.07888
C     0.86108  -0.14113  -0.11178
C     1.18137   1.15085  -0.88816
C     0.47890   1.41221  -2.07570
C     0.75808   2.54526  -2.84020
C     1.74973   3.44293  -2.42757
C     2.45375   3.19160  -1.24860
C     2.17225   2.05321  -0.48309
C     1.44697  -1.34181  -0.86712
C     2.80968  -1.34656  -1.20296
C     3.37820  -2.44270  -1.85427
C     2.59072  -3.55123  -2.18614
C     1.23270  -3.55176  -1.85925
C     0.66545  -2.45379  -1.20288
C     1.41115  -0.14869   1.35531
C     0.75788   0.84041   2.34394
C    -0.47072   0.35066   3.16131
C    -1.86449   0.88026   2.77439
H    -3.03495   2.57343   0.69765
H    -3.37782   1.38690  -0.60012
H    -4.72792   2.19863   0.25515
H    -3.87887  -2.95814   2.05603
H    -2.93402  -2.39915   0.63834
H    -4.54311  -1.68346   0.98296
H    -0.29451   0.71396  -2.40509
H     0.19978   2.72920  -3.76134
H     1.97007   4.33248  -3.02236
H     3.22972   3.88465  -0.91463
H     2.73877   1.87998   0.43155
H     3.43034  -0.48201  -0.95840
H     4.44104  -2.42973  -2.10772
H     3.03441  -4.40764  -2.69935
H     0.60658  -4.40981  -2.11592
H    -0.39671  -2.46298  -0.94966
H     2.49494   0.02922   1.30450
H     1.28999  -1.17500   1.73462
H     1.54298   1.10950   3.06756
H     0.50737   1.77987   1.82458
H    -0.30857   0.65828   4.20584
H    -0.49686  -0.75150   3.18183
H    -2.52443   0.88497   3.65656
H    -1.78590   1.91979   2.42068
