69
Generated by autodE on: 2022-10-24. E = -1797.957324 Ha. Imaginary frequency = -143.5 cm-1
C   -25.78161  -8.71766  -2.06681
O   -26.22269  -7.38551  -1.75527
C   -25.43995  -6.66771  -0.96063
O   -24.32073  -6.98026  -0.61251
C   -26.12207  -5.41416  -0.55213
C   -27.47208  -5.15871  -0.93520
N   -28.56679  -4.91206  -1.24261
O   -25.51007  -4.33626  -0.14413
C   -24.39762  -4.00979   0.45267
C   -23.15145  -4.68364   0.35390
N   -22.06162  -5.09247   0.33400
C   -24.36439  -2.58268   0.88472
O   -23.33115  -1.95921   1.00841
O   -25.58572  -2.09927   1.07859
C   -25.68205  -0.69871   1.38998
C   -25.25544  -5.61269   2.50213
C   -26.13722  -6.20449   1.88498
C   -27.35928  -7.06139   1.94596
O   -27.72728  -7.39651   0.63270
C   -28.92580  -8.12882   0.43629
O   -27.06979  -8.22707   2.69118
C   -26.14453  -9.12441   2.08728
C   -28.45254  -6.29521   2.70519
C   -28.18694  -5.97308   4.18277
C   -27.08549  -4.95215   4.54533
C   -25.68139  -5.53057   4.84929
C   -24.54156  -5.33677   3.77127
C   -23.47540  -6.42417   4.00850
C   -22.90945  -6.55513   5.28730
C   -21.93470  -7.52084   5.54193
C   -21.50009  -8.37138   4.51870
C   -22.04924  -8.24080   3.24201
C   -23.03017  -7.27447   2.99014
C   -23.87581  -3.94788   3.87217
C   -22.51028  -3.79650   3.58048
C   -21.86951  -2.56606   3.73799
C   -22.58266  -1.45318   4.18869
C   -23.94458  -1.58534   4.46924
C   -24.58434  -2.81839   4.31105
H   -26.56947  -9.15426  -2.68995
H   -25.66087  -9.29457  -1.13848
H   -24.82972  -8.68780  -2.61486
H   -25.25009  -0.09992   0.57564
H   -25.15689  -0.48232   2.32953
H   -26.75256  -0.48975   1.49266
H   -29.05211  -8.91464   1.19755
H   -28.84173  -8.60183  -0.55245
H   -29.80967  -7.46992   0.44022
H   -26.60295  -9.67771   1.25191
H   -25.83890  -9.83568   2.86633
H   -25.25205  -8.59627   1.71666
H   -29.36605  -6.90693   2.65701
H   -28.64944  -5.37270   2.13635
H   -28.00920  -6.91351   4.72916
H   -29.14056  -5.58024   4.57032
H   -27.03861  -4.18108   3.76204
H   -27.41945  -4.43098   5.45561
H   -25.77755  -6.61528   4.99916
H   -25.30272  -5.11608   5.79392
H   -23.22310  -5.88775   6.09177
H   -21.50967  -7.60762   6.54489
H   -20.73604  -9.12676   4.71684
H   -21.71534  -8.89143   2.43011
H   -23.44142  -7.17998   1.98573
H   -21.93343  -4.65177   3.23129
H   -20.80589  -2.47992   3.50343
H   -22.08276  -0.49050   4.31844
H   -24.51850  -0.72557   4.82275
H   -25.64402  -2.88661   4.54811
