54
Generated by autodE on: 2022-06-26. E = -1410.495093 Ha
C     2.96642   0.24954  -3.59688
O     2.39207   0.24772  -2.28023
C     1.09564  -0.03107  -2.18837
O     0.40375  -0.29992  -3.14799
C     0.57183   0.10529  -0.73510
C     1.62034  -0.35706   0.27637
C     1.96855   0.44496   1.36878
C     2.86717  -0.01734   2.33513
C     3.43208  -1.28973   2.21830
C     3.10756  -2.08858   1.11644
C     2.21423  -1.62253   0.15089
C    -0.80177  -0.65767  -0.61634
C    -1.64144   0.21711   0.32540
C    -1.34203  -0.01970   1.81417
C    -1.08896  -1.47651   2.10702
C    -1.05542  -1.99170   3.48164
N    -1.24665  -1.08532   4.47498
O    -0.85748  -3.19320   3.75854
C    -0.83150  -2.35902   1.09838
N    -0.75320  -2.03711  -0.21481
C    -0.59333  -3.04605  -1.24670
C    -1.23064   1.63770  -0.16590
C    -1.37789   2.65152   0.90060
N    -1.43897   3.45428   1.73532
C    -2.13103   2.03267  -1.36476
O    -1.81977   1.83215  -2.51571
O    -3.27671   2.56763  -0.96574
C    -4.22679   2.92212  -1.98803
N     0.15873   1.49079  -0.51881
C     0.89660   2.60782  -1.06875
H     2.85921  -0.74156  -4.05969
H     4.02554   0.49611  -3.46251
H     2.47325   1.00506  -4.22494
H     1.52211   1.43493   1.46562
H     3.12318   0.62107   3.18412
H     4.12881  -1.65533   2.97636
H     3.55260  -3.08045   1.00748
H     1.98354  -2.25318  -0.70905
H    -1.24797  -0.61626  -1.61614
H    -2.70792   0.04306   0.13520
H    -2.20360   0.34906   2.39327
H    -0.47969   0.58624   2.13378
H    -1.20415  -1.40593   5.43582
H    -1.37225  -0.09659   4.30049
H    -0.67838  -3.41335   1.33544
H    -0.46749  -4.02968  -0.77670
H    -1.47622  -3.07967  -1.90732
H     0.28843  -2.84323  -1.87391
H    -3.78852   3.66471  -2.66923
H    -4.52192   2.02721  -2.55362
H    -5.08950   3.34562  -1.46232
H     0.58251   3.53446  -0.56501
H     1.97066   2.47654  -0.87863
H     0.74629   2.74248  -2.15606
