34
Generated by autodE on: 2022-07-27. E = -952.728040 Ha
C    -3.93642   1.38470  -1.80886
O    -2.89339   1.85299  -0.94697
C    -1.93531   0.96429  -0.62019
O    -1.93947  -0.19121  -1.03406
C    -0.95950   1.53537   0.28388
C    -1.15180   2.83965   0.77724
N    -1.32395   3.92815   1.16960
N     0.07121   0.75628   0.80765
C     0.49598   1.09786   2.18378
C     0.62913  -0.26415   0.16597
C     0.59877  -0.37383  -1.33093
O     0.66433  -1.44007  -1.90625
O     0.61753   0.80585  -1.94414
C     0.52467   0.78822  -3.37647
C     1.31810  -1.34829   0.87958
C     0.73028  -1.94731   2.01130
C     1.37377  -2.99528   2.66728
C     2.61120  -3.45815   2.20786
C     3.19883  -2.87490   1.07983
C     2.55567  -1.83400   0.41276
H    -3.52068   1.02763  -2.76266
H    -4.50251   0.57168  -1.33113
H    -4.59169   2.24633  -1.98266
H    -0.29525   0.83432   2.89623
H     1.42695   0.58177   2.42591
H     0.66776   2.18075   2.21904
H     1.39546   0.27841  -3.81249
H    -0.39772   0.27608  -3.68537
H     0.50114   1.83830  -3.68828
H    -0.24401  -1.60459   2.36290
H     0.90289  -3.45772   3.53742
H     3.11483  -4.27806   2.72483
H     4.16437  -3.23391   0.71720
H     3.02111  -1.38270  -0.46497
