34
Generated by autodE on: 2022-06-26. E = -952.728864 Ha
C     4.06955   1.76384   1.24249
O     3.37663   1.38716   0.04755
C     2.17228   0.80289   0.20587
O     1.67585   0.60756   1.31212
C     1.58759   0.42352  -1.06118
C     2.32273   0.60163  -2.24802
N     2.94392   0.76517  -3.22584
N     0.38555  -0.28784  -1.10621
C     0.26424  -1.28269  -2.19304
C    -0.58442  -0.13302  -0.21785
C    -0.69286   1.16510   0.53478
O    -0.44300   2.25009   0.05233
O    -1.19506   0.98204   1.74930
C    -1.38487   2.15921   2.54975
C    -1.62095  -1.15019   0.00141
C    -2.97405  -0.76916   0.09781
C    -3.95978  -1.72890   0.31847
C    -3.61014  -3.07597   0.46534
C    -2.26734  -3.46014   0.39063
C    -1.27689  -2.50709   0.15792
H     4.99385   2.25257   0.91247
H     4.30871   0.87887   1.85056
H     3.46452   2.46239   1.83900
H     0.92388  -2.13641  -1.99404
H    -0.77406  -1.60689  -2.28852
H     0.57545  -0.79677  -3.12593
H    -0.42114   2.66396   2.70792
H    -1.79539   1.81020   3.50363
H    -2.08735   2.84733   2.05872
H    -3.25382   0.27976  -0.01784
H    -5.00689  -1.42435   0.37716
H    -4.38443  -3.82535   0.64435
H    -1.98812  -4.50800   0.52024
H    -0.22948  -2.80997   0.11945
