54
Generated by autodE on: 2022-06-26. E = -1410.417647 Ha. Imaginary frequency = -376.2 cm-1
C     1.32936   1.14078  -4.37259
O     1.31385   1.18745  -2.94092
C     0.93779   0.06600  -2.31017
O     0.77238  -0.99313  -2.88848
C     0.92507   0.24821  -0.82189
C     1.95584  -0.52607  -0.10409
C     1.87519  -0.67545   1.29710
C     2.78727  -1.46941   1.99022
C     3.80233  -2.14051   1.30228
C     3.90351  -1.99696  -0.08635
C     2.99472  -1.20094  -0.78066
C    -1.06628  -0.91173  -0.30613
C    -1.82149   0.11055   0.30289
C    -1.78158   0.26778   1.80909
C    -1.49745  -1.05481   2.48803
C    -1.75287  -1.27622   3.92058
N    -2.26673  -0.22886   4.61256
O    -1.51103  -2.35665   4.49475
C    -0.88203  -2.04916   1.79213
N    -0.59502  -1.97785   0.46110
C     0.04182  -3.10693  -0.20458
C    -0.74861   1.95149  -0.44906
C    -1.13226   3.00144   0.43967
N    -1.46311   3.80933   1.21113
C    -1.55722   1.85777  -1.68678
O    -1.36228   1.10824  -2.62533
O    -2.62953   2.65993  -1.61305
C    -3.58529   2.55605  -2.67800
N     0.55267   1.48706  -0.31493
C     1.42960   2.21888   0.62166
H     2.06211   0.40269  -4.72991
H     1.61352   2.14605  -4.70535
H     0.33221   0.88171  -4.75601
H     1.08231  -0.17635   1.84975
H     2.69363  -1.57380   3.07354
H     4.51224  -2.77011   1.84358
H     4.69890  -2.50805  -0.63358
H     3.09595  -1.10788  -1.86224
H    -1.24689  -1.15966  -1.35078
H    -2.73255   0.42378  -0.20580
H    -2.73530   0.70118   2.14588
H    -1.00461   1.00044   2.10020
H    -2.43872  -0.34269   5.60548
H    -2.43442   0.67668   4.19356
H    -0.59474  -2.97715   2.28822
H     0.83288  -3.52173   0.43454
H    -0.69040  -3.90172  -0.42869
H     0.48896  -2.76649  -1.14419
H    -3.12359   2.82959  -3.63744
H    -3.98113   1.53212  -2.73902
H    -4.38790   3.25958  -2.42920
H     1.12474   2.10584   1.66979
H     2.45397   1.85571   0.50162
H     1.41011   3.28412   0.35628
