17
Generated by autodE on: 2022-10-20. E = -2995.673360 Ha
C     2.54917  -0.75711  -0.99726
O     1.29602  -1.14482  -1.56668
C     0.17365  -0.62304  -1.07006
C    -0.17823   0.22595  -0.08490
Br    0.77693   1.10766   1.27794
C    -1.72725   0.19119  -0.08563
C    -2.16616  -1.20996   0.40346
C    -1.81199  -2.04043  -0.58170
C    -1.17284  -1.12464  -1.65001
O    -1.97212   0.06017  -1.49836
H     3.32217  -1.28280  -1.57150
H     2.69914   0.32934  -1.08752
H     2.60882  -1.05553   0.05984
H    -2.22991   1.06302   0.34716
H    -2.60836  -1.42635   1.37545
H    -1.87861  -3.12587  -0.64353
H    -1.13191  -1.48544  -2.68363
