59
Generated by autodE on: 2022-06-29. E = -1454.853549 Ha
C    -0.21695  -3.93822   2.12891
N    -0.73608  -2.65740   1.69405
C    -0.90078  -2.35291   0.40283
O    -0.75261  -3.15317  -0.52738
C    -1.23198  -0.87287   0.10850
C    -2.11752  -0.90419  -1.16234
O    -3.32257  -1.04845  -1.12201
O    -1.43869  -0.78126  -2.29890
C    -2.20616  -0.77619  -3.51233
C     0.09207  -0.08251  -0.11057
C     1.34683  -0.62739   0.64322
O     1.13738  -0.15565   1.97937
C     1.07503   1.23481   1.63471
C     2.33667   1.42382   0.79418
C     2.98689   2.75265   0.63428
C     2.51750   0.23451   0.17191
C     3.44405  -0.19334  -0.87485
C     4.71960   0.38832  -1.03229
C     5.57616  -0.03293  -2.05027
C     5.18476  -1.04664  -2.93190
C     3.92938  -1.64387  -2.77856
C     3.07023  -1.22845  -1.75996
C    -0.10588   1.27988   0.61654
C    -1.53570   1.24128   1.20141
C    -1.67454   1.89225   2.57320
C    -2.48260   1.88631   0.16407
O    -2.24544   1.93824  -1.02967
O    -3.64442   2.27949   0.68354
C    -4.65940   2.69871  -0.24384
N    -1.85405  -0.20046   1.23847
C    -3.16060  -0.61592   1.73029
H    -0.70015  -4.74996   1.56796
H    -0.42588  -4.06943   3.19829
H     0.87271  -4.00978   1.96896
H    -0.76919  -1.87344   2.34175
H    -2.76844  -1.71502  -3.61540
H    -2.90314   0.07404  -3.51237
H    -1.48064  -0.67424  -4.32728
H     0.30233   0.01187  -1.17645
H     1.50524  -1.70968   0.62307
H     0.98023   1.86831   2.52209
H     3.58574   2.82230  -0.28425
H     2.21907   3.54432   0.61108
H     3.64672   2.98134   1.48986
H     5.05215   1.15812  -0.33503
H     6.56168   0.42846  -2.15079
H     5.85773  -1.37506  -3.72737
H     3.61579  -2.44171  -3.45620
H     2.09334  -1.70595  -1.65802
H     0.00369   2.14107  -0.04974
H    -1.07688   1.34090   3.31137
H    -2.71760   1.90527   2.91132
H    -1.31875   2.93236   2.53265
H    -4.31838   3.57185  -0.81762
H    -5.53388   2.95894   0.36314
H    -4.90085   1.87616  -0.93216
H    -3.23929  -1.70864   1.67687
H    -3.26233  -0.32772   2.78721
H    -4.01157  -0.19270   1.17255
