33
Generated by autodE on: 2022-06-29. E = -876.742730 Ha
C    -1.74424  -2.49456   2.30292
N    -1.71855  -1.33569   1.43992
C    -0.70188  -1.11347   0.57714
O     0.28532  -1.88674   0.53644
C    -0.81546   0.04639  -0.30722
C    -1.87836   0.99756  -0.23525
O    -2.89829   0.90189   0.46397
O    -1.67204   2.10191  -1.00276
C    -2.72887   3.06058  -1.04351
N     0.19562   0.20757  -1.28186
C    -0.21803   0.36610  -2.69289
C     1.46729   0.01284  -1.02765
C     2.46602  -0.13225  -2.12379
C     1.95293   0.03396   0.39624
O     1.52855   0.78217   1.25211
O     2.98941  -0.78146   0.56252
C     3.54053  -0.85440   1.88616
H    -2.54993  -2.37315   3.03858
H    -0.79028  -2.60548   2.84099
H    -1.92241  -3.43174   1.74649
H    -2.51745  -0.70569   1.37480
H    -3.65879   2.61059  -1.42317
H    -2.39329   3.85202  -1.72512
H    -2.91738   3.48388  -0.04554
H     0.08174  -0.53109  -3.25194
H     0.26314   1.24776  -3.13417
H    -1.30283   0.46851  -2.73579
H     2.46533   0.75710  -2.77434
H     3.47117  -0.26984  -1.71487
H     2.21896  -0.99867  -2.76010
H     4.37083  -1.56692   1.82756
H     2.77614  -1.21460   2.58977
H     3.90394   0.13192   2.20735
