32
Generated by autodE on: 2022-06-17. E = -690.041372 Ha
C    -2.90496  -1.36476   1.88173
C    -1.87110  -0.87707   0.93035
N    -0.61203  -0.94503   1.17467
N     0.08967  -0.42923   0.10335
C     1.45999  -0.22396   0.18670
C     2.20009  -0.68970   1.29511
C     3.57882  -0.49321   1.35011
C     4.25806   0.16570   0.31771
C     3.52630   0.62531  -0.78115
C     2.14488   0.43653  -0.85690
C    -0.79021   0.26447  -0.83491
C    -0.69887   1.76907  -0.64757
O    -0.87233   2.56224  -1.54707
C    -2.19568  -0.31150  -0.45011
C    -2.56078  -1.46844  -1.39627
C    -3.31916   0.72853  -0.42860
H    -3.55855  -2.11138   1.40106
H    -2.43615  -1.81652   2.76642
H    -3.55474  -0.53572   2.20850
H     1.67861  -1.20043   2.10290
H     4.13092  -0.86082   2.21917
H     5.33815   0.31735   0.36985
H     4.03386   1.14054  -1.60068
H     1.60577   0.79874  -1.73256
H    -0.55074   0.03780  -1.88315
H    -0.46884   2.10661   0.39177
H    -1.74869  -2.20921  -1.44875
H    -2.74496  -1.08106  -2.41049
H    -3.47349  -1.97663  -1.05036
H    -4.27544   0.24215  -0.18568
H    -3.42122   1.20475  -1.41527
H    -3.14029   1.51726   0.31775
