18
Generated by autodE on: 2022-06-17. E = -419.279557 Ha
C     4.08710  -0.95913  -0.09863
C     2.84309  -0.22983   0.05963
N     1.84799   0.35982   0.20203
N     0.82617   1.09959   0.38907
C    -0.40915   0.50277   0.13907
C    -1.55971   1.29713   0.34105
C    -2.83229   0.77808   0.11501
C    -2.99991  -0.54469  -0.31827
C    -1.86543  -1.33761  -0.52126
C    -0.58380  -0.82916  -0.29809
H     3.86163  -1.99497  -0.39744
H     4.71440  -0.49855  -0.87834
H     4.64715  -0.98278   0.84970
H    -1.42758   2.32759   0.67890
H    -3.70653   1.41381   0.27926
H    -3.99910  -0.94896  -0.49432
H    -1.97588  -2.37159  -0.85959
H     0.28738  -1.46686  -0.46341
