32
Generated by autodE on: 2022-06-17. E = -689.960377 Ha. Imaginary frequency = -310.0 cm-1
C    -2.61692  -2.01987   1.54723
C    -1.64133  -1.34930   0.66567
N    -0.45693  -1.47483   0.42917
N     0.51525  -1.26644  -0.34298
C     1.57184  -0.48371   0.14939
C     1.52081   0.21262   1.37077
C     2.60005   1.00513   1.76264
C     3.72977   1.12121   0.94521
C     3.77578   0.43508  -0.27551
C     2.70666  -0.36471  -0.67242
C    -1.38498   0.20874  -1.61332
C    -0.28793   1.13135  -1.61920
O    -0.04264   2.04005  -0.81048
C    -2.42050   0.10642  -0.67209
C    -3.66679  -0.63848  -1.11209
C    -2.66511   1.20079   0.34670
H    -3.17995  -2.76743   0.96618
H    -2.09818  -2.53078   2.37127
H    -3.33555  -1.29690   1.95637
H     0.63865   0.12623   2.00805
H     2.55657   1.54043   2.71417
H     4.57079   1.74460   1.25660
H     4.65339   0.52297  -0.92016
H     2.72533  -0.90220  -1.62243
H    -1.39398  -0.49383  -2.45147
H     0.40268   0.98459  -2.48479
H    -3.42445  -1.51701  -1.72788
H    -4.28655   0.04249  -1.72134
H    -4.28553  -0.95592  -0.26171
H    -3.12738   2.06750  -0.15871
H    -3.36639   0.86428   1.12423
H    -1.73657   1.54627   0.81238
