13
Generated by autodE on: 2022-10-22. E = -228.670320 Ha
C     0.12398   1.44175   0.00289
N    -0.31127   0.19932   0.17159
C    -1.60647   0.00503   0.85020
N     0.25234  -0.92976  -0.17951
C     1.51395  -0.73482  -0.83254
H    -0.49478   2.25628   0.36908
H     1.07423   1.62873  -0.48751
H    -2.26933  -0.55660   0.18012
H    -2.05170   0.97352   1.09980
H    -1.43797  -0.58197   1.76199
H     1.93044  -1.71577  -1.09927
H     1.43495  -0.13047  -1.76351
H     2.25821  -0.20699  -0.19559
