23
Generated by autodE on: 2022-06-04. E = -684.168661 Ha
C     4.93150  -1.00554   0.55090
O     3.83972  -0.20210   0.05879
C     2.70619  -0.83810  -0.19801
O     2.50005  -2.02952  -0.08249
C     1.68835   0.05608  -0.74764
N     0.70610   0.61215  -0.34002
C    -0.45148   1.11130  -0.02502
C    -0.50233   2.49194   0.32505
N    -0.56535   3.61828   0.61528
C    -1.66293   0.27291  -0.03656
C    -2.92851   0.85645   0.15439
C    -4.07632   0.06384   0.13167
C    -3.97899  -1.31493  -0.08115
C    -2.72088  -1.89962  -0.26651
C    -1.56743  -1.11698  -0.24077
H     5.77080  -0.31427   0.68310
H     5.18636  -1.78537  -0.18023
H     4.66091  -1.46772   1.51057
H    -3.01392   1.93318   0.31533
H    -5.05352   0.52905   0.27930
H    -4.87926  -1.93308  -0.09787
H    -2.63524  -2.97690  -0.42560
H    -0.59032  -1.58806  -0.36601
