39
Generated by autodE on: 2022-06-17. E = -765.070037 Ha
C    -4.82823   1.53782  -0.76469
N    -3.40709   1.26892  -0.72666
C    -2.91796   0.05475  -1.07218
O    -3.60459  -0.84173  -1.58104
N    -1.54719  -0.11609  -0.88994
C    -1.03598  -1.48083  -0.69800
C    -0.03222  -1.31652   0.48372
C    -0.02881  -2.54290   1.39765
C     1.36992  -1.10914  -0.05711
C     2.22412  -0.12965   0.29271
C     3.57098  -0.00459  -0.24138
C     4.47534   0.95868   0.05753
C     5.84010   0.95838  -0.57277
C     4.22396   2.08871   1.01630
N    -0.50975  -0.06977   1.14862
C    -1.62525  -0.24257   2.07610
N    -0.91294   0.75591   0.06448
H    -4.99317   2.61652  -0.64334
H    -5.25038   1.22833  -1.73130
H    -5.38277   1.00933   0.03120
H    -2.79567   1.83739  -0.14696
H    -1.86080  -2.15822  -0.43945
H    -0.54136  -1.86905  -1.59927
H    -1.03995  -2.80944   1.73608
H     0.61348  -2.36897   2.27375
H     0.37805  -3.40329   0.84584
H     1.69204  -1.86990  -0.77788
H     1.88343   0.61510   1.01685
H     3.87102  -0.77826  -0.95856
H     6.01717   1.89884  -1.12491
H     6.62817   0.90537   0.19983
H     5.97744   0.11642  -1.26720
H     4.35982   3.05941   0.50753
H     4.96367   2.06705   1.83609
H     3.22048   2.07313   1.46074
H    -2.49084  -0.78262   1.64723
H    -1.96292   0.75226   2.39544
H    -1.28763  -0.78898   2.96585
H    -0.05446   1.08692  -0.37788
