23
Generated by autodE on: 2022-06-17. E = -351.521383 Ha
C     3.18375   1.87801  -0.79844
C     2.40269   0.92444  -0.24485
C     2.98491  -0.14980   0.63793
C     0.96323   0.92203  -0.49810
C     0.07502   0.02335  -0.00378
C    -1.34529   0.06641  -0.28586
C    -2.29460  -0.79111   0.16719
C    -2.02048  -1.96490   1.06402
C    -3.73691  -0.61315  -0.21477
H     4.26325   1.90357  -0.62550
H     2.75813   2.65652  -1.43915
H     4.07220  -0.03056   0.74574
H     2.53250  -0.12658   1.64330
H     2.78547  -1.15339   0.22682
H     0.58951   1.72426  -1.14581
H     0.44066  -0.77900   0.64270
H    -1.67387   0.88594  -0.93651
H    -2.36077  -2.89945   0.58397
H    -2.60008  -1.87401   1.99973
H    -0.96163  -2.08232   1.32795
H    -4.11840  -1.51152  -0.73269
H    -3.88966   0.25725  -0.86961
H    -4.36744  -0.48927   0.68407
