16
Generated by autodE on: 2022-06-17. E = -413.524087 Ha
C     3.06600  -0.25846   0.65578
N     2.44645   0.84501  -0.04048
N     1.19897   0.71971  -0.18331
N     0.44319  -0.26164   0.21637
C    -0.89099  -0.01283  -0.14428
O    -1.25802   1.00425  -0.75673
N    -1.71633  -1.00141   0.25018
C    -3.14230  -1.00320   0.01041
H     2.64171  -0.38383   1.66735
H     4.14198  -0.06427   0.73109
H     2.89897  -1.21237   0.12538
H     0.70309   1.48900  -0.67958
H    -1.29474  -1.78161   0.74387
H    -3.44291  -1.86890  -0.60140
H    -3.41352  -0.08536  -0.52429
H    -3.70536  -1.03871   0.95679
