39
Generated by autodE on: 2022-06-17. E = -765.008115 Ha. Imaginary frequency = -469.8 cm-1
C    -3.50188   0.78834   2.12884
N    -2.10526   1.07509   2.39735
C    -1.03423   0.36417   1.99561
O     0.12401   0.65057   2.33674
N    -1.33710  -0.74213   1.17442
C    -1.98411  -0.17918  -0.54539
C    -1.21732  -0.85574  -1.53199
C    -1.87547  -1.88089  -2.42274
C     0.07732  -0.34368  -1.90802
C     0.82479   0.55485  -1.19866
C     2.16276   0.95432  -1.58388
C     2.98256   1.81979  -0.93418
C     4.34401   2.15117  -1.47841
C     2.62676   2.51498   0.35084
N    -0.42626  -2.38243   0.00807
C     0.81894  -2.94847  -0.45473
N    -0.24644  -1.45467   0.89182
H    -4.10584   1.11733   2.98593
H    -3.64344  -0.29042   1.99444
H    -3.87170   1.30520   1.22882
H    -1.87932   1.91298   2.92487
H    -3.03312  -0.46460  -0.45395
H    -1.80061   0.88722  -0.39709
H    -2.30291  -1.41343  -3.32850
H    -2.69382  -2.39418  -1.89683
H    -1.15760  -2.64434  -2.76336
H     0.54114  -0.80046  -2.79063
H     0.39304   1.03327  -0.31687
H     2.54277   0.49917  -2.50728
H     4.54850   1.63596  -2.42883
H     4.44806   3.23910  -1.64479
H     5.13624   1.87793  -0.75752
H     1.69399   2.15528   0.80299
H     3.43392   2.38210   1.09275
H     2.53666   3.60515   0.19155
H     0.67398  -3.32603  -1.47647
H     1.10417  -3.80756   0.17773
H     1.65441  -2.22401  -0.45331
H     0.66220  -0.94712   0.94082
