25
Generated by autodE on: 2022-06-02. E = -685.404301 Ha
C     3.81483   1.42826   1.23288
N     2.62807   0.75613   0.74719
C     2.67770  -0.51470   0.27996
O     3.74364  -1.15925   0.21567
C     1.42927  -1.11490  -0.15652
C     1.35182  -2.41849  -0.65168
N     1.24521  -3.50765  -1.07291
O     0.30271  -0.35104  -0.06749
C    -0.90568  -0.64903  -0.37629
C    -1.94160   0.32198  -0.21498
C    -1.68564   1.62458   0.27695
C    -2.73105   2.52971   0.40727
C    -4.03739   2.15744   0.05349
C    -4.29877   0.87115  -0.43309
C    -3.26020  -0.04550  -0.56867
H     4.23325   0.93254   2.12507
H     3.55261   2.45973   1.49905
H     4.60378   1.45465   0.46464
H     1.73216   1.22624   0.81044
H    -1.11503  -1.65191  -0.76566
H    -0.66740   1.90888   0.54858
H    -2.53491   3.53512   0.78552
H    -4.85343   2.87593   0.15814
H    -5.31629   0.58565  -0.70748
H    -3.45199  -1.05159  -0.94843
