38
Generated by autodE on: 2022-06-02. E = -1551.797875 Ha. Imaginary frequency = -296.5 cm-1
C    -1.20006   4.23288   0.78095
N    -1.11467   2.81191   1.05795
C    -1.73628   1.89953   0.28915
O    -2.54135   2.20437  -0.60294
C    -1.46307   0.46879   0.59496
C    -2.61618  -0.29394   0.88851
N    -3.61732  -0.86472   1.08166
O    -0.30953  -0.00032   1.11378
C     0.94509   0.20473   0.77892
C     1.62078   1.42290   0.34329
C     1.16036   2.34381  -0.62408
C     1.92255   3.46177  -0.95068
C     3.15968   3.68459  -0.33384
C     3.64569   2.76355   0.59882
C     2.89044   1.63837   0.92464
C     0.57239  -0.66982  -1.55554
C     0.87130  -2.18667  -1.58554
O    -0.20939  -2.64426  -2.44158
C    -1.26144  -2.06945  -1.62903
C    -0.90837  -2.73566  -0.29121
F    -1.78931  -3.08876   0.63065
C     0.42379  -2.80508  -0.25499
Cl    1.46366  -3.30771   1.01607
C    -0.78822  -0.58512  -1.62047
H    -0.38344   4.74605   1.30327
H    -1.10586   4.41820  -0.29887
H    -2.16003   4.65610   1.11922
H    -0.50078   2.49907   1.80237
H     1.57429  -0.53387   1.27925
H     0.22752   2.17487  -1.15812
H     1.55060   4.16192  -1.70150
H     3.74926   4.56687  -0.59290
H     4.61639   2.92059   1.07399
H     3.27160   0.91888   1.65285
H     1.30520   0.08017  -1.83364
H     1.85598  -2.49157  -1.95306
H    -2.26337  -2.26928  -2.02197
H    -1.41354   0.24628  -1.93447
