40
Generated by autodE on: 2022-06-02. E = -3551.596130 Ha
C    -0.57445   4.10349   0.16368
C    -0.73431   2.68115   0.60526
O    -1.03212   2.36316   1.73664
C    -0.42255   1.58646  -0.46122
C    -0.98651   1.93473  -1.86046
C    -0.14685   1.56784  -3.04182
O    -2.08791   2.43983  -1.94736
N     1.03500   1.53937  -0.44061
C     1.38800   0.34362  -0.07702
C     2.80525  -0.03578   0.08067
C     3.29588  -1.25726  -0.41240
C     4.65070  -1.57074  -0.29017
C     5.52589  -0.67645   0.33393
C     5.04471   0.54195   0.82525
C     3.69404   0.86476   0.69391
C     0.21384  -0.52135   0.14690
Br    0.31911  -2.27393   0.84423
C    -0.92012   0.19648  -0.09494
C    -2.32605  -0.22096  -0.08243
C    -2.68401  -1.50781  -0.53631
C    -4.01726  -1.91349  -0.55801
C    -5.02424  -1.04463  -0.12516
C    -4.68601   0.23788   0.31524
C    -3.35362   0.65191   0.32995
H     0.26603   4.21293  -0.53573
H    -0.44309   4.75055   1.04058
H    -1.49127   4.40068  -0.37034
H    -0.74534   1.63222  -3.95947
H     0.27222   0.55744  -2.91794
H     0.70537   2.26359  -3.10397
H     2.62496  -1.95425  -0.91530
H     5.02408  -2.51750  -0.68666
H     6.58421  -0.92787   0.43554
H     5.72513   1.24356   1.31305
H     3.31422   1.81365   1.07566
H    -1.91376  -2.18682  -0.90087
H    -4.27120  -2.91174  -0.92158
H    -6.06892  -1.36366  -0.13872
H    -5.46546   0.92616   0.64965
H    -3.11733   1.65371   0.68042
