14
Generated by autodE on: 2022-06-02. E = -2882.112566 Ha
Br    2.70783  -0.60100   0.53923
C     0.98670  -0.21790   0.19489
C    -0.17934   0.04099  -0.03714
C    -1.55059   0.34479  -0.30955
C    -2.02421   1.66859  -0.19646
C    -3.36199   1.95874  -0.46263
C    -4.24279   0.94042  -0.84327
C    -3.78025  -0.37514  -0.95756
C    -2.44454  -0.67649  -0.69375
H    -1.33498   2.46109   0.10091
H    -3.71982   2.98687  -0.37230
H    -5.28999   1.17203  -1.05070
H    -4.46512  -1.17268  -1.25446
H    -2.08093  -1.70193  -0.78204
