26
Generated by autodE on: 2022-06-02. E = -669.376980 Ha
C    -2.45694   2.02685  -0.67841
C    -2.93061   0.65644  -0.23686
O    -4.14090   0.40554  -0.16114
C    -1.90682  -0.31691   0.08344
N    -0.61030   0.06610  -0.02156
C     0.53722   0.24349  -0.05807
C     1.93590   0.43990  -0.11112
C     2.46925   1.72669  -0.33227
C     3.85178   1.88323  -0.38080
C     4.69594   0.78003  -0.20641
C     4.15993  -0.49402   0.01657
C     2.78106  -0.67758   0.06374
C    -2.06644  -1.69948   0.51291
C    -3.45920  -2.25634   0.66764
O    -1.07526  -2.40673   0.74600
H    -1.84060   2.50011   0.10290
H    -3.32995   2.65856  -0.88675
H    -1.83383   1.95336  -1.58430
H     1.79988   2.57797  -0.46294
H     4.27464   2.87486  -0.55359
H     5.77902   0.91451  -0.24399
H     4.82180  -1.35151   0.15282
H     2.34342  -1.66221   0.23526
H    -4.03073  -1.67979   1.41012
H    -4.01749  -2.18723  -0.27764
H    -3.38128  -3.30518   0.98461
