40
Generated by autodE on: 2022-06-02. E = -3551.478921 Ha. Imaginary frequency = -354.4 cm-1
C    -2.14604   3.24290   0.06047
C    -0.82450   2.52726   0.09331
O    -0.09493   2.58494   1.08567
C    -0.39746   1.75501  -1.09064
C    -1.12099   1.57415  -2.34574
C    -0.42187   0.77686  -3.42118
O    -2.26981   1.99163  -2.50856
N     0.83232   1.23559  -0.98944
C     1.51960   0.42734  -0.43578
C     2.86277   0.08526  -0.06316
C     3.52084  -1.00616  -0.65701
C     4.82189  -1.31161  -0.26237
C     5.45009  -0.55866   0.73612
C     4.78303   0.51421   1.33922
C     3.48923   0.84565   0.94332
C    -0.01673  -0.96210   0.40798
Br    0.92949  -2.33682   1.19989
C    -1.17923  -0.57349   0.19075
C    -2.56918  -0.29146   0.10336
C    -3.30012  -0.56895  -1.07359
C    -4.67001  -0.31761  -1.12205
C    -5.33155   0.21639  -0.01084
C    -4.61444   0.49947   1.15817
C    -3.24550   0.25230   1.22060
H    -2.14295   3.99676  -0.74225
H    -2.30542   3.72839   1.03222
H    -2.97011   2.55336  -0.16121
H    -1.06143   0.73194  -4.31169
H    -0.22213  -0.24564  -3.06058
H     0.54973   1.22563  -3.68018
H     3.01627  -1.59466  -1.42444
H     5.34571  -2.14780  -0.72979
H     6.46584  -0.81104   1.04842
H     5.27552   1.09855   2.11918
H     2.95021   1.67705   1.40074
H    -2.78104  -0.98089  -1.94023
H    -5.22558  -0.53633  -2.03678
H    -6.40487   0.41408  -0.05571
H    -5.12672   0.91997   2.02651
H    -2.67933   0.48236   2.12481
