27
Generated by autodE on: 2022-05-26. E = -3607.689252 Ha
C     3.77318  -0.64697  -1.73037
C     2.69989  -1.08870  -0.77350
O     2.81173  -2.05750  -0.03247
N     1.54339  -0.33458  -0.76546
N     1.36589   0.70971  -1.64640
C     0.17410   1.16139  -1.53052
C    -0.65863   0.46454  -0.49652
Br   -1.30437   1.86157   0.74433
C    -1.79018  -0.42831  -1.05558
C    -2.57121  -1.08159   0.10039
C    -1.55185  -2.09606   0.69525
C    -0.31409  -1.94049  -0.20952
C    -0.96562  -1.62759  -1.57275
C     0.37759  -0.59178   0.07983
Cl    0.84591  -0.37501   1.81421
H     4.05893   0.39861  -1.54531
H     4.64123  -1.30393  -1.59725
H     3.41424  -0.71048  -2.76835
H    -0.17489   1.99464  -2.14260
H    -2.40762   0.10043  -1.79214
H    -2.92480  -0.34734   0.83519
H    -3.45323  -1.59339  -0.30969
H    -1.31951  -1.90098   1.74961
H    -1.92316  -3.12761   0.62056
H     0.39301  -2.77475  -0.17228
H    -1.60946  -2.44808  -1.91908
H    -0.25294  -1.37959  -2.37126
