17
Generated by autodE on: 2022-05-26. E = -3306.076366 Ha
Cl    1.05899  -1.35747  -1.71168
C     0.09298  -1.08168  -0.30785
C     0.01031   0.03479   0.43602
Br    0.92079   1.65911   0.17065
C    -1.16416  -0.13758   1.38633
C    -2.44659  -0.06479   0.49584
C    -2.34715  -1.35763  -0.36520
C    -1.02122  -2.01374   0.13980
C    -1.07534  -1.65813   1.64053
H    -1.16344   0.52618   2.25890
H    -3.34385  -0.07293   1.13205
H    -2.46791   0.85459  -0.10627
H    -3.19382  -2.03369  -0.17562
H    -2.30950  -1.15623  -1.44512
H    -0.88472  -3.06624  -0.13550
H    -0.16735  -1.95125   2.18636
H    -1.96708  -2.06031   2.14465
