27
Generated by autodE on: 2022-05-26. E = -3607.575253 Ha. Imaginary frequency = -385.7 cm-1
C     3.64877  -1.60749  -0.73950
C     2.97461  -0.37795  -1.28343
O     3.51534   0.72767  -1.29971
N     1.68284  -0.61669  -1.71232
N     1.00611   0.41213  -2.07985
C    -0.01241   1.00932  -1.90574
C    -0.91265   0.17092  -0.07477
Br   -1.14669   1.84525   0.82390
C    -2.11822  -0.59513  -0.63068
C    -2.82446  -1.24912   0.59366
C    -1.79642  -2.31771   1.06349
C    -0.61608  -2.14833   0.04707
C    -1.39828  -1.81671  -1.23909
C    -0.02994  -0.79537   0.37393
Cl    1.12956  -0.57459   1.63421
H     3.24647  -2.52643  -1.18528
H     3.46959  -1.64814   0.34815
H     4.73293  -1.53905  -0.90303
H    -0.66546   1.76276  -2.34128
H    -2.76897  -0.01195  -1.29302
H    -3.06058  -0.50780   1.36982
H    -3.76825  -1.71232   0.27165
H    -1.46160  -2.17200   2.10001
H    -2.20219  -3.33626   0.97787
H     0.09884  -2.97792   0.01848
H    -0.75269  -1.57992  -2.09360
H    -2.10058  -2.61607  -1.51556
