29
Generated by autodE on: 2022-07-27. E = -820.107778 Ha
C     3.16956   0.22992   2.52969
N     2.59422   0.44590   1.21850
C     1.35695   0.02535   0.91596
O     0.58866  -0.49696   1.74538
C     0.95329   0.14277  -0.50186
O    -0.28181  -0.18386  -0.84624
C    -1.37988  -0.23755  -0.14979
C    -1.53502   0.55720   1.11777
C    -2.34564  -0.00602   2.24026
O    -1.07966   1.69161   1.11664
C    -2.51536  -0.84848  -0.86282
C    -2.25603  -1.41277  -2.23296
O    -3.61794  -0.89508  -0.32276
C     1.85380   0.28916  -1.64244
C     1.27755   0.10294  -3.02139
O     3.04150   0.59269  -1.47588
H     4.04686   0.87832   2.64617
H     2.43433   0.47501   3.30875
H     3.48360  -0.81785   2.67514
H     3.18371   0.70403   0.42345
H    -3.41131   0.18092   2.03319
H    -2.20532  -1.09172   2.32837
H    -2.06796   0.50344   3.17290
H    -3.20068  -1.78452  -2.64883
H    -1.52467  -2.23443  -2.17559
H    -1.82834  -0.64364  -2.89444
H     2.08811   0.18170  -3.75646
H     0.51897   0.87505  -3.22544
H     0.77943  -0.87433  -3.11058
