14
Generated by autodE on: 2022-05-31. E = -499.075719 Ha
N     2.99545  -1.11240  -0.77788
C     1.95356  -0.73169  -0.41727
C     0.69406  -0.29669   0.02566
C     0.17629   0.94368   0.08315
F     0.71515   2.08986  -0.25859
C    -1.28130   0.80375   0.55173
C    -2.05001   0.13133  -0.60845
C    -1.57240  -1.11529  -0.65386
C    -0.51550  -1.18358   0.46914
O    -1.11035  -0.30867   1.44375
H    -1.72224   1.68323   1.03179
H    -2.77243   0.63299  -1.25026
H    -1.80110  -1.92582  -1.34427
H    -0.25900  -2.16355   0.88206
