43
Generated by autodE on: 2022-05-31. E = -1319.186347 Ha. Imaginary frequency = -225.9 cm-1
C     3.13817   0.09445   3.01331
N     2.70210  -0.56643   1.80059
C     1.40290  -0.63598   1.48494
O     0.50096  -0.26088   2.25302
C     1.08215  -1.11957   0.11485
C     2.06784  -1.54708  -0.89550
C     1.55455  -2.21885  -2.13726
O     3.27222  -1.34237  -0.72676
O    -0.16332  -1.41203  -0.23441
C    -1.32546  -1.04242   0.24650
C    -1.69241  -1.10546   1.70911
C    -1.28452  -2.37350   2.42063
O    -2.49405  -0.32358   2.18467
C    -2.44686  -1.21266  -0.72785
C    -2.15750  -1.91371  -2.02420
O    -3.55168  -0.77017  -0.44497
C    -0.60602   1.41681  -0.26814
C    -1.19468   2.05779   0.84257
N    -1.66892   2.64734   1.72806
C    -1.14594   1.52395  -1.72921
C    -0.70414   2.90247  -2.26101
C     0.61972   2.81188  -2.42340
C     0.97308   1.36967  -1.99364
O    -0.20623   0.66554  -2.39350
C     0.75806   1.33581  -0.47632
F     1.68970   1.78485   0.34977
H     4.21276  -0.07942   3.14665
H     2.95457   1.18140   2.96527
H     2.59896  -0.30254   3.88528
H     3.36197  -0.76990   1.04652
H     2.40683  -2.46374  -2.78262
H     0.85575  -1.55621  -2.66742
H     1.00157  -3.13493  -1.87916
H    -0.40016  -2.86030   1.99231
H    -2.13601  -3.07098   2.33797
H    -1.11838  -2.15252   3.48381
H    -1.65344  -2.87501  -1.84452
H    -3.10372  -2.06992  -2.55690
H    -1.48167  -1.30067  -2.63770
H    -2.18378   1.22195  -1.89208
H    -1.36919   3.75179  -2.40971
H     1.34305   3.56238  -2.73800
H     1.89564   0.92470  -2.37870
