16
Generated by autodE on: 2022-10-06. E = -434.354238 Ha
C     2.18456  -0.96958   0.60455
C     1.39096   0.19009   0.07487
O     1.95547   1.23286  -0.27316
C    -0.06845   0.12844  -0.05513
C    -0.68823   1.28781  -0.58523
N    -1.17843   2.25210  -1.02200
N    -0.87928  -0.92966   0.27977
C    -2.33653  -0.76222   0.02107
N    -0.43518  -2.00500   0.78438
H     2.01003  -1.87229   0.00052
H     3.24740  -0.69426   0.58529
H     1.87180  -1.22216   1.62838
H    -2.70767   0.08594   0.60891
H    -2.84284  -1.68531   0.32067
H    -2.48942  -0.57342  -1.04833
H    -1.23455  -2.62827   0.93831
