26
Generated by autodE on: 2022-10-06. E = -889.388115 Ha. Imaginary frequency = -464.9 cm-1
C     3.20465   0.10821  -0.26235
C     2.13463  -0.92839  -0.45482
O     2.34638  -2.10160  -0.14548
C     0.76953  -0.59808  -0.93214
C    -0.05439  -1.75716  -1.10461
N    -0.72673  -2.69403  -1.26845
C    -0.46717   0.04687   1.06149
C     0.74400   0.49506   1.83738
O     1.09948   1.70778   1.74303
O     1.33572  -0.38689   2.51859
C    -1.33695   0.94904   0.42706
C    -2.82403   0.60368   0.34970
O    -3.11996  -0.50143  -0.18457
O    -3.62237   1.45003   0.81812
N    -0.98339   0.81695  -1.46951
N     0.30987   0.54747  -1.55074
C     1.14919   1.72606  -1.76460
H     4.02933  -0.36531   0.28518
H     3.58067   0.46655  -1.23202
H     2.82993   0.97286   0.30210
H    -0.80528  -0.97319   1.25531
H    -1.10841   2.00687   0.57864
H    -1.52033  -0.06137  -1.45574
H     2.06893   1.45153  -2.28963
H     1.38270   2.21079  -0.80761
H     0.56965   2.41393  -2.38875
