46
Generated by autodE on: 2022-06-14. E = -1383.665518 Ha
C    -2.49874   2.34885   3.02028
O    -1.22998   1.82568   2.59564
C    -1.24149   0.65228   1.97075
O    -2.25513   0.02051   1.74282
C     0.14222   0.14128   1.60242
C     1.31178   1.10665   1.89236
C     2.67887   0.61493   1.40302
C     3.11245  -0.78960   1.87960
C     3.05436  -1.92299   0.84478
C     1.67411  -2.41658   0.45266
F     1.81511  -3.53917  -0.33085
F     1.00147  -2.84180   1.57850
C     0.81818  -1.42814  -0.28803
C     0.16195  -0.36455   0.19178
C    -0.52691   0.29506  -1.03297
C    -0.89073   1.74916  -0.92413
C    -2.19819   2.18242  -0.66476
C    -2.46466   3.54437  -0.49647
C    -1.43447   4.48293  -0.58713
C    -0.12928   4.05506  -0.85213
C     0.14146   2.69671  -1.01852
N     0.47734  -0.03503  -2.08752
C     0.48992  -1.44423  -1.78461
C     1.24750  -2.27914  -2.71106
N     1.84472  -2.90404  -3.48066
O    -0.95052  -1.84057  -1.88054
C    -1.62313  -0.75706  -1.39744
O    -2.81996  -0.72429  -1.31057
H    -3.16394   2.48410   2.15683
H    -2.96778   1.66835   3.74514
H    -2.28270   3.31574   3.48855
H     0.26401  -0.74101   2.24923
H     1.33981   1.25794   2.98242
H     1.09925   2.08540   1.44014
H     3.41898   1.35055   1.75379
H     2.71810   0.65891   0.30285
H     4.16246  -0.74087   2.20363
H     2.54322  -1.08571   2.77625
H     3.56500  -1.62351  -0.08398
H     3.57907  -2.80814   1.23879
H    -3.00361   1.45659  -0.58040
H    -3.48679   3.86966  -0.29067
H    -1.64650   5.54603  -0.45173
H     0.68316   4.78153  -0.92513
H     1.16124   2.36421  -1.21456
H     0.08115   0.12073  -3.02129
