26
Generated by autodE on: 2022-06-14. E = -738.705734 Ha
C    -3.48780   2.44703  -1.77932
O    -2.65698   1.28339  -1.92029
C    -1.96542   0.90409  -0.84524
O    -2.02776   1.46164   0.23041
C    -1.05978  -0.27472  -1.17395
C    -0.56587  -0.92337   0.02787
C     0.15905  -1.25510   0.94088
C     1.46014  -1.22635   1.61202
F     1.34279  -1.21859   2.97807
F     2.15908  -2.37497   1.31289
C     2.24986  -0.00524   1.15467
C     2.35712   0.18573  -0.37059
C     1.24685   0.99411  -1.09997
C     0.21168   0.22169  -1.94353
H    -3.95950   2.60096  -2.75650
H    -2.87852   3.32108  -1.50782
H    -4.25365   2.27979  -1.00861
H    -1.62253  -0.95923  -1.82578
H     1.78205   0.87427   1.62348
H     3.25379  -0.11963   1.59436
H     2.48723  -0.79847  -0.85144
H     3.30550   0.71783  -0.53714
H     1.75600   1.67296  -1.80078
H     0.72838   1.65159  -0.38148
H    -0.14520   0.85624  -2.76847
H     0.68411  -0.66113  -2.40073
