20
Generated by autodE on: 2022-06-14. E = -644.893801 Ha
N     4.44258   1.92244   0.14954
C     3.45860   1.31410  -0.00408
C     2.27863   0.58303  -0.19016
N     1.06810   0.85024   0.29473
C     0.16067  -0.09118  -0.09729
C    -1.24781  -0.09194   0.25630
C    -1.80415   0.91202   1.07761
C    -3.15950   0.89125   1.40178
C    -3.98998  -0.12584   0.91787
C    -3.44813  -1.12540   0.10361
C    -2.09348  -1.11412  -0.22675
C     0.88610  -1.02951  -0.90148
O     0.60529  -2.04920  -1.50440
O     2.22207  -0.53932  -0.91795
H     0.86857   1.66151   0.88230
H    -1.18275   1.71924   1.47144
H    -3.57024   1.67778   2.03894
H    -5.05163  -0.13809   1.17405
H    -4.08634  -1.92462  -0.28049
H    -1.67885  -1.89601  -0.86187
