46
Generated by autodE on: 2022-06-14. E = -1383.592157 Ha. Imaginary frequency = -287.8 cm-1
C    -3.50416   0.86828   2.17004
O    -2.20633   0.28969   1.97327
C    -1.14984   1.09622   2.07150
O    -1.22826   2.28362   2.30659
C     0.14916   0.31143   1.95801
C     1.39084   1.22454   2.10196
C     2.72975   0.53929   1.78718
C     2.89950  -0.86422   2.41717
C     3.14145  -2.03560   1.45168
C     2.31973  -2.07733   0.16222
F     3.04193  -1.45703  -0.85322
F     2.21263  -3.38681  -0.24608
C     0.99083  -1.43069   0.20303
C     0.28849  -0.57987   0.78788
C    -0.90664   0.25573  -1.30213
C    -1.15497   1.67423  -1.09162
C    -2.46875   2.15162  -0.93171
C    -2.69319   3.50518  -0.68100
C    -1.61778   4.39342  -0.58938
C    -0.30919   3.92521  -0.75780
C    -0.07537   2.57529  -1.00635
N     0.12602  -0.25120  -2.00966
C     0.18250  -1.60119  -1.78419
C     0.91887  -2.46920  -2.64402
N     1.52809  -3.18324  -3.32913
O    -1.08670  -2.00190  -1.43734
C    -1.79695  -0.86992  -1.02806
O    -2.92873  -0.95525  -0.60620
H    -3.65678   1.72174   1.49714
H    -4.22490   0.07448   1.94503
H    -3.61417   1.19950   3.21315
H     0.10692  -0.35974   2.83480
H     1.26644   2.09898   1.44751
H     1.38657   1.59952   3.13747
H     3.53215   1.20680   2.13692
H     2.85515   0.48410   0.69593
H     3.74396  -0.85873   3.12248
H     2.01978  -1.10447   3.03207
H     4.19170  -2.06889   1.12175
H     2.93972  -2.97953   1.97848
H    -3.30566   1.45763  -0.99908
H    -3.71565   3.86710  -0.55357
H    -1.79721   5.45110  -0.38405
H     0.53428   4.61445  -0.68017
H     0.94995   2.21203  -1.10100
H     0.94926   0.28315  -2.28933
