27
Generated by autodE on: 2022-06-07. E = -1162.616006 Ha
C    -0.33351  -2.25563  -3.76749
N     0.23309  -1.91895  -2.47588
C    -0.27810  -0.92930  -1.73235
O    -1.24994  -0.25305  -2.08859
C     0.37291  -0.64829  -0.40462
Cl    1.77359  -1.61697   0.02740
C    -0.09968   0.27921   0.44143
C     0.56930   0.60928   1.75652
O     1.72718   1.02942   1.80144
N    -0.21385   0.44689   2.83316
C     0.24473   0.78027   4.16880
C    -1.38170   1.05484   0.21799
O    -2.42392   0.62524   0.72369
N    -1.26768   2.25551  -0.36777
C    -0.10772   2.71763  -1.11189
H     0.22061  -3.10379  -4.18597
H    -1.39500  -2.53209  -3.67168
H    -0.26603  -1.40472  -4.46356
H     1.03343  -2.43905  -2.13231
H    -1.17784   0.15808   2.68584
H     0.46626   1.85593   4.25826
H    -0.54012   0.51734   4.88761
H     1.15947   0.22190   4.41901
H    -2.14584   2.75472  -0.49562
H    -0.06569   2.27214  -2.11880
H     0.81805   2.46860  -0.57672
H    -0.16149   3.80943  -1.21019
