30
Generated by autodE on: 2022-07-27. E = -651.665204 Ha
C     0.11696  -0.63284   2.61574
N     0.28154  -0.59361   1.13573
C     1.43327  -1.06517   0.67388
C     1.90900  -1.10699  -0.68921
C     3.22346  -1.60843  -0.87561
C     3.79855  -1.67098  -2.14002
C     3.08012  -1.23674  -3.26267
C     1.78179  -0.74491  -3.09863
C     1.19243  -0.68255  -1.83466
N    -0.71516  -0.23943   0.33296
C    -1.65341   0.67329   0.77228
C    -1.41226   1.74918   1.66464
C    -2.42621   2.65410   1.98314
C    -3.70202   2.53607   1.42150
C    -3.94696   1.49466   0.51536
C    -2.94506   0.58393   0.19305
H    -0.95020  -0.66379   2.85510
H     0.60307  -1.54172   2.98698
H     0.58126   0.24286   3.08339
H     2.09655  -1.45903   1.44280
H     3.78945  -1.94522  -0.00332
H     4.81307  -2.06008  -2.25511
H     3.52970  -1.28681  -4.25710
H     1.21306  -0.40982  -3.96975
H     0.17757  -0.31549  -1.70862
H    -0.41725   1.89829   2.08392
H    -2.20777   3.47401   2.67294
H    -4.48940   3.24922   1.67509
H    -4.93410   1.38999   0.05703
H    -3.13759  -0.22859  -0.51130
