30
Generated by autodE on: 2022-06-07. E = -651.665206 Ha
C    -0.85936   2.51154   0.46216
N    -0.04528   1.27213   0.31828
C     1.23293   1.45725   0.01118
C     2.25103   0.46595  -0.24802
C     3.52750   0.96445  -0.61706
C     4.57849   0.10449  -0.91601
C     4.39175  -1.28350  -0.85608
C     3.14233  -1.79255  -0.48971
C     2.08186  -0.93859  -0.18148
N    -0.53879   0.07627   0.61760
C    -1.88638  -0.16915   0.44422
C    -2.46297  -1.16064   1.27865
C    -3.79707  -1.53351   1.14355
C    -4.60987  -0.94014   0.16733
C    -4.05090   0.02196  -0.68054
C    -2.71333   0.40154  -0.55700
H    -1.71515   2.30301   1.11098
H    -1.20637   2.86608  -0.51515
H    -0.22853   3.28001   0.92254
H     1.53085   2.50263  -0.05806
H     3.67888   2.04568  -0.66917
H     5.55090   0.51516  -1.19827
H     5.21687  -1.96045  -1.08940
H     2.98986  -2.87347  -0.43545
H     1.11562  -1.33393   0.11936
H    -1.83113  -1.62204   2.04105
H    -4.21106  -2.29476   1.81031
H    -5.65710  -1.23213   0.06284
H    -4.66149   0.47900  -1.46418
H    -2.29824   1.11950  -1.26430
