57
Generated by autodE on: 2022-06-07. E = -1814.274151 Ha. Imaginary frequency = -350.4 cm-1
C     1.64331  -3.62043   3.30183
N     1.37066  -3.09122   1.98046
C     1.73950  -1.83809   1.64803
O     2.52278  -1.17841   2.33316
C     1.24160  -1.39214   0.25246
Cl    2.39343  -2.18762  -0.88633
C     1.86970   0.59995   0.16334
C     2.32388   0.88050  -1.21606
C     3.70089   0.70040  -1.46449
C     4.24216   0.93259  -2.72743
C     3.41964   1.35676  -3.77677
C     2.05532   1.54971  -3.54269
C     1.50753   1.31069  -2.27988
N     0.76034   1.22586   0.70754
C     0.84958   1.62138   2.12987
N    -0.30961   1.22056  -0.01257
C    -1.49392   1.84394   0.37222
C    -1.60931   2.99789   1.18081
C    -2.86602   3.54308   1.43990
C    -4.02388   2.95941   0.91426
C    -3.91243   1.84132   0.07972
C    -2.66262   1.30289  -0.21049
C    -0.15679  -1.43467  -0.02516
C    -1.01829  -1.29899   1.18105
O    -0.52719  -0.93657   2.27261
N    -2.33218  -1.57831   1.07942
C    -3.24305  -1.26598   2.15888
C    -0.77785  -1.54634  -1.36772
O    -2.01004  -1.74446  -1.51336
N    -0.01785  -1.40756  -2.47419
C    -0.61364  -1.26544  -3.78599
H     1.36313  -4.68091   3.32797
H     1.06986  -3.08068   4.07553
H     2.71229  -3.52993   3.54127
H     0.64410  -3.53329   1.42658
H     2.68226   0.53756   0.88279
H     4.34921   0.37167  -0.64942
H     5.31169   0.78321  -2.89323
H     3.83996   1.53538  -4.76922
H     1.40225   1.88135  -4.35342
H     0.44083   1.43969  -2.11960
H    -0.12445   1.52287   2.61136
H     1.56670   0.95132   2.61242
H     1.21024   2.65743   2.19176
H    -0.72685   3.49801   1.57300
H    -2.93828   4.44037   2.05881
H    -5.00392   3.38783   1.13505
H    -4.80620   1.39149  -0.35856
H    -2.57031   0.44427  -0.87337
H    -2.66363  -1.74423   0.12521
H    -4.26323  -1.52490   1.84787
H    -3.21808  -0.19460   2.42112
H    -2.99911  -1.83831   3.06784
H     0.95056  -1.13319  -2.37863
H    -1.23244  -0.35387  -3.85776
H    -1.25294  -2.12712  -4.02807
H     0.19077  -1.20220  -4.52973
