40
Generated by autodE on: 2022-05-29. E = -1027.519408 Ha
C    -2.23491   3.31480   1.57040
O    -1.77763   2.33849   0.61941
C    -1.54772   1.11154   1.07753
O    -1.73978   0.77802   2.22756
C    -1.08896   0.15502  -0.01609
N    -0.68326   0.87975  -1.21292
N     0.42311   0.17880  -1.74852
C     1.05694   0.89855  -2.83828
C     1.27281  -0.25395  -0.59338
C     2.19099  -1.31728  -0.99756
N     2.94229  -2.14946  -1.29321
C     2.02271   0.98490  -0.02910
C     3.47029   1.17088  -0.34338
O     1.35496   1.80238   0.58019
C     0.17682  -0.75385   0.39484
C     0.65349  -0.64643   1.77224
N     1.07743  -0.65608   2.85242
C    -0.38590  -2.20765   0.21084
C    -0.71382  -2.53890  -1.26009
C    -1.96311  -1.66464  -1.55921
C    -2.19987  -0.93209  -0.22802
C    -1.79848  -2.01054   0.79371
H    -2.37428   4.24229   1.00424
H    -3.18425   2.99222   2.02020
H    -1.48102   3.45497   2.35784
H    -0.38868   1.82264  -0.93336
H     1.38051   1.92075  -2.55940
H     0.33613   0.97883  -3.66405
H     1.92825   0.32911  -3.19001
H     4.05266   0.40477   0.19598
H     3.79224   2.17191  -0.03065
H     3.66336   1.01998  -1.41660
H     0.25316  -2.94938   0.70469
H    -0.95245  -3.61129  -1.31310
H     0.11273  -2.35306  -1.95283
H    -1.81504  -0.97155  -2.39484
H    -2.84203  -2.28503  -1.78623
H    -3.20475  -0.50316  -0.12289
H    -1.81021  -1.66588   1.83499
H    -2.41198  -2.91854   0.70633
