16
Generated by autodE on: 2022-07-26. E = -434.362828 Ha
C     1.82679  -0.13938   1.75407
C     0.55565   0.43206   1.18207
O    -0.05683   1.33972   1.76863
C     0.08398  -0.12042  -0.07357
C     0.80008  -1.15273  -0.71845
N     1.41701  -2.00526  -1.22415
N    -1.07666   0.34259  -0.67943
C    -1.47439  -0.27987  -1.96105
N    -1.83477   1.25285  -0.24144
H     1.71397  -1.21819   1.94647
H     2.06349   0.37880   2.69184
H     2.66060  -0.01957   1.04438
H    -0.67863  -0.11985  -2.69924
H    -2.40275   0.20287  -2.27759
H    -1.62554  -1.35537  -1.80511
H    -1.41692   1.57881   0.65180
