24
Generated by autodE on: 2022-05-29. E = -593.135201 Ha
C     3.61812  -0.87781   0.49195
O     2.24544  -0.97999   0.08734
C     1.52868   0.14930   0.09972
O     1.98181   1.23304   0.42322
C     0.13539  -0.08470  -0.32053
C    -0.88713   0.80071  -0.18508
C    -0.84247   2.10749   0.36343
N    -0.87663   3.18925   0.79435
C    -2.17235   0.07289  -0.56009
C    -2.42011  -0.94125   0.60494
C    -1.25027  -1.95095   0.44560
C    -0.46844  -1.39142  -0.79028
C    -1.63210  -0.86676  -1.65773
H     3.68686  -0.50829   1.52535
H     4.16442  -0.19616  -0.17601
H     4.02998  -1.89090   0.42172
H    -3.02290   0.72045  -0.79970
H    -3.39563  -1.42715   0.45967
H    -2.43187  -0.44045   1.58279
H    -0.60664  -2.01457   1.33374
H    -1.61791  -2.96178   0.21778
H     0.23664  -2.09501  -1.24442
H    -1.29283  -0.33010  -2.55553
H    -2.34926  -1.65194  -1.93789
