40
Generated by autodE on: 2022-05-29. E = -1027.460760 Ha. Imaginary frequency = -373.5 cm-1
C    -3.31758   2.42557   2.12344
O    -2.83338   1.35005   1.30120
C    -1.53279   1.34413   1.02818
O    -0.75856   2.19480   1.42275
C    -1.11942   0.15924   0.19524
N    -0.30693   1.21054  -1.16843
N     0.61283   0.49557  -1.79390
C     0.37204   0.10633  -3.18818
C     1.69120  -0.00384  -1.11534
C     2.42464  -1.05547  -1.73450
N     3.03700  -1.92817  -2.20407
C     2.38311   0.77529  -0.06185
C     3.61363   0.16557   0.54315
O     1.97596   1.88580   0.26919
C    -0.12779  -0.71244   0.76668
C     0.66785  -0.39508   1.88782
N     1.32254  -0.19129   2.83374
C    -0.63560  -2.14465   0.58426
C    -0.65649  -2.54071  -0.91286
C    -1.78646  -1.64492  -1.49171
C    -2.22859  -0.79768  -0.28404
C    -2.14558  -1.86782   0.83639
H    -4.39304   2.25150   2.24000
H    -2.81803   2.41044   3.10230
H    -3.13582   3.39134   1.63118
H     0.18701   1.75244  -0.44517
H     1.18046   0.52421  -3.80517
H    -0.58391   0.53954  -3.49460
H     0.36059  -0.98388  -3.31001
H     3.45754  -0.89591   0.78376
H     3.88135   0.72470   1.44764
H     4.44352   0.22422  -0.18124
H    -0.13734  -2.86667   1.24097
H    -0.90918  -3.60728  -0.99815
H     0.31727  -2.39875  -1.39480
H    -1.49223  -1.04319  -2.35238
H    -2.64321  -2.25458  -1.81208
H    -3.18982  -0.29463  -0.42293
H    -2.34874  -1.46970   1.84033
H    -2.78521  -2.74394   0.64548
