37
Generated by autodE on: 2022-06-17. E = -750.723080 Ha
C     4.48973   0.47222   0.19958
O     3.19056   0.34511   0.79585
C     2.13783   0.40179  -0.03057
O     2.24602   0.58972  -1.22738
C     0.83579   0.15174   0.71198
C     0.44273  -1.33863   0.51909
C     0.88942  -2.23750   1.66261
C    -1.07805  -1.28834   0.28896
C    -1.65101  -2.51483  -0.40425
C    -1.27712   0.07115  -0.45351
C    -1.05446  -0.02588  -1.96816
C    -2.71572   0.52588  -0.15975
C    -3.01048   1.18323   1.16305
O    -3.60653   0.32048  -0.97123
N    -0.30662   0.91779   0.23677
C    -0.09641   2.27402  -0.22070
H     5.21077   0.38370   1.02041
H     4.65406  -0.32599  -0.53882
H     4.59267   1.45020  -0.29233
H     1.03418   0.36163   1.77752
H     0.90336  -1.69761  -0.41573
H     1.98271  -2.19620   1.78868
H     0.61246  -3.28599   1.47300
H     0.42435  -1.92488   2.61171
H    -1.55562  -1.18848   1.27790
H    -2.72519  -2.38939  -0.61170
H    -1.53705  -3.40335   0.23556
H    -1.13937  -2.71978  -1.35684
H    -1.80165  -0.67221  -2.44482
H    -1.13663   0.97052  -2.42788
H    -0.05217  -0.41794  -2.18541
H    -2.46057   0.71559   1.99020
H    -4.09225   1.15322   1.35070
H    -2.68983   2.23696   1.11943
H     0.45209   2.35612  -1.17748
H    -1.06221   2.78711  -0.34579
H     0.47578   2.83346   0.53776
