25
Generated by autodE on: 2022-06-17. E = -593.352119 Ha
C     4.08919  -0.84135   0.49091
O     2.66989  -0.94994   0.38172
C     1.98948   0.20318   0.13742
O     2.58363   1.27198   0.01612
C     0.57958  -0.11486   0.06917
N    -0.44664   0.72815  -0.15122
C    -0.15669   2.16644  -0.35813
C    -1.76725   0.36960  -0.20529
C    -2.77715   1.45559  -0.45265
C    -2.19577  -1.00857  -0.03353
C    -3.67975  -1.31275  -0.12379
O    -1.42078  -1.96077   0.18264
H     4.37117  -0.17837   1.32319
H     4.45778  -1.85673   0.68138
H     4.52817  -0.45185  -0.44029
H     0.30761  -1.15189   0.21298
H    -0.53243   2.46948  -1.34223
H     0.91863   2.32818  -0.30071
H    -0.66783   2.75046   0.41583
H    -2.74817   2.23791   0.32374
H    -2.62304   1.95960  -1.42136
H    -3.79103   1.04857  -0.46028
H    -4.09571  -1.02292  -1.10139
H    -3.81388  -2.39296   0.01724
H    -4.25144  -0.77650   0.64992
