12
Generated by autodE on: 2022-10-06. E = -377.751431 Ha
C     2.52732  -0.71763  -0.17697
N     1.48832  -0.22682  -0.04527
C     0.21151   0.19612   0.06144
C    -0.02976   1.52536   0.46175
N    -0.25790   2.62288   0.79273
C    -0.82311  -0.78029  -0.25056
C    -2.25019  -0.30591  -0.12919
O    -0.53264  -1.92886  -0.59263
H     3.51546  -1.15273  -0.29372
H    -2.92898  -1.12325  -0.40425
H    -2.42863   0.56071  -0.78539
H    -2.46133   0.01745   0.90275
