39
Generated by autodE on: 2022-06-01. E = -3931.314684 Ha
C     4.30432  -1.24641   0.92286
O     3.15055  -0.58490   1.46628
C     2.27471  -0.09992   0.59428
O     2.43834  -0.11899  -0.60669
C     1.02493   0.53683   1.25727
C     1.30035   0.87048   2.72340
N     0.63555   1.73229   0.51084
C     1.59107   2.82124   0.37532
C    -0.18309   1.42707  -0.64154
C    -1.13600   2.55122  -0.86388
N    -1.83760   3.45523  -1.04537
C     0.57132   1.37665  -1.93418
N     1.14413   1.55084  -2.92744
C    -0.94473   0.08311  -0.25668
Br   -0.92127  -1.13815  -1.79072
C    -2.38741   0.34404   0.24404
C    -3.08533  -0.98073   0.61180
C    -2.38581  -1.40140   1.93142
C    -1.32375  -0.30227   2.13213
C    -2.10590   0.93208   1.64454
C    -0.20434  -0.42341   1.05965
Cl    0.41025  -2.12908   0.99798
H     3.99194  -2.11882   0.33071
H     4.87877  -0.55678   0.28863
H     4.90325  -1.56380   1.78377
H     1.40730  -0.05376   3.30534
H     2.23445   1.43749   2.82325
H     0.48021   1.46775   3.13891
H     1.08532   3.69930  -0.05170
H     1.96562   3.10555   1.36659
H     2.44968   2.56352  -0.27091
H    -2.96523   0.96344  -0.45032
H    -2.99973  -1.73435  -0.18044
H    -4.15510  -0.78277   0.76567
H    -3.08236  -1.36562   2.78080
H    -1.95917  -2.40970   1.89357
H    -0.92318  -0.26677   3.14899
H    -1.53379   1.86540   1.65120
H    -3.03422   1.08036   2.21366
