22
Generated by autodE on: 2022-07-27. E = -625.194088 Ha
C     2.37718  -2.64355   0.68380
O     1.88492  -1.33212   1.01608
C     0.60621  -1.09376   0.75499
O    -0.16668  -1.90526   0.28910
C     0.19626   0.28162   1.19180
C     0.59545   0.74622   2.55175
N    -0.57710   1.01097   0.41581
C    -1.19486   2.22772   0.98136
C    -0.77177   0.77820  -0.95723
C    -1.91515   1.27000  -1.61008
N    -2.85135   1.66811  -2.18922
C     0.18673   0.08031  -1.70870
N     0.99552  -0.48760  -2.33582
H     1.83745  -3.40890   1.25902
H     2.24982  -2.82759  -0.39217
H     3.43950  -2.64060   0.95077
H     1.01858   1.76283   2.51698
H    -0.27609   0.77493   3.22778
H     1.33926   0.06458   2.97779
H    -1.93059   2.62027   0.27468
H    -0.41233   2.98063   1.14648
H    -1.68486   1.98540   1.93055
