22
Generated by autodE on: 2022-06-01. E = -625.194136 Ha
C     3.60097  -0.18851  -0.20681
O     2.43436   0.62399   0.02082
C     1.31712   0.24276  -0.58416
O     1.22382  -0.71128  -1.32814
C     0.18587   1.18982  -0.31045
C     0.42867   2.65295  -0.46787
N    -1.00872   0.71670  -0.02761
C    -2.15532   1.64736  -0.03594
C    -1.26202  -0.60087   0.39536
C    -0.25750  -1.36010   1.01588
N     0.57706  -1.98570   1.54714
C    -2.53627  -1.17050   0.23045
N    -3.58466  -1.67848   0.11493
H     3.41092  -1.21618   0.13303
H     4.40350   0.26951   0.38141
H     3.85949  -0.19094  -1.27499
H     0.05400   3.21456   0.40290
H    -0.08977   3.04257  -1.36036
H     1.50079   2.84607  -0.58045
H    -2.15510   2.22490  -0.96654
H    -2.07074   2.32571   0.82393
H    -3.08376   1.07629   0.04536
