17
Generated by autodE on: 2022-06-01. E = -3306.076368 Ha
Cl    1.42249  -1.89147   0.54130
C     0.06692  -1.11006  -0.18782
C    -0.13886   0.20727  -0.35790
Br    0.99149   1.62002   0.15639
C    -1.58230   0.38870  -0.80069
C    -2.45775   0.05193   0.44960
C    -2.21580  -1.47325   0.64440
C    -1.23354  -1.82349  -0.52003
C    -1.76443  -0.89792  -1.63504
H    -1.80847   1.34627  -1.28429
H    -2.16258   0.65110   1.32257
H    -3.51463   0.26721   0.23388
H    -1.78220  -1.72086   1.62361
H    -3.14784  -2.04628   0.53141
H    -1.13269  -2.89240  -0.74239
H    -2.81602  -1.09565  -1.89224
H    -1.14330  -0.91470  -2.54182
