39
Generated by autodE on: 2022-06-01. E = -3931.244178 Ha. Imaginary frequency = -294.5 cm-1
C     4.03387  -1.54899   0.77171
O     3.12763  -0.57847   1.31295
C     2.30029   0.00896   0.44708
O     2.34830  -0.18077  -0.74994
C     1.35353   0.94347   1.13578
C     1.57721   1.15756   2.60161
N     0.83443   1.97573   0.40437
C     0.65843   3.28005   1.08213
C     0.20475   1.82433  -0.83747
C    -0.87350   2.71293  -1.11279
N    -1.80027   3.37831  -1.35708
C     0.80791   1.37272  -2.04711
N     1.13858   1.13692  -3.14051
C    -1.03683  -0.27793  -0.17497
Br   -0.87017  -1.33830  -1.72736
C    -2.39253   0.30664   0.18130
C    -3.22939  -0.89430   0.73040
C    -2.53044  -1.22641   2.07886
C    -1.37365  -0.18340   2.14230
C    -2.06579   1.03129   1.50050
C    -0.38617  -0.57578   1.04043
Cl    0.46390  -2.10598   1.26929
H     3.47365  -2.36198   0.28777
H     4.70708  -1.08098   0.03944
H     4.60559  -1.93427   1.62347
H     1.70333   0.18090   3.08318
H     2.49492   1.73988   2.79173
H     0.73101   1.67384   3.06830
H     0.51455   4.05416   0.32274
H    -0.19426   3.28726   1.77420
H     1.57244   3.51385   1.63915
H    -2.88183   0.88545  -0.60936
H    -3.24274  -1.73943   0.02904
H    -4.26737  -0.56414   0.88158
H    -3.20588  -1.06998   2.93217
H    -2.15498  -2.25697   2.12835
H    -0.92739  -0.05047   3.13414
H    -1.42991   1.90889   1.38845
H    -2.97497   1.32506   2.04378
