23
Generated by autodE on: 2022-06-22. E = -351.521381 Ha
C     3.57520  -0.91452   0.82598
C     2.56324  -0.24002   0.23711
C     2.82953   0.89739  -0.71557
C     1.17758  -0.60801   0.52116
C     0.07800  -0.00830  -0.00040
C    -1.27742  -0.41101   0.31454
C    -2.42308   0.14425  -0.15546
C    -2.47413   1.30789  -1.10440
C    -3.76453  -0.38824   0.26243
H     3.37860  -1.73980   1.51735
H     4.62075  -0.65973   0.63161
H     2.36980   1.83289  -0.35575
H     3.90809   1.06842  -0.84018
H     2.39387   0.69484  -1.70811
H     1.03674  -1.44248   1.21869
H     0.21093   0.82433  -0.69641
H    -1.37185  -1.25586   1.00754
H    -3.01708   1.02796  -2.02445
H    -1.48503   1.68672  -1.39231
H    -3.04360   2.14084  -0.65543
H    -4.34875  -0.71127  -0.61798
H    -3.67776  -1.23917   0.95392
H    -4.36339   0.40054   0.75240
