30
Generated by autodE on: 2022-07-27. E = -742.271495 Ha
C     3.52808   2.00335  -0.31006
N     2.17280   1.49112  -0.28339
C     1.92042   0.16709  -0.14534
O     2.86997  -0.64746  -0.14392
C     0.50654  -0.24315  -0.07954
C     0.05383  -1.57469  -0.54211
O    -1.14451  -1.92042  -0.55147
N     1.02882  -2.43742  -0.91424
C     0.72178  -3.81309  -1.23395
N    -0.43149   0.62109   0.44692
C    -0.07363   1.39959   1.65908
C    -1.67519   0.66980  -0.02477
C    -2.82957   1.30259   0.60984
C    -4.10311   1.18208  -0.19182
O    -2.80585   1.89098   1.69351
H     3.48948   3.09937  -0.33649
H     4.07972   1.64774  -1.19585
H     4.08890   1.68891   0.58406
H     1.40854   2.14678  -0.39459
H     1.98752  -2.14770  -0.71238
H     1.61708  -4.29018  -1.65345
H     0.40222  -4.39117  -0.34846
H    -0.08888  -3.86980  -1.97577
H     0.96611   1.19808   1.92113
H    -0.72698   1.07157   2.47440
H    -0.23546   2.46994   1.48733
H    -1.84078   0.17651  -0.97658
H    -3.96829   1.62526  -1.19214
H    -4.92357   1.68832   0.33258
H    -4.35452   0.11914  -0.34281
