53
Generated by autodE on: 2022-06-22. E = -1093.789658 Ha. Imaginary frequency = -412.1 cm-1
C     3.25779   0.29434   3.30349
N     1.89386  -0.14770   3.50938
C     1.54948  -1.45484   3.35707
O     2.44880  -2.26739   3.01569
C     0.15188  -1.84482   3.53845
C    -0.31729  -3.20375   3.20893
O    -1.47234  -3.61030   3.47747
N     0.55345  -4.02446   2.57023
C     0.19339  -5.38319   2.24046
N    -0.76018  -0.95573   4.12280
C    -0.36759  -0.10967   5.26328
C    -2.00071  -0.85445   3.56890
C    -3.08281  -0.01138   4.16292
C    -4.47839  -0.51429   3.91215
O    -2.86730   1.02847   4.77177
C    -1.80859   0.00800   1.70275
C    -0.87479  -0.77602   1.00258
C    -1.30598  -2.08668   0.40673
C     0.43354  -0.25235   0.72848
C     1.44683  -0.92209   0.10424
C     2.74815  -0.34796  -0.12040
C     3.88190  -1.03183  -0.43060
C     5.19843  -0.32433  -0.55790
C     3.93481  -2.52739  -0.55676
H     3.61691   0.08301   2.28351
H     3.94229  -0.20185   4.00922
H     3.30395   1.37725   3.47739
H     1.16825   0.55673   3.48848
H     1.51865  -3.69068   2.51862
H     1.00292  -5.83228   1.64991
H     0.02979  -6.00738   3.13735
H    -0.73302  -5.41373   1.64550
H     0.58060  -0.48039   5.66020
H    -1.13038  -0.18943   6.04775
H    -0.27243   0.94999   4.99146
H    -2.35760  -1.77933   3.12688
H    -4.62107  -0.76650   2.84989
H    -5.21606   0.23428   4.22878
H    -4.62537  -1.44720   4.48296
H    -2.86718  -0.14286   1.47537
H    -1.52794   1.03200   1.96725
H    -1.47563  -1.97550  -0.67863
H    -0.54212  -2.86675   0.53535
H    -2.24020  -2.44388   0.86081
H     0.62582   0.76961   1.07148
H     1.28381  -1.95902  -0.19911
H     2.83240   0.73312   0.03841
H     5.92904  -0.73370   0.16334
H     5.10752   0.75800  -0.38497
H     5.63702  -0.48486  -1.55928
H     4.29938  -2.96323   0.39222
H     4.64459  -2.83434  -1.34171
H     2.95876  -2.98319  -0.77039
