39
Generated by autodE on: 2022-05-30. E = -1027.224638 Ha. Imaginary frequency = -396.5 cm-1
C    -2.19579   2.82153   1.06971
N    -1.25866   1.73803   0.84976
C    -1.67699   0.47164   0.68139
O    -2.87130   0.15856   0.83086
C    -0.68241  -0.58568   0.34757
C    -0.99574  -1.98717   0.94686
C    -0.54342  -1.93540   2.41664
C     0.79313  -1.92122   2.36433
C     1.12773  -1.95454   0.86124
O     0.05595  -2.76651   0.36146
C     0.72438  -0.57180   0.27193
C     1.66357   0.56088   0.25608
C     2.78407   0.55782   1.11050
C     3.68674   1.62339   1.11119
C     3.50103   2.70901   0.25057
C     2.40517   2.71627  -0.61872
C     1.50095   1.65373  -0.62266
N     1.03096  -1.15063  -1.83945
N    -0.04506  -1.09139  -2.25884
C    -1.32940  -0.84913  -1.85833
C    -2.31137  -1.99001  -1.91064
C    -1.79657   0.45217  -2.22941
N    -2.20175   1.52028  -2.45326
H    -2.75653   2.68335   2.00739
H    -1.63673   3.76352   1.12855
H    -2.92293   2.89033   0.24489
H    -0.28061   1.96153   0.70437
H    -1.98589  -2.40034   0.74353
H    -1.20961  -1.85705   3.27504
H     1.52065  -1.83600   3.17075
H     2.11026  -2.33433   0.56266
H     2.94908  -0.27740   1.79302
H     4.54266   1.60249   1.78991
H     4.20907   3.54077   0.25129
H     2.25626   3.55115  -1.30742
H     0.66308   1.66998  -1.32149
H    -3.13845  -1.75006  -1.22809
H    -1.82551  -2.91920  -1.58832
H    -2.72157  -2.12399  -2.92376
