15
Generated by autodE on: 2022-05-26. E = -342.083531 Ha
C     1.52362   1.00252  -0.51367
N     1.14107   0.04356   0.27685
C     2.13039  -0.61098   1.14973
N    -0.09042  -0.50479   0.46262
C    -1.12970  -0.04635  -0.26897
C    -2.43219  -0.74885   0.05216
O    -1.12262   0.85146  -1.13801
H     2.57622   1.28442  -0.49521
H     0.78754   1.47859  -1.15354
H     3.11853  -0.16322   1.00002
H     2.15048  -1.68045   0.90522
H     1.80517  -0.48831   2.19046
H    -2.31316  -1.52558   0.81789
H    -3.16699  -0.00329   0.39683
H    -2.83587  -1.19834  -0.86937
