14
Generated by autodE on: 2022-06-19. E = -270.683226 Ha
C    -0.38106   1.49688   0.37699
C    -0.85499   0.15151  -0.09327
C    -2.32160   0.02539  -0.36031
C    -0.02790  -0.91430  -0.27564
C     1.41002  -0.92613  -0.05212
O     2.10028   0.01007   0.34473
H     0.07099   1.42315   1.37932
H    -1.20940   2.21802   0.41569
H     0.40872   1.89138  -0.28108
H    -2.62700   0.75743  -1.12866
H    -2.60817  -0.98287  -0.68952
H    -2.89198   0.28556   0.54876
H    -0.45444  -1.86018  -0.62218
H     1.89657  -1.90648  -0.27610
