29
Generated by autodE on: 2022-06-19. E = -721.167110 Ha
C     3.73322  -1.57004  -0.81149
N     2.34360  -1.44888  -0.43019
C     1.61262  -0.37480  -0.81856
O     2.07653   0.46140  -1.62046
C     0.25580  -0.24678  -0.25403
C    -0.25815  -1.17827   0.76080
O     0.51348  -1.82639   1.50774
N    -1.59264  -1.43011   0.84643
C    -2.67343  -1.01235  -0.01648
N    -0.48126   0.85397  -0.67275
C    -0.56583   1.18433  -2.11128
C    -1.21080   1.59857   0.15762
C    -2.19994   2.61600  -0.31561
C    -1.00278   1.45045   1.55419
N    -0.84510   1.40766   2.70906
H     4.35497  -0.75278  -0.40389
H     3.84528  -1.55442  -1.90621
H     4.12374  -2.52431  -0.43511
H     1.98695  -1.95292   0.38247
H    -1.82711  -2.05001   1.61645
H    -3.12632  -0.05474   0.29549
H    -2.33664  -0.91554  -1.05751
H    -3.46092  -1.77755   0.01339
H    -1.62426   1.14865  -2.40288
H    -0.00350   0.44572  -2.68093
H    -0.17112   2.19116  -2.29536
H    -2.71727   3.05981   0.54313
H    -1.69315   3.42024  -0.87362
H    -2.94923   2.16452  -0.98524
