27
Generated by autodE on: 2022-06-18. E = -760.902379 Ha
C    -1.42587   1.90741  -1.73590
O    -0.94779   0.73656  -1.06935
C    -1.52234   0.41529   0.10887
O    -2.47915   1.03767   0.56201
C    -0.94299  -0.74120   0.74813
C    -1.61296  -1.25108   1.87356
N    -2.18069  -1.66427   2.81046
N     0.18859  -1.43093   0.26835
C     0.15006  -2.90705   0.33014
C     1.21990  -0.86010  -0.31140
C     2.24336  -1.66409  -1.03767
C     1.44086   0.61974  -0.15456
O     1.26664   1.22106   0.88442
O     1.93927   1.15693  -1.26017
C     2.21302   2.56813  -1.22318
H    -0.77842   2.04023  -2.61065
H    -2.47001   1.77492  -2.05558
H    -1.35570   2.78442  -1.07655
H    -0.65464  -3.21462   1.00307
H    -0.05023  -3.30016  -0.67625
H     1.10799  -3.29324   0.69462
H     2.84285  -2.26031  -0.32787
H     1.77074  -2.36858  -1.73950
H     2.91999  -1.00493  -1.59072
H     2.55628   2.83257  -2.22923
H     1.29922   3.12361  -0.97004
H     2.99493   2.78334  -0.48140
