52
Generated by autodE on: 2022-10-22. E = -1250.844032 Ha
C     2.84919  -9.11163   1.89214
O     3.18269  -7.76568   2.19426
C     2.53746  -6.76133   1.42250
O     2.88750  -6.93924   0.06657
C     4.25831  -6.74336  -0.26796
C     0.99386  -6.87513   1.53429
C     0.15947  -5.58787   1.52181
C     0.03707  -4.82419   0.19722
C     1.32754  -4.48965  -0.55594
C     2.36024  -3.67462   0.20091
F     3.42913  -3.42609  -0.69802
C     2.95219  -4.21227   1.47794
C     3.04195  -5.44687   1.99901
C     3.63610  -5.39772   3.39233
C     2.53959  -5.65794   4.45654
C     2.60562  -6.94127   5.22260
O     1.68788  -4.81027   4.65932
N     4.18128  -4.04585   3.47425
C     3.58055  -3.19232   2.44703
C     2.48513  -2.35295   2.99513
N     1.62791  -1.70277   3.43090
C     4.62790  -2.31029   1.75105
C     5.80443  -2.92766   1.30289
C     6.77177  -2.19140   0.62105
C     6.57382  -0.82632   0.37576
C     5.40266  -0.20889   0.81720
C     4.43090  -0.94953   1.50142
H     2.92235  -9.31288   0.81174
H     1.83653  -9.37496   2.23991
H     3.57707  -9.74127   2.42210
H     4.43300  -7.27522  -1.21373
H     4.92338  -7.16086   0.50359
H     4.48494  -5.67547  -0.41019
H     0.66037  -7.55964   0.73835
H     0.79857  -7.37478   2.49444
H     0.51882  -4.91586   2.31460
H    -0.86040  -5.87386   1.82700
H    -0.58831  -5.41443  -0.49363
H    -0.52261  -3.89405   0.39574
H     1.80303  -5.41011  -0.90899
H     1.06915  -3.89343  -1.44548
H     1.93806  -2.68225   0.43357
H     4.42476  -6.15325   3.51245
H     2.64144  -7.78866   4.52282
H     3.54959  -6.96194   5.79377
H     1.75059  -7.02867   5.90506
H     4.12606  -3.63732   4.40418
H     5.95156  -3.99303   1.48686
H     7.68370  -2.68345   0.27454
H     7.33214  -0.24896  -0.15834
H     5.23860   0.85531   0.63248
H     3.51899  -0.45445   1.83970
