24
Generated by autodE on: 2022-10-22. E = -610.171854 Ha
C    -4.73454   0.67872  -0.19554
C    -3.24990   0.89264  -0.31949
O    -2.78616   1.93890  -0.81128
C    -2.37329  -0.15610   0.13538
N    -1.06502   0.07587  -0.00896
C     0.01746  -0.65550   0.28345
C    -0.20462  -1.94488   0.83122
N    -0.40118  -3.00250   1.28207
C     1.37732  -0.16566   0.05369
C     2.47311  -1.03245   0.24935
C     3.77727  -0.59252   0.02881
C     4.02043   0.71883  -0.39136
C     2.94113   1.58912  -0.58266
C     1.63458   1.15841  -0.36072
H    -5.16171   0.55052  -1.20468
H    -4.98581  -0.20313   0.40912
H    -5.19828   1.57657   0.24159
H    -2.71317  -1.09099   0.57711
H    -0.90152   1.00246  -0.43327
H     2.30006  -2.06104   0.57238
H     4.60952  -1.28258   0.18493
H     5.04245   1.06252  -0.56462
H     3.11705   2.61858  -0.90270
H     0.82130   1.87372  -0.50155
