23
Generated by autodE on: 2022-10-13. E = -683.384258 Ha
C     3.14530   1.03244   2.40715
N     2.68918  -0.02758   1.53306
C     1.63484   0.13118   0.70686
O     0.91553   1.14953   0.70565
N     1.50475  -0.92851  -0.17896
O     0.41948  -0.83416  -0.96875
C    -0.71582  -0.27802  -0.72270
C    -1.18152   0.08022   0.67013
C    -1.92949   1.35622   0.88474
O    -1.04067  -0.78625   1.51847
C    -1.66146  -0.31079  -1.87812
C    -1.14458  -0.81299  -3.19136
O    -2.80647   0.07616  -1.69715
H     3.73070   0.59657   3.22709
H     3.77617   1.76847   1.87914
H     2.28022   1.56234   2.82783
H     3.30153  -0.81902   1.35693
H    -1.62821   2.13038   0.16791
H    -3.00361   1.15271   0.74725
H    -1.76581   1.69522   1.91683
H    -0.73940  -1.83079  -3.07693
H    -1.96073  -0.80904  -3.92422
H    -0.31818  -0.17373  -3.54102
