23
Generated by autodE on: 2022-10-07. E = -683.382146 Ha
C     1.23080  -1.52200  -3.55320
N     0.84259  -1.98136  -2.23174
C     0.68877  -1.19115  -1.14806
O     0.50687  -1.66024  -0.00223
N     0.82921   0.15488  -1.42542
O     0.63696   0.93697  -0.33736
C    -0.13581   0.73196   0.66694
C    -0.05037   1.79268   1.72146
C     1.02529   2.82482   1.59076
O    -0.86053   1.75549   2.63397
C    -1.25630  -0.28494   0.66429
C    -1.51511  -1.09403   1.89399
O    -1.98743  -0.26109  -0.31291
H     1.21448  -2.38151  -4.23484
H     2.24390  -1.08715  -3.56081
H     0.52917  -0.76606  -3.93209
H     0.89240  -2.97484  -2.02671
H     0.94079   3.54108   2.41713
H     0.93686   3.34472   0.62370
H     2.01465   2.34023   1.60718
H    -0.60506  -1.23397   2.49044
H    -2.25894  -0.56034   2.50706
H    -1.93797  -2.06371   1.59740
