33
Generated by autodE on: 2022-10-07. E = -1138.418610 Ha. Imaginary frequency = -60.8 cm-1
C     2.49074  -0.41279   3.17088
N     2.00248  -1.03918   1.95517
C     2.19156  -0.43625   0.77167
O     3.04569   0.42927   0.55939
N     1.55073  -0.94549  -0.39603
O     0.30284  -1.39174  -0.39631
C    -0.88051  -1.16547   0.10747
C    -1.24929  -0.93374   1.54810
C    -2.51071  -0.19464   1.87667
O    -0.59580  -1.46902   2.43443
C    -1.94529  -1.56870  -0.86829
C    -1.49722  -2.04612  -2.21809
O    -3.12630  -1.47275  -0.56268
C    -0.59662   1.55341  -0.69610
C    -0.74318   2.06697   0.71680
O     0.11192   1.70665   1.57424
O    -1.72650   2.82373   0.92858
C     0.59564   1.44051  -1.31975
C     0.75676   1.09400  -2.78369
O     1.92343   1.17855  -3.24966
O    -0.27337   0.75104  -3.43417
H     1.89121   0.47773   3.42742
H     2.43023  -1.13276   3.99717
H     3.53664  -0.10282   3.04622
H     1.14558  -1.58643   2.06396
H    -2.82062   0.51600   1.10621
H    -3.31401  -0.93767   2.00528
H    -2.35514   0.32062   2.83459
H    -0.75652  -2.85476  -2.13410
H    -2.37712  -2.39026  -2.77625
H    -1.01724  -1.20696  -2.75207
H    -1.51593   1.41267  -1.27418
H     1.51628   1.67970  -0.78599
