45
Generated by autodE on: 2022-06-21. E = -1034.863038 Ha
C     1.55352   3.68063  -0.33381
C     0.37910   2.97179   0.28648
O    -0.00552   3.24046   1.41169
C    -0.36981   1.93476  -0.58774
C    -1.18295   2.71003  -1.62006
O     0.60802   1.12370  -1.27719
C     0.73446  -0.16953  -0.66285
C     2.18424  -0.56076  -0.52832
C     2.64512  -1.75721  -1.09200
C     3.98025  -2.14751  -0.94493
C     4.87103  -1.33686  -0.23624
C     4.42006  -0.13604   0.32515
C     3.08577   0.24846   0.18145
C    -0.03898  -0.02976   0.66961
C    -1.15930   0.94407   0.28294
C    -2.30871   0.23691  -0.44881
C    -2.68545  -1.04719   0.25029
C    -4.00205  -1.67564   0.09926
N    -4.87647  -1.07008  -0.74787
O    -4.33933  -2.71784   0.70133
C    -1.75988  -1.70131   1.01518
N    -0.50383  -1.26345   1.26317
C     0.46745  -2.09942   1.94758
H     2.24761   4.00243   0.45439
H     1.17212   4.58452  -0.83956
H     2.06516   3.06421  -1.08127
H    -1.67719   2.01761  -2.31422
H    -0.52966   3.37227  -2.20609
H    -1.94680   3.32471  -1.12114
H     0.22045  -0.91564  -1.29211
H     1.94786  -2.38907  -1.64833
H     4.32523  -3.08454  -1.38859
H     5.91524  -1.63746  -0.12161
H     5.11209   0.50205   0.88008
H     2.74163   1.18328   0.62882
H     0.62350   0.45930   1.40028
H    -1.54560   1.45248   1.17434
H    -3.16424   0.92788  -0.49249
H    -2.02760   0.03351  -1.49739
H    -4.62430  -0.27244  -1.31693
H    -5.77702  -1.50929  -0.90208
H    -2.02801  -2.64716   1.49072
H     1.11427  -2.64924   1.24318
H    -0.05511  -2.82786   2.58246
H     1.11377  -1.47617   2.58411
