25
Generated by autodE on: 2022-06-21. E = -577.060971 Ha
C    -2.51089   0.47549   1.89111
C    -3.05703  -0.09085   0.59209
O    -4.28686  -0.27580   0.44911
C    -2.13665  -0.40195  -0.45024
C    -2.48140  -0.95673  -1.77642
O    -0.84837  -0.15088  -0.15949
C     0.18977  -0.33254  -0.91111
C     1.48777   0.00041  -0.40461
C     1.68330   0.52659   0.89547
C     2.96567   0.83244   1.33831
C     4.07493   0.62400   0.50539
C     3.89183   0.10392  -0.78169
C     2.61278  -0.20632  -1.23662
H    -1.80022  -0.22056   2.36371
H    -3.35009   0.65487   2.57608
H    -1.97449   1.42210   1.72032
H    -2.16324  -0.28653  -2.59827
H    -1.98834  -1.93185  -1.95486
H    -3.56812  -1.09418  -1.83174
H     0.05267  -0.73799  -1.91580
H     0.82152   0.68972   1.54498
H     3.10773   1.23808   2.34268
H     5.07889   0.86688   0.86044
H     4.75317  -0.06014  -1.43313
H     2.46707  -0.61272  -2.24038
