25
Generated by autodE on: 2022-07-27. E = -577.060941 Ha
C    -1.16254   2.88551   0.59349
C    -2.35653   2.01648   0.23791
O    -3.51044   2.50156   0.22401
C    -2.12473   0.64606  -0.07629
C    -3.15482  -0.34860  -0.44394
O    -0.83627   0.26691  -0.02258
C    -0.33348  -0.90319  -0.25396
C     1.08321  -1.08784  -0.14491
C     1.62257  -2.36939  -0.40371
C     2.99485  -2.58799  -0.31085
C     3.85338  -1.53923   0.04056
C     3.32819  -0.26465   0.29982
C     1.95976  -0.03373   0.21003
H    -1.51998   3.90144   0.80770
H    -0.43590   2.92441  -0.23320
H    -0.63172   2.49497   1.47584
H    -3.17475  -1.20056   0.26278
H    -4.13730   0.13908  -0.43826
H    -2.97291  -0.77558  -1.44908
H    -1.00073  -1.72319  -0.52832
H     0.95104  -3.18648  -0.67802
H     3.40007  -3.58197  -0.51347
H     4.92937  -1.71271   0.11263
H     3.99706   0.55445   0.57402
H     1.55337   0.95894   0.41138
