20
Generated by autodE on: 2022-06-21. E = -457.715323 Ha
C    -3.02971   0.92880  -0.22857
N    -1.82460   0.12955  -0.07995
C    -1.91073  -1.26649  -0.15099
C    -0.83014  -2.06222  -0.11551
C     0.57868  -1.53522   0.00349
C     0.57506  -0.01567   0.04380
C     1.82813   0.75040   0.14090
N     2.97053   0.02057   0.19637
O     1.87189   1.99708   0.17240
C    -0.58711   0.69483  -0.00313
H    -3.80254   0.59773   0.48213
H    -2.79668   1.98143  -0.02406
H    -3.44244   0.85205  -1.24891
H    -2.92540  -1.65996  -0.23446
H    -0.97911  -3.14313  -0.16854
H     1.19697  -1.90758  -0.83896
H     1.06552  -1.95437   0.90818
H     3.85648   0.50952   0.26271
H     2.97617  -0.99104   0.17616
H    -0.55974   1.78534   0.02551
