45
Generated by autodE on: 2022-06-21. E = -1034.778132 Ha. Imaginary frequency = -362.3 cm-1
C     0.75120   3.71326   0.02585
C    -0.37930   2.94578  -0.62322
O    -1.49098   3.47363  -0.80062
C    -0.16030   1.55695  -0.96057
C    -1.02531   0.83363  -1.93840
O     1.11224   1.14978  -0.78462
C     1.43221  -0.13177  -0.75443
C     2.77498  -0.46678  -0.34139
C     3.26988  -1.77022  -0.56310
C     4.54555  -2.12682  -0.12972
C     5.35397  -1.19365   0.53071
C     4.87286   0.10326   0.75466
C     3.59760   0.46720   0.32863
C    -0.07467  -0.54577   1.11126
C    -0.80302   0.63324   1.10330
C    -2.30867   0.64460   0.96812
C    -2.82516  -0.70026   0.49812
C    -4.22384  -0.89024   0.08782
N    -5.02046   0.20679   0.15053
O    -4.68355  -1.98354  -0.30212
C    -2.01086  -1.79323   0.48157
N    -0.69778  -1.77831   0.84372
C     0.12529  -2.95912   0.64157
H     1.05958   3.23622   0.96966
H     0.41604   4.73850   0.22991
H     1.63631   3.73583  -0.62856
H    -1.29678  -0.18277  -1.62474
H    -0.49891   0.75568  -2.90813
H    -1.94866   1.40477  -2.09089
H     0.84503  -0.82771  -1.35427
H     2.64290  -2.49885  -1.08107
H     4.91465  -3.13916  -0.31056
H     6.35342  -1.47502   0.87006
H     5.49903   0.83562   1.27002
H     3.22456   1.47644   0.51125
H     0.87610  -0.61781   1.63541
H    -0.34836   1.48307   1.61122
H    -2.75787   0.91112   1.94721
H    -2.61989   1.45926   0.29007
H    -4.67986   1.11193   0.44771
H    -5.98770   0.12308  -0.14185
H    -2.40420  -2.76097   0.16615
H    -0.46154  -3.86138   0.86059
H     0.98944  -2.92940   1.31972
H     0.49924  -3.02535  -0.39356
