35
Generated by autodE on: 2022-10-24. E = -932.864930 Ha
C     4.09061   0.82933  -2.08069
N     3.55163   0.45466  -0.78939
C     2.23402   0.19131  -0.62632
O     1.42576   0.34850  -1.56155
C     1.81844  -0.30646   0.69227
C     2.78635  -0.67132   1.64235
N     3.63811  -0.94687   2.39848
N     0.48925  -0.62818   0.93391
C     0.24633  -1.76119   1.85203
C    -0.52802   0.00571   0.35804
C    -0.34106   1.41881  -0.10241
O     0.37053   2.23294   0.45342
O    -1.13523   1.70894  -1.13010
C    -1.06866   3.05170  -1.63075
C    -1.85424  -0.61292   0.22491
C    -3.01668   0.11739   0.54205
C    -4.27480  -0.46509   0.40101
C    -4.39475  -1.77727  -0.07092
C    -3.24741  -2.50490  -0.40290
C    -1.98535  -1.93022  -0.25668
H     3.48071   1.62446  -2.53312
H     5.11371   1.20144  -1.94389
H     4.11737  -0.01966  -2.78531
H     4.20207   0.22725  -0.04457
H     0.54993  -2.70212   1.37655
H     0.85295  -1.59868   2.75188
H    -0.80749  -1.79206   2.13623
H    -1.35164   3.76984  -0.84808
H    -0.05037   3.27164  -1.98247
H    -1.77842   3.09733  -2.46440
H    -2.92933   1.13992   0.91431
H    -5.16769   0.10745   0.66155
H    -5.38240  -2.22965  -0.18547
H    -3.33532  -3.52424  -0.78529
H    -1.09501  -2.49552  -0.53635
