31
Generated by autodE on: 2022-10-24. E = -618.602863 Ha
C    -1.51970   3.09660  -0.88575
O    -0.59729   2.06894  -0.53110
C    -1.01376   0.78417  -0.56899
C    -0.23764  -0.30882  -0.31190
C     1.16884  -0.38005   0.07353
C     2.05645   0.70934  -0.10075
C     3.39613   0.61498   0.27456
C     3.89894  -0.56331   0.83960
C     3.03748  -1.64972   1.02094
C     1.69637  -1.56208   0.64273
C    -1.21888  -1.48170  -0.24328
C    -2.03255  -1.31403   1.07856
C    -2.88259  -0.04018   0.79581
C    -2.46362   0.34162  -0.66428
C    -2.27101  -1.05391  -1.28303
H    -0.96889   4.04307  -0.81051
H    -1.88209   2.97044  -1.91845
H    -2.37760   3.12325  -0.19573
H     1.68468   1.63386  -0.54048
H     4.05713   1.47250   0.12295
H     4.94883  -0.63298   1.13373
H     3.41190  -2.57717   1.46212
H     1.04478  -2.42320   0.79875
H    -0.77436  -2.47531  -0.37887
H    -1.36925  -1.20393   1.94842
H    -2.67535  -2.19045   1.25382
H    -3.96087  -0.25722   0.83043
H    -2.68201   0.77990   1.50006
H    -3.15078   1.02957  -1.16889
H    -1.87596  -1.01931  -2.30888
H    -3.18704  -1.66462  -1.25483
