66
Generated by autodE on: 2022-10-24. E = -1551.433053 Ha. Imaginary frequency = -256.2 cm-1
C    -2.07617   3.75316   1.97846
N    -1.29140   3.30068   0.85040
C    -0.35726   2.32276   0.93928
O    -0.05137   1.80287   2.02183
C     0.27022   1.90324  -0.33125
C     0.00788   2.71773  -1.46283
N    -0.27481   3.36474  -2.39404
N     1.43048   1.13408  -0.41048
C     2.49177   1.68211  -1.28028
C     1.56431  -0.11235   0.19710
C     1.52137  -0.10053   1.72352
O     0.95733  -0.87385   2.46553
O     2.43964   0.78210   2.15761
C     2.59784   0.88903   3.57581
C     2.64092  -1.03057  -0.27730
C     2.90637  -1.23259  -1.65008
C     3.87727  -2.13727  -2.07829
C     4.61689  -2.87690  -1.15267
C     4.37544  -2.69079   0.21166
C     3.41057  -1.78240   0.64164
C    -0.47529  -1.12080  -0.43854
O    -0.72488  -2.00408   0.56595
C     0.03957  -3.20191   0.62225
C    -0.22507  -1.66528  -1.84478
C    -1.58063  -2.30999  -2.27896
C    -2.50258  -1.07613  -2.49397
C    -1.57316   0.11873  -2.11247
C    -0.24150  -0.38243  -2.68467
C    -1.35858   0.00013  -0.60475
C    -2.42226   0.37355   0.32545
C    -2.41283   0.01066   1.69259
C    -3.46729   0.36194   2.53566
C    -4.55857   1.08750   2.04960
C    -4.57620   1.47630   0.70507
C    -3.52286   1.13306  -0.13935
H    -3.14244   3.51866   1.83778
H    -1.72297   3.24824   2.88440
H    -1.97286   4.84129   2.11702
H    -1.56200   3.63350  -0.06879
H     2.59525   2.75265  -1.06235
H     3.44152   1.19255  -1.04822
H     2.27720   1.56259  -2.35228
H     2.92273  -0.06982   4.00626
H     3.36587   1.65447   3.73865
H     1.65106   1.19686   4.04196
H     2.34961  -0.68699  -2.40531
H     4.04997  -2.26580  -3.14922
H     5.37394  -3.58847  -1.48956
H     4.94655  -3.25429   0.95298
H     3.25462  -1.67714   1.71448
H    -0.23245  -3.88977  -0.19415
H    -0.19897  -3.67685   1.58293
H     1.11622  -2.99813   0.58053
H     0.63900  -2.32943  -1.94661
H    -1.96700  -3.00100  -1.51777
H    -1.43635  -2.87878  -3.20907
H    -2.80933  -0.98032  -3.54643
H    -3.41238  -1.10732  -1.87975
H    -1.91944   1.09351  -2.47137
H     0.59445   0.29357  -2.50349
H    -0.29845  -0.58918  -3.76306
H    -1.57015  -0.54373   2.09357
H    -3.43299   0.06572   3.58700
H    -5.38378   1.35667   2.71298
H    -5.41519   2.05580   0.31251
H    -3.55648   1.45483  -1.17997
