38
Generated by autodE on: 2022-10-26. E = -843.773597 Ha
C     1.42025  -1.05600   4.72482
N     1.07052  -0.82107   3.33747
C     1.27163  -1.81485   2.40341
O     1.72642  -2.92448   2.75259
C     0.88911  -1.52852   1.03091
C     1.26110  -2.46143  -0.06451
N     0.09082  -0.45291   0.81439
C    -0.30536   0.18684  -0.30173
C     0.47679   0.11897  -1.54328
C     1.88547   0.19070  -1.51610
C     2.62468   0.18903  -2.70005
C     1.97839   0.10862  -3.93739
C     0.58047   0.03622  -3.97966
C    -0.16142   0.04486  -2.79967
C    -1.49311   1.03488  -0.17746
C    -1.67486   2.16765  -1.00578
C    -2.77635   3.00439  -0.84483
C    -3.73021   2.74542   0.14830
C    -3.56972   1.62877   0.97350
C    -2.47569   0.77784   0.80803
H     2.50472  -1.20957   4.86804
H     0.90420  -1.94877   5.10608
H     1.10805  -0.18972   5.32282
H     1.12915   0.14230   3.02416
H     2.13557  -2.13113  -0.65563
H     1.50290  -3.43874   0.37419
H     0.43003  -2.57895  -0.77930
H    -0.35285  -0.09922   1.66750
H     2.40267   0.27152  -0.55806
H     3.71444   0.25470  -2.65429
H     2.55888   0.10217  -4.86276
H     0.06492  -0.03262  -4.94065
H    -1.25027  -0.01814  -2.84378
H    -0.93052   2.40250  -1.76744
H    -2.88664   3.87655  -1.49398
H    -4.59243   3.40462   0.27116
H    -4.31322   1.40354   1.74197
H    -2.40495  -0.11599   1.43235
