38
Generated by autodE on: 2022-10-24. E = -772.463615 Ha
C    -2.85605   0.75092  -3.05975
O    -2.79998  -0.26819  -2.07219
C    -1.50289  -0.69229  -1.70949
O    -0.80686  -1.21312  -2.82562
C    -1.36707  -2.37311  -3.42925
C    -0.69610   0.41474  -1.15633
C    -0.20175   1.06695  -0.26116
C     0.19628   1.48399   1.07837
C     1.63302   1.11801   1.42860
C     2.27099   1.80922   2.47056
C     3.56535   1.46726   2.86791
C     4.24433   0.42490   2.22685
C     3.61834  -0.26704   1.18670
C     2.32172   0.07778   0.78986
C    -0.83026   0.79604   2.03905
C    -1.06054  -0.71273   1.81979
C    -2.13882  -1.15461   0.78948
C    -1.67888  -1.72025  -0.57026
H    -3.91681   0.99383  -3.20892
H    -2.32179   1.65882  -2.72845
H    -2.42274   0.41534  -4.01581
H    -2.45053  -2.26223  -3.59503
H    -0.87036  -2.49211  -4.40233
H    -1.18591  -3.27973  -2.82817
H     0.08809   2.57295   1.20173
H     1.74480   2.62511   2.97354
H     4.04798   2.01897   3.67840
H     5.25786   0.15711   2.53486
H     4.14102  -1.08017   0.67695
H     1.84321  -0.46254  -0.02917
H    -1.79095   1.32850   1.94743
H    -0.47002   0.96721   3.06561
H    -0.10062  -1.20723   1.59239
H    -1.36829  -1.11656   2.79692
H    -2.85429  -0.33391   0.61511
H    -2.72638  -1.95471   1.26535
H    -0.72024  -2.25047  -0.45847
H    -2.42061  -2.45312  -0.92219
