16
Generated by autodE on: 2022-05-30. E = -380.198947 Ha
C     2.35192  -1.25382  -0.75298
N     1.62584  -0.36583  -0.33140
C     0.80226   0.57343  -0.03170
C     1.24997   1.99822   0.11013
C    -0.63718   0.25773   0.17849
O    -1.42819   1.15897   0.49718
N    -1.02928  -1.02171   0.00548
C    -2.41609  -1.41256   0.15479
H     2.91797  -1.87845  -0.03934
H     1.05126   2.36884   1.12875
H     2.32448   2.08969  -0.09644
H     0.69505   2.64705  -0.58677
H    -0.35295  -1.71772  -0.28805
H    -3.06046  -0.91998  -0.59224
H    -2.79750  -1.14782   1.15349
H    -2.49483  -2.49870   0.02436
