25
Generated by autodE on: 2022-05-30. E = -668.367366 Ha
C     3.79451   0.49308   0.27485
N     2.37432   0.53811  -0.00053
C     1.64764  -0.58591  -0.07909
O     2.13415  -1.72452   0.02756
C     0.18804  -0.44960  -0.31879
C    -0.73405   0.53195  -0.16187
C    -0.61190   1.92836   0.28856
C    -1.87437   2.59954   0.74677
O     0.46497   2.52800   0.28861
C    -2.09231  -0.19090  -0.40578
C    -2.31207  -1.14936   0.78588
C    -1.39333  -2.10605   0.62764
C    -0.63580  -1.71265  -0.65886
O    -1.69280  -1.11655  -1.42554
H     4.20243   1.50943   0.21322
H     4.00263   0.08735   1.27932
H     4.31512  -0.14483  -0.45615
H     1.86636   1.42959   0.00157
H    -1.64468   3.58354   1.17425
H    -2.39614   1.97188   1.48758
H    -2.55927   2.71882  -0.10934
H    -2.93487   0.43291  -0.71811
H    -3.03611  -0.99605   1.58503
H    -1.14466  -2.95609   1.26140
H    -0.10547  -2.50019  -1.20144
