41
Generated by autodE on: 2022-05-30. E = -1048.580487 Ha. Imaginary frequency = -76.2 cm-1
C     2.70610   1.09667  -3.16570
N     2.81856   0.85768  -1.73934
C     1.90997   1.35435  -0.87480
O     1.02089   2.14680  -1.23828
C     2.00870   0.88241   0.52705
C     3.08960  -0.01489   1.05497
N     1.12383   1.38987   1.32580
C     0.08118   1.64562   1.87153
C    -1.20408  -0.33574   0.72508
C    -2.24117   0.59266   0.20956
O    -3.42604   0.37728   0.52090
N    -1.85466   1.62895  -0.54860
C    -2.81304   2.53082  -1.15233
C    -1.40940  -1.04390   2.08884
C    -2.02897  -2.42397   1.78915
C    -1.04709  -3.12244   1.20851
C     0.14859  -2.14783   1.15634
O    -0.05331  -1.41582   2.37518
C    -0.22760  -1.06302   0.10569
C     0.17284  -1.12127  -1.30305
C     1.19146  -2.17212  -1.66892
O    -0.30653  -0.38029  -2.16303
H     1.75018   0.71557  -3.55853
H     3.53171   0.58549  -3.67556
H     2.76351   2.17246  -3.39116
H     3.45962   0.13927  -1.42194
H     3.14929  -0.94561   0.46842
H     4.07915   0.47064   1.01358
H     2.87539  -0.28733   2.09637
H    -0.18320   2.51672   2.48355
H    -0.86850   1.70776  -0.80981
H    -3.36147   2.05325  -1.98279
H    -3.55170   2.86723  -0.40956
H    -2.27887   3.40618  -1.54369
H    -1.86045  -0.44192   2.88294
H    -3.06971  -2.69162   1.96679
H    -1.06191  -4.12346   0.77853
H     1.15445  -2.57352   1.09746
H     0.79656  -3.17522  -1.43614
H     1.42610  -2.11016  -2.73916
H     2.11085  -2.04666  -1.07661
