43
Generated by autodE on: 2022-06-03. E = -2395.438760 Ha
C    -2.44033   3.28145   1.74850
O    -1.93816   2.00956   1.30801
C    -2.35059   1.58128   0.12353
O    -3.14439   2.16989  -0.57871
C    -1.73761   0.24096  -0.29808
N    -1.33334  -0.59968   0.80633
C    -2.46417  -1.22626   1.48007
C    -0.16236  -1.39697   0.48399
C    -0.59255  -2.72068  -0.26814
C     0.11046  -4.01770  -0.00422
O    -1.56491  -2.65322  -0.99031
C     0.64174  -1.74813   1.77710
C     2.06967  -2.22506   1.68128
O     0.10289  -1.65739   2.86135
C     0.65615  -0.43398  -0.46189
Cl    1.61679  -1.40981  -1.65450
C     1.59465   0.48998   0.32778
C     1.13805   1.09069   1.51266
C     1.96582   1.94686   2.24019
C     3.25870   2.23001   1.79409
C     3.71304   1.64965   0.60757
C     2.88819   0.78970  -0.12020
C    -0.48499   0.39280  -1.21502
Cl    0.01394   2.11410  -1.46464
Cl   -0.88673  -0.23348  -2.85204
H    -3.53697   3.25653   1.81591
H    -2.13015   4.07062   1.04880
H    -1.99903   3.45235   2.73669
H    -2.52581  -0.23110  -0.90517
H    -3.13366  -1.74866   0.77237
H    -2.10954  -1.93993   2.22930
H    -3.04997  -0.45231   1.99985
H    -0.35666  -4.80585  -0.60844
H     1.18149  -3.95498  -0.23777
H     0.01851  -4.27311   1.06439
H     2.68184  -1.55535   2.30336
H     2.47773  -2.24518   0.66709
H     2.12870  -3.23064   2.12413
H     0.12625   0.90092   1.86026
H     1.58913   2.39729   3.16126
H     3.90631   2.89986   2.36431
H     4.71917   1.86322   0.23988
H     3.26498   0.35041  -1.04180
