27
Generated by autodE on: 2022-07-27. E = -706.737632 Ha
C    -3.90456   1.92339   0.09681
O    -2.65926   1.20511   0.15504
C    -1.69324   1.62141  -0.65155
O    -1.79692   2.54331  -1.43711
C    -0.42242   0.85321  -0.57606
N     0.01967   0.13101   0.41098
C    -0.70082  -0.00632   1.69374
C     1.11527  -0.74740   0.16660
C     0.95977  -1.55980  -1.02620
C     1.86412  -2.75053  -1.27009
O     0.06150  -1.33804  -1.85960
C     2.18213  -0.68411   1.13809
C     3.36390  -1.62776   1.09134
O     2.16166   0.18876   2.02842
H    -4.33208   1.85686  -0.91358
H    -3.74571   2.97778   0.36316
H    -4.56275   1.43779   0.82537
H     0.22827   0.99413  -1.43571
H    -0.03674  -0.49171   2.40942
H    -1.59179  -0.62474   1.52744
H    -0.99891   0.97975   2.06480
H     1.94198  -3.40817  -0.39483
H     2.87883  -2.41896  -1.53558
H     1.44989  -3.31341  -2.11628
H     3.90430  -1.56041   0.13659
H     4.04413  -1.34723   1.90602
H     3.05489  -2.67423   1.22669
