16
Generated by autodE on: 2022-06-03. E = -1688.667516 Ha
Cl   -1.00287   1.70277  -1.29624
C    -1.34354   0.39218  -0.20771
Cl   -3.02927   0.15991   0.11196
C    -0.37107  -0.38655   0.31059
Cl   -0.82953  -1.75312   1.30785
C     1.08386  -0.21031   0.10858
C     1.69937   1.02433   0.37548
C     3.07493   1.17736   0.19336
C     3.84947   0.10305  -0.25441
C     3.24371  -1.13143  -0.51198
C     1.87057  -1.29151  -0.32576
H     1.10055   1.86204   0.73556
H     3.54384   2.13997   0.40938
H     4.92557   0.22537  -0.39719
H     3.84386  -1.97560  -0.85882
H     1.40154  -2.25803  -0.51940
