43
Generated by autodE on: 2022-06-20. E = -1046.807949 Ha
C    -0.06037   3.02976   0.19082
N     0.69741   1.78877   0.15210
C     1.83165   1.63244   0.87301
C     2.55544   0.47652   0.95842
C     3.76024   0.48724   1.79602
N     4.40870  -0.69733   1.94928
O     4.19413   1.51578   2.35575
C     2.07403  -0.76393   0.25054
C     1.18331  -0.39260  -0.94473
C     0.14020   0.67405  -0.57867
C    -0.94068  -0.16282   0.14047
C    -2.26137   0.54440   0.33289
C    -3.03217   0.95298  -0.76571
C    -4.22235   1.65660  -0.57234
C    -4.65786   1.96118   0.72288
C    -3.89815   1.55245   1.82244
C    -2.70809   0.84474   1.62570
N    -1.04086  -1.31333  -0.75943
C    -1.83488  -2.44403  -0.32088
C     0.25466  -1.57593  -1.39279
C     0.08343  -1.57724  -2.86810
N    -0.08132  -1.54320  -4.01547
C     0.83920  -2.88920  -1.02705
N     1.25542  -3.93236  -0.74027
H    -0.45161   3.26089  -0.81137
H     0.59749   3.84952   0.50888
H    -0.91419   2.97461   0.88541
H     2.17749   2.52185   1.40367
H     5.21710  -0.72654   2.56055
H     4.04763  -1.57019   1.58625
H     1.52396  -1.42062   0.94802
H     2.91922  -1.35855  -0.12706
H     1.80998  -0.06367  -1.78261
H    -0.30804   1.06824  -1.50332
H    -0.56056  -0.45310   1.13859
H    -2.69660   0.72016  -1.77826
H    -4.81345   1.97108  -1.43592
H    -5.58913   2.51259   0.87303
H    -4.23319   1.78172   2.83686
H    -2.11220   0.52561   2.48454
H    -2.84317  -2.09204  -0.06098
H    -1.93436  -3.17381  -1.13804
H    -1.40817  -2.95765   0.56267
