20
Generated by autodE on: 2022-06-20. E = -457.715337 Ha
C    -3.02046  -0.97895   0.10050
N    -1.82303  -0.16700  -0.04136
C    -1.91525   1.10120  -0.62863
C    -0.83913   1.86212  -0.88385
C     0.57108   1.42954  -0.56625
C     0.57400   0.03586   0.04037
C     1.82983  -0.62531   0.42948
N     2.96679   0.08145   0.20966
O     1.88010  -1.76601   0.93321
C    -0.58363  -0.65159   0.25179
H    -3.81014  -0.41414   0.61932
H    -3.41115  -1.29905  -0.88052
H    -2.78564  -1.87301   0.69174
H    -2.93097   1.42679  -0.86056
H    -0.99314   2.84410  -1.33704
H     1.04821   2.16037   0.11886
H     1.19534   1.46407  -1.48250
H     3.85557  -0.33702   0.46099
H     2.96400   1.00929  -0.19413
H    -0.55100  -1.65234   0.68557
