23
Generated by autodE on: 2022-07-27. E = -589.047682 Ha
C    -0.31032  -1.27350  -1.51354
N     0.57377  -0.73493  -0.46626
C     0.16441   0.14057   0.42279
C    -1.09603   0.85515   0.49736
C    -1.91793   1.19408  -0.60172
C    -3.09083   1.92028  -0.40317
C    -3.47026   2.32355   0.88160
C    -2.65359   2.01639   1.97566
C    -1.47345   1.30348   1.78512
C     1.89543  -1.23670  -0.46315
C     2.29123  -2.23348  -1.36644
N     2.66712  -3.06030  -2.10748
C     2.83999  -0.71762   0.43466
N     3.62955  -0.28252   1.18293
H    -1.35014  -1.20064  -1.18628
H    -0.06083  -2.32803  -1.67196
H    -0.16233  -0.72121  -2.45092
H     0.87969   0.35278   1.22097
H    -1.62841   0.93085  -1.61739
H    -3.71014   2.18246  -1.26371
H    -4.39330   2.88897   1.02780
H    -2.93509   2.34077   2.97977
H    -0.82965   1.07375   2.63721
