43
Generated by autodE on: 2022-06-20. E = -1046.746224 Ha. Imaginary frequency = -457.3 cm-1
C    -0.16375   2.81069   0.60037
N     0.73200   1.78954   0.07868
C     1.86915   1.47984   0.75543
C     2.74927   0.50745   0.38144
C     3.92460   0.28706   1.23165
N     4.83604  -0.61359   0.78218
O     4.10888   0.88093   2.31503
C     2.53123  -0.26109  -0.90317
C     1.10624  -0.12843  -1.38418
C     0.25352   0.89575  -0.91991
C    -1.29122  -0.19289   0.03892
C    -2.54478   0.59176   0.08976
C    -3.14963   1.13884  -1.05632
C    -4.30539   1.91412  -0.94526
C    -4.87365   2.15776   0.30906
C    -4.27532   1.62699   1.45683
C    -3.11707   0.85697   1.34789
N    -1.21206  -1.40168  -0.60420
C    -2.04277  -1.70510  -1.76712
C     0.06802  -1.96830  -0.57445
C     0.42231  -2.95785  -1.53243
N     0.78389  -3.72305  -2.33454
C     0.72879  -2.08853   0.68463
N     1.29737  -2.16874   1.69868
H    -0.81385   3.17533  -0.20646
H     0.42575   3.65560   0.98198
H    -0.80383   2.43325   1.41387
H     2.06746   2.07640   1.64777
H     5.65258  -0.80247   1.35268
H     4.73253  -1.10839  -0.09413
H     2.79288  -1.32758  -0.78120
H     3.21028   0.10421  -1.70143
H     0.89987  -0.50164  -2.38785
H    -0.42740   1.36211  -1.63435
H    -0.72893  -0.18197   0.97634
H    -2.70253   0.97861  -2.03820
H    -4.76048   2.33643  -1.84405
H    -5.77705   2.76636   0.39248
H    -4.71015   1.81728   2.44074
H    -2.64245   0.45219   2.24490
H    -3.07406  -1.39649  -1.56951
H    -1.67320  -1.18793  -2.66776
H    -2.03445  -2.78694  -1.94460
