53
Generated by autodE on: 2022-06-10. E = -4678.677588 Ha
C    -4.14406   3.29341  -3.46298
N    -2.94715   3.53248  -2.68584
C    -1.75464   3.00236  -2.97294
O    -1.54940   2.17029  -3.86230
C    -0.57668   3.50180  -2.08240
C    -0.30910   2.50598  -0.91369
C    -1.38273   1.51836  -0.57277
O     0.73006   2.58267  -0.29567
C     0.61715   3.78331  -3.02711
C     0.46016   5.09076  -3.40688
N    -0.54625   5.70875  -2.66226
C    -1.63871   6.46590  -3.19755
C    -2.22867   6.13340  -4.42226
C    -3.30866   6.87877  -4.90046
C    -3.81909   7.94137  -4.14956
C    -3.23841   8.25939  -2.91649
C    -2.14593   7.53147  -2.44383
N    -0.90730   4.84753  -1.55995
C    -0.19872   5.30185  -0.35976
C     1.22036   5.87380  -4.47253
Cl    2.99596   5.86660  -4.00981
Cl    0.81012   7.65246  -4.41643
C     0.98643   5.38150  -5.93034
C     0.36855   3.99198  -6.14396
C     1.27880   2.77107  -5.99158
C     2.25563   2.78424  -4.81752
C     1.62754   2.76674  -3.40901
Br    3.32219   2.89253  -2.13299
C     1.18957   1.40195  -3.11481
N     0.90727   0.29172  -2.92843
H    -4.41074   4.18642  -4.05144
H    -4.98848   3.04304  -2.80372
H    -3.96538   2.45629  -4.14854
H    -2.93486   4.28113  -1.99629
H    -2.30570   2.05740  -0.30758
H    -1.05462   0.89641   0.26909
H    -1.61366   0.88591  -1.44275
H    -1.85768   5.28460  -4.99463
H    -3.76026   6.61465  -5.85931
H    -4.66829   8.51882  -4.52156
H    -3.63014   9.08923  -2.32389
H    -1.67283   7.79258  -1.49629
H     0.89844   5.23942  -0.45752
H    -0.48842   6.34494  -0.18144
H    -0.52162   4.70906   0.50478
H     1.93260   5.49166  -6.47957
H     0.28708   6.10564  -6.36634
H    -0.01793   3.99239  -7.17531
H    -0.51646   3.88105  -5.50477
H     1.90656   2.67988  -6.89328
H     0.65353   1.86413  -5.95652
H     2.91063   3.65593  -4.88957
H     2.91009   1.90415  -4.88344
