32
Generated by autodE on: 2022-07-27. E = -781.341143 Ha
C    -2.51067  -1.78560  -0.48169
N    -1.43743  -1.37453   0.39947
C    -0.17746  -1.22159  -0.04878
O     0.15494  -1.51564  -1.20436
C     0.81983  -0.68215   0.93137
C     0.98632  -1.23877   2.26463
C     0.28885  -2.54228   2.59944
O     1.67734  -0.68974   3.13439
N     1.66693   0.29170   0.46945
C     3.02150   0.45079   1.05060
N     1.47689   1.09003  -0.52570
C     0.19233   1.34678  -1.01603
C     0.05033   1.47462  -2.40965
C    -1.18076   1.82267  -2.96348
C    -2.27928   2.07734  -2.13544
C    -2.13285   1.98628  -0.74567
C    -0.91340   1.61505  -0.18257
H    -3.40038  -2.01591   0.11772
H    -2.22029  -2.68113  -1.04898
H    -2.76218  -0.98781  -1.20267
H    -1.67562  -0.96978   1.29911
H     0.19228  -3.21758   1.73919
H     0.86552  -3.03217   3.39624
H    -0.72086  -2.34285   2.99395
H     3.64181   0.87299   0.25381
H     3.40840  -0.51528   1.38460
H     2.97284   1.14630   1.89563
H     0.91740   1.28139  -3.04368
H    -1.28199   1.90051  -4.04843
H    -3.24254   2.35548  -2.56849
H    -2.97982   2.20427  -0.09098
H    -0.81048   1.54791   0.90136
