21
Generated by autodE on: 2022-06-10. E = -3897.256204 Ha
N    -2.75644   2.10262  -2.04817
C    -1.99911   1.30914  -1.67156
C    -1.07911   0.28750  -1.17633
Br    0.03918  -0.24046  -2.78474
C    -0.18396   0.74780  -0.13659
C     0.46676   0.67614   0.88214
C     0.95665   0.08078   2.10509
Cl    2.71909   0.42921   2.36327
Cl    0.02555   0.78313   3.51034
C     0.72550  -1.43959   2.02210
C    -0.68765  -1.87264   1.58320
C    -0.97254  -2.01994   0.06207
C    -1.83955  -0.95486  -0.63381
H     0.96349  -1.85052   3.01414
H     1.47324  -1.83171   1.31530
H    -0.83944  -2.86387   2.03469
H    -1.43974  -1.21870   2.05364
H    -0.02843  -2.15182  -0.49139
H    -1.52068  -2.96386  -0.07193
H    -2.38668  -1.39353  -1.48068
H    -2.59359  -0.56386   0.06944
