53
Generated by autodE on: 2022-06-10. E = -4678.581122 Ha. Imaginary frequency = -239.2 cm-1
C    -4.57657   3.77378  -2.64428
N    -3.33075   3.99913  -1.93546
C    -2.14407   3.77252  -2.52504
O    -2.04298   3.22907  -3.62390
C    -0.94894   4.15260  -1.64705
C    -0.78422   3.26973  -0.45042
C    -1.29604   1.85583  -0.57814
O    -0.30204   3.66242   0.60340
C     0.77557   3.82984  -3.45010
C     0.88205   4.99614  -3.87864
N    -0.50492   6.19843  -2.70533
C    -1.73868   6.36971  -3.38442
C    -1.89343   6.13303  -4.75737
C    -3.08365   6.47885  -5.40110
C    -4.13838   7.05684  -4.69004
C    -3.99207   7.28562  -3.31739
C    -2.80287   6.95537  -2.66964
N    -0.44883   5.41448  -1.65504
C     0.68380   5.77085  -0.77354
C     1.70299   5.88822  -4.71453
Cl    3.34951   6.01030  -3.88868
Cl    1.08583   7.60040  -4.83008
C     1.87195   5.38577  -6.15684
C     2.67734   4.11052  -6.42199
C     2.14405   2.75637  -5.93095
C     2.51932   2.37595  -4.48418
C     1.34192   2.48453  -3.49047
Br    2.11625   2.03867  -1.65021
C     0.36665   1.42274  -3.74222
N    -0.33475   0.53246  -3.98839
H    -5.40824   4.10263  -2.00981
H    -4.70570   2.70560  -2.87723
H    -4.59905   4.33917  -3.58841
H    -3.34885   4.54163  -1.07712
H    -1.28078   1.47213  -1.60464
H    -0.70420   1.20691   0.07984
H    -2.34071   1.83605  -0.22705
H    -1.09722   5.64943  -5.31860
H    -3.18637   6.28067  -6.47066
H    -5.06823   7.32124  -5.19823
H    -4.80669   7.73449  -2.74409
H    -2.68268   7.15475  -1.60324
H     1.15582   6.64430  -1.23192
H     0.31164   6.01420   0.22679
H     1.39548   4.94035  -0.70849
H     2.34944   6.20456  -6.71349
H     0.85092   5.27813  -6.55756
H     3.70868   4.25046  -6.06021
H     2.75150   4.05662  -7.51972
H     2.57213   1.98321  -6.58560
H     1.05276   2.70004  -6.08158
H     3.31374   3.03392  -4.10609
H     2.89733   1.34506  -4.43926
