20
Generated by autodE on: 2022-06-29. E = -719.077998 Ha
C     2.89505   2.54902   0.74258
O     1.80227   1.65283   0.47072
C     2.12346   0.41720   0.11286
O     3.25154  -0.01893  -0.01052
C     0.93634  -0.42656  -0.13230
C     1.10200  -1.77742  -0.51566
N     1.27369  -2.88576  -0.83117
O    -0.22647   0.13325   0.03202
C    -1.47548  -0.22550  -0.06105
C    -1.87917  -1.53387  -0.42275
N    -2.25978  -2.59521  -0.71507
C    -2.47829   0.82113   0.23198
C    -1.95979   2.17667   0.60854
O    -3.66348   0.52987   0.15195
H     3.52303   2.66403  -0.15205
H     2.43454   3.50513   1.01382
H     3.50158   2.16425   1.57461
H    -1.33101   2.58033  -0.20078
H    -2.80773   2.84570   0.79892
H    -1.32280   2.10459   1.50418
