20
Generated by autodE on: 2022-07-27. E = -719.072825 Ha
C     1.93399  -3.59046  -0.24816
O     0.69639  -2.86009  -0.16505
C     0.78836  -1.54257  -0.02948
O     1.81977  -0.90084   0.00100
C    -0.53820  -0.93386   0.15590
C    -1.67901  -1.70341   0.48863
N    -2.61448  -2.34905   0.74492
O    -0.72462   0.35846   0.19585
C    -0.08610   1.45376  -0.10078
C     1.13174   1.53310  -0.82201
N     2.07154   1.74388  -1.47731
C    -0.79054   2.71241   0.25185
C    -2.12413   2.58874   0.92551
O    -0.24968   3.77619  -0.01310
H     2.52672  -3.43372   0.66418
H     2.50766  -3.26123  -1.12597
H     1.65160  -4.64406  -0.34659
H    -2.81523   1.99994   0.30193
H    -2.01611   2.05492   1.88313
H    -2.53167   3.59222   1.09843
