48
Generated by autodE on: 2022-06-29. E = -1521.144550 Ha. Imaginary frequency = -228.9 cm-1
C     1.80281  -3.44906  -2.09660
O     0.55700  -2.76717  -1.87876
C     0.57934  -1.44065  -1.95585
O     1.53885  -0.77604  -2.28595
C    -0.73672  -0.88103  -1.56223
C    -1.79687  -1.76878  -1.23087
N    -2.64774  -2.51639  -0.96246
O    -1.14241   0.34008  -1.85907
C    -0.48275   1.46387  -2.04030
C     0.62334   1.62067  -2.92335
N     1.45129   1.92106  -3.68457
C    -1.25189   2.69534  -1.69486
C    -2.57530   2.50247  -1.01957
O    -0.74750   3.78421  -1.92298
C     0.76960   1.31280   0.01296
C     0.30046   0.32123   0.57651
C     0.01812  -0.46231   1.78593
C     0.35840  -1.96334   1.58685
C    -0.35834  -3.01007   2.38298
O     1.25452  -2.23920   0.81423
C    -1.43793  -0.19378   2.22127
F    -2.33165  -0.71801   1.36675
F    -1.68598   1.12760   2.27939
F    -1.70821  -0.69248   3.43739
C     0.95903   0.07527   2.93134
C     2.44107   0.26969   2.56817
C     2.90040   1.69409   2.17153
C     3.02029   2.05068   0.68153
C     1.72191   2.42886  -0.05319
H     2.55902  -3.08512  -1.38825
H     2.14702  -3.28716  -3.12784
H     1.59516  -4.51078  -1.92471
H    -3.24059   1.88922  -1.64700
H    -3.02796   3.48340  -0.83004
H    -2.43519   1.96245  -0.07014
H    -0.37200  -2.75680   3.45248
H    -1.40553  -3.07097   2.04538
H     0.13167  -3.97845   2.22310
H     0.86592  -0.62932   3.77045
H     0.53664   1.03294   3.26931
H     3.00546  -0.00713   3.47133
H     2.74694  -0.45654   1.79863
H     2.26485   2.44090   2.68000
H     3.90812   1.82789   2.59598
H     3.69785   2.91461   0.58528
H     3.49781   1.21586   0.14126
H     1.95658   2.71029  -1.08991
H     1.25290   3.31226   0.41222
