33
Generated by autodE on: 2022-10-06. E = -1097.558601 Ha
C    -2.81854   2.08269  -1.29509
N    -2.14655   0.86328  -0.89424
C    -1.40904   0.80903   0.22060
O    -1.39506   1.69317   1.08032
C    -0.57086  -0.49630   0.39814
C    -1.42050  -1.37802   1.33228
C    -1.63947  -0.87135   2.73667
O    -2.06455  -2.32262   0.90463
C     0.82181  -0.11972   0.93583
C     1.54736  -1.32612   1.57874
O     0.80594  -2.22744   2.05784
O     2.79861  -1.30058   1.60933
C     1.50908   0.45210  -0.31427
C     1.44727   2.00270  -0.36370
O     2.10300   2.57143   0.54212
O     0.77389   2.54803  -1.27083
N     0.77507  -0.22811  -1.40440
C     0.67994   0.20852  -2.64838
N     0.61292   0.46359  -3.79011
N    -0.30525  -1.06275  -0.94225
C     0.09655  -2.46942  -1.06539
H    -2.08659   2.87677  -1.51880
H    -3.41751   1.88501  -2.19251
H    -3.48176   2.44174  -0.49489
H    -1.97004   0.12547  -1.57268
H    -2.55623  -0.25841   2.73545
H    -0.81701  -0.25916   3.11949
H    -1.80963  -1.73376   3.39493
H     0.75633   0.66010   1.70461
H     2.56781   0.15878  -0.31644
H     0.25298  -2.67181  -2.13479
H    -0.71647  -3.10514  -0.70448
H     1.02426  -2.71226  -0.52337
