23
Generated by autodE on: 2022-10-06. E = -642.459008 Ha
C     3.92860  -0.55056  -0.28522
N     2.58779  -0.29350   0.20261
C     1.54472  -0.21813  -0.63677
O     1.64379  -0.38517  -1.85767
C     0.23946   0.11943   0.03084
C     0.22142   1.09002   1.18596
C    -0.57999   2.35329   1.04692
O     0.93948   0.88226   2.15180
N    -0.91487  -0.39170  -0.34266
C    -1.08693  -1.29958  -1.49578
N    -1.98289  -0.10420   0.40773
C    -3.16380  -0.47946  -0.02912
N    -4.27585  -0.76044  -0.28548
H     4.24199   0.22109  -1.00591
H     4.61952  -0.54680   0.56586
H     3.98648  -1.52820  -0.78876
H     2.42214  -0.12872   1.19388
H     0.14533   3.18328   0.99847
H    -1.21606   2.36882   0.15480
H    -1.19475   2.49970   1.94738
H    -1.73586  -0.79169  -2.22230
H    -1.57698  -2.21164  -1.13339
H    -0.11980  -1.51436  -1.94899
