23
Generated by autodE on: 2022-10-13. E = -642.456896 Ha
C    -1.37067   2.89992   0.45919
N    -0.44086   1.79280   0.57975
C    -0.81074   0.53812   0.29829
O    -1.96661   0.18329   0.05705
C     0.28802  -0.50328   0.34371
C     0.60003  -1.12037   1.66388
C    -0.32184  -0.74743   2.79419
O     1.54958  -1.87331   1.83382
N     0.84204  -0.90902  -0.79305
C     1.78104  -2.05727  -0.84014
N     0.65828  -0.41818  -2.01094
C    -0.07579   0.64651  -2.24900
N    -0.66565   1.56917  -2.67458
H    -0.91361   3.79966   0.88811
H    -2.30194   2.67506   0.99780
H    -1.61519   3.08541  -0.60015
H     0.55079   1.98630   0.68987
H    -1.37234  -0.91591   2.51409
H    -0.06263  -1.34273   3.67823
H    -0.21423   0.32262   3.03001
H     1.34870  -2.91029  -0.30941
H     1.93066  -2.28186  -1.89866
H     2.72409  -1.77106  -0.36284
