10
Generated by autodE on: 2022-10-06. E = -455.051698 Ha
O     2.83888  -0.70132  -0.52712
C     1.97286   0.06523  -0.02005
O     2.20954   1.11879   0.63259
C     0.52849  -0.34128  -0.23036
C    -0.52859   0.34139   0.23026
C    -1.97289  -0.06523   0.02005
O    -2.83890   0.70125   0.52723
O    -2.20941  -1.11882  -0.63261
H     0.36232  -1.26078  -0.80214
H    -0.36244   1.26091   0.80200
