33
Generated by autodE on: 2022-10-06. E = -1097.502383 Ha. Imaginary frequency = -342.0 cm-1
C    -2.28244   3.05216   0.25510
N    -1.38839   1.91335   0.34352
C    -1.86164   0.68379   0.17475
O    -3.06471   0.43176  -0.00030
C    -0.94676  -0.54890   0.18167
C    -1.38123  -1.57994   1.18685
C    -2.02881  -1.05238   2.44098
O    -1.18884  -2.77590   1.03393
C     0.98809   0.04595   0.99688
C     1.42528  -1.22883   1.70593
O     1.09485  -1.32502   2.91833
O     2.08016  -2.08757   1.05402
C     1.65280   0.46481  -0.16697
C     1.87070   1.91558  -0.52650
O     2.70943   2.15570  -1.42636
O     1.17958   2.78434   0.09143
N     0.14903   0.14099  -1.62943
C     0.64113   0.01631  -2.84740
N     1.11135   0.03847  -3.92159
N    -0.50387  -0.89820  -1.06588
C    -0.10968  -2.26019  -1.44952
H    -1.70107   3.96579   0.43250
H    -3.08470   2.98703   1.00640
H    -2.75683   3.12081  -0.73820
H    -0.36873   2.12123   0.33116
H    -3.10732  -0.93167   2.25388
H    -1.88157  -1.78278   3.24584
H    -1.62717  -0.07474   2.73749
H     0.60630   0.82189   1.66290
H     2.35342  -0.23875  -0.62228
H    -0.93228  -2.95033  -1.25264
H     0.10801  -2.25112  -2.52455
H     0.78128  -2.56622  -0.88488
