42
Generated by autodE on: 2022-07-27. E = -1016.341539 Ha
C    -3.62642  -1.93153  -0.16685
O    -2.83460  -0.73957  -0.20949
C    -1.55108  -0.85208   0.18017
O    -1.06384  -1.93078   0.49815
C    -0.87922   0.45839   0.22041
C    -1.64243   1.70319   0.39743
C    -2.74031   1.76634   1.28080
C    -3.45119   2.95331   1.45182
C    -3.08386   4.10581   0.74784
C    -1.99782   4.05896  -0.13207
C    -1.28699   2.87163  -0.30827
N     0.48334   0.46738   0.20840
C     1.23083   1.40491   1.07350
C     1.13564  -0.44829  -0.54912
C     0.54664  -0.91727  -1.80939
C    -0.39362  -0.04143  -2.61518
O     0.89721  -2.00401  -2.28440
C     2.37800  -1.05988  -0.05822
C     3.46724  -1.29794  -0.92000
C     4.63686  -1.88280  -0.43743
C     4.74052  -2.24659   0.91074
C     3.66188  -2.02645   1.77318
C     2.48938  -1.44195   1.29340
H    -3.69119  -2.31787   0.86090
H    -3.19638  -2.70502  -0.81953
H    -4.62221  -1.64489  -0.52486
H    -3.02848   0.87882   1.84624
H    -4.29475   2.98112   2.14562
H    -3.64224   5.03482   0.88387
H    -1.70694   4.95034  -0.69281
H    -0.44922   2.84522  -1.00830
H     2.29091   1.37280   0.80643
H     1.09275   1.12983   2.12713
H     0.85540   2.42086   0.91965
H    -1.41038  -0.46328  -2.61355
H    -0.03049  -0.07010  -3.65444
H    -0.44569   0.99854  -2.27528
H     3.39646  -1.00884  -1.96962
H     5.47629  -2.05268  -1.11572
H     5.65825  -2.70553   1.28578
H     3.72951  -2.32131   2.82298
H     1.63766  -1.30177   1.96133
