42
Generated by autodE on: 2022-06-15. E = -1016.339008 Ha
C    -2.52976   3.38903   0.49810
O    -2.28769   2.03847   0.08512
C    -1.17243   1.46576   0.54433
O    -0.40580   2.02541   1.30785
C    -1.05476   0.04638   0.10950
C    -2.27134  -0.73957  -0.13681
C    -3.39539  -0.61998   0.70585
C    -4.54785  -1.36429   0.45940
C    -4.60566  -2.23571  -0.63441
C    -3.50076  -2.35495  -1.48374
C    -2.34452  -1.61449  -1.23979
N     0.16589  -0.50107   0.04054
C     0.33449  -1.95606   0.25044
C     1.30391   0.21750  -0.28713
C     1.19944   1.32107  -1.19670
C     2.48130   1.89829  -1.76689
O     0.10712   1.80478  -1.57290
C     2.60840  -0.27988   0.21907
C     3.56600  -0.86944  -0.62275
C     4.78517  -1.31907  -0.10960
C     5.06197  -1.19722   1.25591
C     4.11374  -0.61815   2.10611
C     2.89960  -0.15950   1.59095
H    -1.71176   4.04149   0.15998
H    -3.47256   3.68498   0.02380
H    -2.61911   3.45057   1.59234
H    -3.35768   0.05044   1.56627
H    -5.40628  -1.26719   1.12802
H    -5.51123  -2.81556  -0.82689
H    -3.54190  -3.02270  -2.34739
H    -1.49467  -1.69725  -1.91953
H     1.10701  -2.10555   1.01270
H     0.65529  -2.43917  -0.68091
H    -0.60247  -2.39098   0.60491
H     2.90654   1.23722  -2.53827
H     3.24794   2.03060  -0.99015
H     2.25157   2.86880  -2.22672
H     3.34704  -0.98272  -1.68640
H     5.51922  -1.77516  -0.77833
H     6.01408  -1.55295   1.65683
H     4.32390  -0.51638   3.17363
H     2.16160   0.30597   2.24878
