71
Generated by autodE on: 2022-06-15. E = -1782.983415 Ha. Imaginary frequency = -179.5 cm-1
C    -3.73174   0.53757  -2.16241
O    -2.80116   0.95492  -1.16195
C    -1.49240   0.72907  -1.39974
O    -1.13299  -0.00513  -2.31943
C    -0.63068   1.45787  -0.49075
C    -1.19088   2.68473   0.14350
C    -0.91645   3.02338   1.48186
C    -1.43400   4.19111   2.04686
C    -2.22634   5.05500   1.28681
C    -2.49184   4.74325  -0.05131
C    -1.98085   3.57517  -0.61484
N     0.74705   1.31183  -0.49827
C     1.51204   2.57012  -0.29669
C     1.43094   0.12752  -0.73191
C     1.18773  -0.58308  -2.07045
C     1.39464   0.30092  -3.27843
O     1.13334  -1.79596  -2.16963
C     2.87044   0.05212  -0.34415
C     3.79498  -0.71484  -1.08730
C     5.12212  -0.84900  -0.68124
C     5.57524  -0.22654   0.48438
C     4.67613   0.53022   1.24088
C     3.34947   0.66445   0.83634
C     0.41884  -1.31217   0.75520
C     0.92677  -2.64806   0.33641
O     0.28191  -3.62044  -0.00940
O     2.25332  -2.72057   0.54498
C     2.90362  -3.93619   0.17320
C     1.00292  -0.86250   2.13254
C     0.34641  -1.75472   3.20215
C    -0.92071  -1.32997   3.27554
C    -1.01295  -0.20336   2.22948
O     0.29948   0.36253   2.32614
C    -0.94214  -0.92820   0.85998
C    -2.13214  -1.53323   0.29037
C    -2.11064  -2.32448  -0.88239
C    -3.27278  -2.92584  -1.36165
C    -4.49456  -2.74160  -0.70607
C    -4.54427  -1.93379   0.43533
C    -3.38475  -1.33488   0.92237
H    -3.64127  -0.53387  -2.37438
H    -3.57310   1.10962  -3.09005
H    -4.72687   0.75560  -1.75724
H    -0.28647   2.36947   2.08003
H    -1.21275   4.42575   3.09086
H    -2.62924   5.96869   1.73008
H    -3.09600   5.41765  -0.66283
H    -2.18488   3.35585  -1.66370
H     2.50322   2.45601  -0.74245
H     1.61354   2.85632   0.75454
H     0.98268   3.36961  -0.82643
H     0.93539  -0.16655  -4.15917
H     2.48260   0.37760  -3.44680
H     1.00252   1.31371  -3.13045
H     3.48520  -1.24011  -1.98845
H     5.80527  -1.45121  -1.28447
H     6.61461  -0.33376   0.80256
H     5.00450   1.01635   2.16236
H     2.67604   1.24043   1.46490
H     3.96964  -3.78478   0.38009
H     2.51912  -4.78263   0.76100
H     2.75216  -4.13813  -0.89755
H     2.08456  -0.74085   2.19131
H     0.83428  -2.58563   3.71067
H    -1.75549  -1.71889   3.85752
H    -1.79016   0.55486   2.35589
H    -1.17678  -2.46897  -1.41367
H    -3.22512  -3.53875  -2.26500
H    -5.40249  -3.21513  -1.08676
H    -5.49343  -1.76870   0.95060
H    -3.45458  -0.70684   1.81085
