37
Generated by autodE on: 2022-07-27. E = -880.638804 Ha
C     2.71844   2.23156   0.58819
C     1.31086   1.67054   0.56081
O     0.35936   2.39750   0.89367
C     1.15461   0.30815   0.08245
C     2.32749  -0.46014  -0.41870
C     2.95613  -0.12741  -1.62966
C     4.06007  -0.85500  -2.08010
C     4.54742  -1.92872  -1.32796
C     3.92623  -2.27143  -0.12272
C     2.82464  -1.54095   0.32966
N    -0.09264  -0.22338  -0.11047
C    -0.26297  -1.21337  -1.19674
C    -1.16028   0.09458   0.66323
C    -0.92508   0.44314   2.01560
N    -0.79400   0.67037   3.15274
C    -2.55086   0.05469   0.19554
C    -2.88720   0.40467  -1.12923
C    -4.21599   0.38262  -1.55014
C    -5.23519   0.02928  -0.65912
C    -4.91502  -0.29634   0.66362
C    -3.58826  -0.28200   1.08997
H     3.42255   1.52650   1.05385
H     2.70723   3.17415   1.15123
H     3.08469   2.43156  -0.43070
H     2.57014   0.70521  -2.22197
H     4.53900  -0.58538  -3.02440
H     5.41054  -2.49812  -1.68086
H     4.30323  -3.10822   0.47009
H     2.34100  -1.80393   1.27344
H    -1.26901  -1.63616  -1.15683
H    -0.07826  -0.74292  -2.17030
H     0.46633  -2.01697  -1.04475
H    -2.10778   0.71538  -1.82614
H    -4.45859   0.65752  -2.57915
H    -6.27551   0.01691  -0.99161
H    -5.70462  -0.56787   1.36784
H    -3.34734  -0.54367   2.12236
