37
Generated by autodE on: 2022-06-26. E = -880.641758 Ha
C    -2.87137  -1.32905   2.26845
C    -1.54931  -1.81643   1.71676
O    -0.99992  -2.79727   2.23952
C    -0.95655  -1.12302   0.57552
C    -1.32461   0.26192   0.23218
C    -1.47303   1.24620   1.22598
C    -1.84257   2.55095   0.89148
C    -2.05788   2.89984  -0.44350
C    -1.90426   1.93118  -1.44448
C    -1.53703   0.62991  -1.11204
N     0.00574  -1.76567  -0.15829
C    -0.05427  -3.23524  -0.32723
C     1.00083  -1.11725  -0.82111
C     1.61243  -1.76023  -1.92544
N     2.16575  -2.23536  -2.83900
C     1.51247   0.21082  -0.45991
C     1.98411   1.07997  -1.46302
C     2.52516   2.32155  -1.12973
C     2.61196   2.71490   0.20928
C     2.15529   1.85356   1.21416
C     1.60262   0.61815   0.88702
H    -2.69864  -0.71766   3.16905
H    -3.44782  -2.21247   2.58056
H    -3.45350  -0.73447   1.55386
H    -1.27728   0.99349   2.26889
H    -1.94927   3.30052   1.67904
H    -2.34016   3.92166  -0.70733
H    -2.07386   2.19410  -2.49123
H    -1.41399  -0.11435  -1.90163
H    -1.04026  -3.60225  -0.03920
H     0.72675  -3.71615   0.27361
H     0.11101  -3.46139  -1.38787
H     1.91658   0.78079  -2.51092
H     2.87676   2.98687  -1.92149
H     3.03334   3.68820   0.47055
H     2.22472   2.15013   2.26314
H     1.24677  -0.04202   1.67924
