14
Generated by autodE on: 2022-06-26. E = -270.683216 Ha
C    -1.94691   1.30374  -0.17337
C    -0.78998   0.37217   0.00474
C    -1.09673  -0.94800   0.65163
C     0.45491   0.73239  -0.41209
C     1.65848  -0.07838  -0.30283
O     1.74008  -1.21487   0.15782
H    -2.73735   0.81002  -0.76579
H    -2.40153   1.52953   0.80735
H    -1.66323   2.24480  -0.66418
H    -2.14683  -0.99867   0.97170
H    -0.44471  -1.12740   1.52008
H    -0.90203  -1.77741  -0.04797
H     0.59375   1.71480  -0.87281
H     2.57950   0.42136  -0.68997
