51
Generated by autodE on: 2022-06-26. E = -1151.298955 Ha. Imaginary frequency = -295.1 cm-1
C     2.71936   1.23886   2.32495
C     1.52123   0.34643   2.12707
O     0.85652  -0.01905   3.08745
C     1.20246  -0.17360   0.74836
C     2.36162  -0.83508   0.07536
C     2.43339  -0.94047  -1.32673
C     3.50596  -1.58290  -1.94347
C     4.53268  -2.13926  -1.17358
C     4.46998  -2.05602   0.21961
C     3.39496  -1.41411   0.83717
C     0.73081   1.77995  -0.47333
C     1.17712   2.93592   0.28039
O     2.30191   3.42832   0.17894
C    -0.64509   1.59492  -0.83358
C    -1.67364   2.68234  -0.60077
C    -0.86959   0.87564  -2.14355
C    -1.19121   0.08843   0.63030
C    -1.20752   1.04071   1.71102
N    -1.29615   1.87065   2.52117
C    -2.55905  -0.43917   0.32080
C    -2.84182  -1.20583  -0.83002
C    -4.14334  -1.61498  -1.12014
C    -5.20425  -1.26878  -0.27943
C    -4.94528  -0.50511   0.86067
C    -3.64427  -0.09674   1.15493
N    -0.04485  -0.71982   0.52690
C    -0.13947  -2.08778  -0.00850
H     3.35802   0.80423   3.10821
H     2.35926   2.20858   2.70243
H     3.30017   1.40770   1.41345
H     1.64186  -0.51937  -1.94386
H     3.54022  -1.64684  -3.03336
H     5.37441  -2.63947  -1.65788
H     5.25708  -2.49973   0.83337
H     3.35310  -1.38946   1.92704
H     1.48714   1.41799  -1.17014
H     0.44637   3.38953   0.98458
H    -1.60941   3.41152  -1.42661
H    -1.54574   3.23192   0.33771
H    -2.68968   2.25883  -0.61862
H    -0.50678   1.52135  -2.96224
H    -0.32004  -0.07215  -2.20767
H    -1.93458   0.68521  -2.32781
H    -2.05317  -1.48625  -1.51993
H    -4.32599  -2.20745  -2.01945
H    -6.22203  -1.58991  -0.51189
H    -5.75912  -0.22432   1.53293
H    -3.47310   0.49519   2.05373
H    -0.14194  -2.12820  -1.10454
H     0.71572  -2.66008   0.36385
H    -1.05421  -2.55246   0.37485
