35
Generated by autodE on: 2022-05-31. E = -1244.613552 Ha
C     4.12922   0.27859   2.11526
N     3.12708   0.50098   1.08804
C     1.81880   0.43011   1.31731
O     1.26789   0.16990   2.37970
C     0.92438   0.76164   0.06812
C     0.74770   2.22179   0.04406
N     0.64996   3.37543   0.00111
N     1.59257   0.37113  -1.17708
C     0.77888  -0.23934  -1.93989
C     1.14981  -0.77157  -3.21757
N     1.41746  -1.21852  -4.25390
C    -0.68520  -0.31472  -1.42895
C    -1.34340  -1.60094  -1.69275
N    -1.85600  -2.61667  -1.90498
C    -1.44381   0.75179  -2.11154
N    -1.97311   1.59740  -2.69906
C    -0.44763  -0.02217   0.10645
C    -1.66059   0.67187   0.73465
O    -2.78008   0.50943   0.30563
O    -1.32608   1.41668   1.76503
C    -2.39044   2.10398   2.45392
C    -0.20186  -1.38759   0.80148
O     0.70935  -2.10887   0.46943
O    -1.11737  -1.65097   1.70573
C    -0.98668  -2.89479   2.42745
H     4.77509  -0.56858   1.84125
H     3.62673   0.05673   3.06332
H     4.75493   1.17495   2.23889
H     3.43640   0.69522   0.13913
H    -2.90608   2.78086   1.75930
H    -3.09950   1.37224   2.86426
H    -1.90549   2.66744   3.25763
H    -0.04013  -2.89402   2.98481
H    -1.01366  -3.73720   1.72345
H    -1.84118  -2.92999   3.11090
