15
Generated by autodE on: 2022-05-31. E = -525.412752 Ha
C    -3.40028   1.57143   0.51181
N    -2.36655   0.84993  -0.20364
C    -1.15366   0.58721   0.31972
O    -0.78651   0.91133   1.45183
C    -0.21666  -0.15781  -0.57916
C    -0.53084  -0.58322  -1.89052
N    -0.83630  -0.91492  -2.96678
N     0.97075  -0.41929  -0.08597
C     1.99482  -0.59350   0.46466
C     3.18434  -0.80682   1.07949
N     4.21223  -0.99130   1.60977
H    -3.64863   2.51450  -0.00016
H    -3.04100   1.80123   1.52122
H    -4.31640   0.96583   0.58902
H    -2.56877   0.55178  -1.15333
