35
Generated by autodE on: 2022-05-31. E = -1244.548462 Ha. Imaginary frequency = -333.9 cm-1
C     3.64352  -0.53028   2.50415
N     2.73900   0.37066   1.81221
C     2.12183   0.04376   0.67558
O     2.27997  -0.98382   0.02558
C     1.11835   1.08151   0.15348
C     0.70721   2.18906   0.95291
N     0.36005   3.04987   1.65232
N     1.06746   1.17161  -1.16203
C     0.62177   0.58727  -2.12703
C     0.82314   0.54355  -3.50765
N     0.90284   0.42684  -4.66286
C    -0.87172  -0.74641  -1.28229
C    -0.24717  -1.98721  -1.68856
N     0.24083  -2.93674  -2.14362
C    -1.90645  -0.34836  -2.21290
N    -2.69900  -0.12565  -3.03138
C    -0.91215  -0.35777   0.08215
C    -1.81856   0.78496   0.40858
O    -2.11794   1.62754  -0.41673
O    -2.24747   0.78145   1.66147
C    -3.09499   1.87499   2.05883
C    -0.47440  -1.33556   1.13352
O    -0.46888  -2.53663   0.96031
O    -0.09752  -0.74613   2.25973
C     0.31549  -1.60430   3.33661
H     3.60814  -1.51411   2.02342
H     3.34146  -0.62513   3.55655
H     4.67611  -0.14988   2.46579
H     2.52504   1.25999   2.25604
H    -4.01918   1.87281   1.46429
H    -2.56701   2.82877   1.92444
H    -3.31857   1.70608   3.11777
H     0.61210  -0.93563   4.15160
H     1.16249  -2.22780   3.01990
H    -0.52108  -2.24473   3.64927
