47
Generated by autodE on: 2022-10-23. E = -2344.393979 Ha
C     0.56624  -1.70685   5.16562
N     0.25975  -1.70714   3.74793
C    -0.05783  -0.57981   3.11018
O    -0.23783   0.51401   3.64500
C    -0.31962  -0.70094   1.61178
O    -0.03952  -2.09177   1.10930
C    -0.77250  -2.19993  -0.01407
O    -0.80620  -3.15323  -0.73744
C    -1.53732  -0.82296  -0.12840
C    -2.76925  -0.93965  -0.89288
N    -3.78261  -1.17246  -1.40482
C    -0.41018   0.17816  -0.50652
C     0.39412   0.20594   0.57469
C     1.72244   0.88636   0.84722
Cl    2.86923   0.71332  -0.55872
Cl    2.59464  -0.00782   2.19150
C     1.57775   2.35038   1.27469
C     1.29576   3.38820   0.18368
C     0.08468   3.19051  -0.73576
C     0.30938   2.22582  -1.91743
C    -0.49760   0.92404  -1.82977
O    -1.88415   1.21926  -1.89391
C    -2.48959   1.67210  -3.09882
C    -0.08080  -0.04594  -2.97242
F     1.13192  -0.56696  -2.75241
F    -0.04686   0.56194  -4.16659
F    -0.94596  -1.07365  -3.07122
N    -1.71293  -0.48858   1.29663
C    -2.68038  -1.29586   2.04435
H     1.51102  -1.17420   5.36487
H    -0.23456  -1.21007   5.73185
H     0.66031  -2.74345   5.50979
H     0.43111  -2.54227   3.19667
H     2.51155   2.63261   1.78116
H     0.77998   2.35593   2.03428
H     1.16962   4.34045   0.72255
H     2.19976   3.50842  -0.43477
H    -0.16571   4.17576  -1.15505
H    -0.79879   2.88553  -0.15239
H    -0.00567   2.70775  -2.85220
H     1.37153   1.99859  -2.04970
H    -3.50132   1.99294  -2.81740
H    -1.95665   2.52935  -3.53847
H    -2.57039   0.86572  -3.84457
H    -2.46302  -2.37768   2.03890
H    -3.67559  -1.13260   1.61200
H    -2.70261  -0.93792   3.08127
