20
Generated by autodE on: 2022-10-26. E = -661.189418 Ha
C     2.47960   0.01858   3.45546
N     1.91441  -0.13585   2.12866
C     0.67366   0.28964   1.85190
O    -0.07196   0.83600   2.66878
C     0.25341   0.04325   0.44244
O     1.08880  -0.53341  -0.41920
C     0.44440  -0.66745  -1.69905
O     1.02938  -1.17001  -2.63222
C    -0.83657  -0.10554  -1.46941
C    -1.89020   0.03250  -2.38012
N    -2.75878   0.14001  -3.15330
N    -0.89808   0.31320  -0.13718
C    -2.08873   0.93591   0.44431
H     2.50603   1.07892   3.75024
H     3.50115  -0.37795   3.45068
H     1.88495  -0.52866   4.20356
H     2.46290  -0.58005   1.39819
H    -2.31521   1.84853  -0.12250
H    -1.88769   1.16900   1.49122
H    -2.92678   0.23217   0.35522
