27
Generated by autodE on: 2022-10-23. E = -1683.166570 Ha
C    -1.13147   3.10007  -1.25724
O    -1.75482   1.81919  -1.30167
C    -0.93636   0.67374  -1.22800
C    -0.15803   0.51642  -2.56149
F     0.77266   1.47652  -2.70837
F     0.48186  -0.66125  -2.64042
F    -0.99096   0.59920  -3.60538
C     0.00128   0.66741  -0.09773
C     0.58177   0.25005   0.87970
C     0.85294  -0.65551   1.97361
Cl    2.63168  -0.78086   2.32681
Cl    0.02503  -0.01562   3.47301
C     0.28981  -2.04186   1.61328
C    -1.14738  -2.04128   1.05477
C    -1.32680  -1.85865  -0.47870
C    -1.90177  -0.52642  -0.99958
H    -0.69057   3.38039  -2.22672
H    -0.34956   3.13822  -0.47944
H    -1.92136   3.81965  -1.00245
H     0.35459  -2.65846   2.52177
H     0.97754  -2.47680   0.87149
H    -1.56284  -3.02549   1.31707
H    -1.75942  -1.30895   1.60605
H    -2.04235  -2.62603  -0.81001
H    -0.38627  -2.09811  -0.99565
H    -2.42646  -0.69221  -1.95270
H    -2.64955  -0.14314  -0.28995
