24
Generated by autodE on: 2022-06-11. E = -1208.962341 Ha
C    -3.00584   2.71757   0.96206
O    -2.41225   1.50727   0.45383
C    -1.13913   1.29594   0.74154
O    -0.43538   2.04881   1.37907
C    -0.63963   0.00239   0.14777
C     0.65143  -0.07804  -0.20945
C     1.58457   1.10564  -0.03458
O     1.62014   2.03071  -0.81032
O     2.37496   0.93231   1.01053
C     3.33385   1.97643   1.27313
C     1.33847  -1.27143  -0.86578
F     0.65697  -1.73389  -1.91917
F     2.55083  -0.89900  -1.31526
F     1.52703  -2.27775  -0.00674
C    -1.67481  -1.10063  -0.00619
F    -1.12865  -2.31466  -0.13560
F    -2.45898  -0.89164  -1.07194
F    -2.46236  -1.14401   1.08038
H    -4.04787   2.70078   0.62567
H    -2.95309   2.72924   2.05952
H    -2.48115   3.59235   0.55376
H     2.80804   2.91932   1.47882
H     3.89644   1.65001   2.15433
H     4.00338   2.10067   0.41083
