28
Generated by autodE on: 2022-07-27. E = -765.682537 Ha
C     4.57140  -0.58539   1.62985
O     3.91465  -0.36043   0.38080
C     2.56762  -0.21468   0.42720
O     1.93317  -0.25956   1.48891
C     2.00029  -0.07328  -0.86657
O     0.67182  -0.07123  -1.04154
C    -0.29441   0.23984  -0.22658
C    -0.03116   1.15385   0.94608
C    -0.68143   0.87574   2.27115
O     0.63837   2.15401   0.74060
C    -1.62275  -0.13733  -0.66901
C    -2.78333   0.45433  -0.11891
C    -4.04708   0.07568  -0.56649
C    -4.18393  -0.89121  -1.56825
C    -3.04172  -1.48085  -2.12518
C    -1.77536  -1.11460  -1.68185
H     5.64426  -0.62827   1.40591
H     4.36769   0.23476   2.33501
H     4.24690  -1.53543   2.08151
H     2.54311  -0.31179  -1.77811
H    -1.12348  -0.12681   2.32416
H    -1.46010   1.63151   2.46221
H     0.08563   0.99034   3.05010
H    -2.70360   1.22933   0.64264
H    -4.93283   0.54617  -0.13438
H    -5.17723  -1.18613  -1.91372
H    -3.14238  -2.23966  -2.90440
H    -0.88953  -1.59077  -2.10366
