28
Generated by autodE on: 2022-06-11. E = -765.694496 Ha
C     4.23765   1.18108   1.88806
O     2.97115   0.89007   1.28719
C     2.47348  -0.34267   1.50862
O     3.04519  -1.19142   2.18316
C     1.19911  -0.57829   0.87071
O     0.66637   0.41184   0.21073
C    -0.46336   0.57936  -0.43465
C    -0.61863   1.94863  -0.93642
C     0.48114   2.93426  -0.62069
O    -1.61258   2.27110  -1.58885
C    -1.43405  -0.49574  -0.63390
C    -2.81438  -0.22724  -0.51798
C    -3.74987  -1.23882  -0.72971
C    -3.33045  -2.52947  -1.06938
C    -1.96495  -2.80451  -1.19748
C    -1.02241  -1.80083  -0.97811
H     4.47592   2.21343   1.60610
H     5.01389   0.49856   1.51104
H     4.17933   1.09316   2.98316
H     0.69108  -1.53672   0.96316
H     1.45151   2.57584  -0.99672
H     0.58728   3.05874   0.46838
H     0.23436   3.89848  -1.08262
H    -3.14614   0.77561  -0.25163
H    -4.81476  -1.01888  -0.62550
H    -4.06630  -3.31978  -1.23438
H    -1.63051  -3.80701  -1.47351
H     0.03707  -2.02764  -1.10639
