52
Generated by autodE on: 2022-06-11. E = -1974.650787 Ha. Imaginary frequency = -132.0 cm-1
C     4.28715  -1.15319   2.33850
O     3.53213  -1.46874   1.16325
C     2.19931  -1.39430   1.27161
O     1.61770  -1.17314   2.32742
C     1.55024  -1.64011   0.00040
O     0.20685  -1.75544  -0.04857
C    -0.77728  -1.15315   0.52818
C    -0.64103  -0.25916   1.76601
C    -1.11316  -0.86874   3.05505
O    -0.33072   0.90716   1.64504
C    -2.10446  -1.48394   0.05165
C    -3.20083  -0.66445   0.40297
C    -4.47241  -0.95246  -0.08493
C    -4.67148  -2.05853  -0.91805
C    -3.59072  -2.88060  -1.26592
C    -2.31580  -2.59874  -0.79074
C     0.34753   0.68545  -1.67053
C    -0.28494   1.85075  -0.98197
O     0.36131   2.79727  -0.56641
O    -1.60694   1.77673  -0.87714
C    -2.26457   2.85337  -0.19781
C    -0.37882  -0.00923  -2.80920
F     0.23924   0.23923  -3.98959
F    -1.64659   0.38325  -2.96278
F    -0.40891  -1.34979  -2.67889
C     1.66751   0.39014  -1.38564
C     2.45043   1.31339  -0.45205
O     2.47117   1.25334   0.75333
O     3.17305   2.16574  -1.17221
C     3.96221   3.11781  -0.43921
C     2.61870  -0.30899  -2.35662
F     3.77536  -0.61378  -1.73871
F     2.92913   0.50040  -3.38451
F     2.14688  -1.44375  -2.88647
H     5.34154  -1.25519   2.05641
H     4.07944  -0.12155   2.65843
H     4.04617  -1.84659   3.15733
H     2.01503  -2.33519  -0.69405
H    -0.89580  -1.94333   3.10226
H    -0.64504  -0.33815   3.89457
H    -2.20623  -0.73599   3.11901
H    -3.05678   0.21158   1.03605
H    -5.31220  -0.30851   0.18322
H    -5.67133  -2.28418  -1.29539
H    -3.74903  -3.74843  -1.90948
H    -1.47450  -3.23933  -1.05430
H    -1.92578   2.90407   0.84631
H    -2.05893   3.80968  -0.69941
H    -3.33512   2.62331  -0.24058
H     4.48500   3.71678  -1.19307
H     4.68310   2.59932   0.20827
H     3.30544   3.75480   0.17014
