19
Generated by autodE on: 2022-05-29. E = -995.131151 Ha
C     3.57784   0.66080   1.20162
O     2.24130   0.89050   0.73883
C     1.57806  -0.17624   0.25788
O     2.06048  -1.29348   0.20059
C     0.23107   0.19456  -0.16915
C    -0.81422  -0.58858  -0.49775
Cl   -0.96104  -2.28677  -0.56590
C    -2.01407   0.36664  -0.70166
C    -2.37453   0.91576   0.69792
C    -1.35001   1.70858   1.02357
C    -0.37859   1.62086  -0.17487
O    -1.31649   1.48683  -1.26147
H     4.20990   0.28351   0.38431
H     3.58122  -0.06532   2.02786
H     3.94881   1.63170   1.54990
H    -2.82383  -0.00073  -1.34000
H    -3.25814   0.63550   1.26949
H    -1.16104   2.26590   1.94022
H     0.32336   2.44544  -0.32798
