13
Generated by autodE on: 2022-05-29. E = -490.078137 Ha
C    -3.36679   0.37623  -0.40543
O    -1.92881   0.39668  -0.47923
C    -1.27957  -0.27957   0.45450
O    -1.77798  -0.90907   1.36470
C     0.19396  -0.21537   0.30443
O     0.67234   0.44816  -0.66522
N     1.99628   0.62739  -0.97938
C     2.81053   0.01187  -0.13433
N     3.61971  -0.49120   0.55243
H    -3.70165   0.80587   0.54932
H    -3.73395  -0.65579  -0.49765
H    -3.71689   0.98557  -1.24554
H     0.84214  -0.73562   1.01916
