32
Generated by autodE on: 2022-05-29. E = -1485.197525 Ha. Imaginary frequency = -203.8 cm-1
C     3.02556  -2.55857   0.67544
O     2.24695  -1.39298   0.99838
C     2.24073  -0.41436   0.10320
O     2.90177  -0.38929  -0.91270
C     1.40681   0.71998   0.59339
O     1.31172   1.85208  -0.04541
N     1.08771   2.07188  -1.37259
C     1.16407   1.07460  -2.22821
N     1.11095   0.37449  -3.17345
C    -1.48542   0.46140  -0.55902
Cl   -1.62627  -0.27618  -2.06500
C    -2.42376   1.60533  -0.11023
C    -1.55511   2.78064   0.33053
C    -0.97449   2.37246   1.46383
C    -1.46914   0.94056   1.67792
O    -2.81436   1.04395   1.15578
C    -0.82740   0.01596   0.58042
C    -0.53478  -1.41967   0.81275
O    -0.33316  -2.23524  -0.06471
O    -0.54984  -1.71155   2.11577
C    -0.33249  -3.08433   2.47390
H     2.95631  -3.21668   1.54781
H     2.60407  -3.05011  -0.21252
H     4.07064  -2.27678   0.48783
H     1.40293   0.87574   1.67585
H    -3.26985   1.79606  -0.77694
H    -1.40927   3.69669  -0.23899
H    -0.23694   2.88025   2.08305
H    -1.44818   0.52773   2.68882
H     0.65637  -3.41974   2.13336
H    -1.10967  -3.72263   2.02988
H    -0.39023  -3.12107   3.56758
