58
Generated by autodE on: 2022-06-06. E = -1268.195059 Ha
C    -3.00835   2.61798   3.39506
N    -2.08397   1.91247   2.53433
C    -2.43113   1.31607   1.38552
O    -3.57167   1.30123   0.90548
C    -1.29876   0.64322   0.65209
N    -0.10880   0.63541   1.09942
C     0.82292   0.05391   0.11768
C     1.64124   1.24042  -0.46498
C     1.22205   2.56871  -0.29729
C     1.95899   3.63221  -0.82955
C     3.13423   3.39244  -1.54271
C     3.56906   2.07396  -1.70914
C     2.83670   1.01590  -1.16894
C     1.82438  -0.86613   0.82978
C     2.11293  -0.66704   2.18885
C     3.05513  -1.46060   2.84827
C     3.73661  -2.46751   2.15913
C     3.46935  -2.66400   0.80174
C     2.52645  -1.86929   0.14415
C    -0.11748  -0.65886  -0.97289
C     0.36146  -0.42525  -2.40764
C    -0.41682  -2.18158  -0.75692
C    -0.80031  -2.52689   0.70369
C    -2.24896  -1.98000   0.84268
C    -2.48741  -1.30888  -0.52360
C    -1.78909  -2.32260  -1.44319
C    -1.56513  -0.04906  -0.66010
C    -2.04650   0.99304  -1.67343
C    -3.00842   0.59776  -2.75593
O    -1.65416   2.14711  -1.58029
H    -3.05429   2.15043   4.39110
H    -4.00709   2.58892   2.94357
H    -2.70456   3.66896   3.51974
H    -1.10310   1.84675   2.79411
H     0.30781   2.78813   0.24842
H     1.60534   4.65544  -0.68063
H     3.70952   4.22240  -1.95975
H     4.48974   1.86339  -2.25876
H     3.20947   0.00243  -1.30623
H     1.58663   0.11368   2.73601
H     3.25619  -1.28861   3.90863
H     4.47145  -3.09101   2.67381
H     3.99693  -3.44214   0.24491
H     2.34364  -2.04375  -0.91482
H     0.43467   0.64242  -2.64841
H     1.35509  -0.86906  -2.55948
H    -0.31984  -0.88494  -3.13467
H     0.37227  -2.82186  -1.16594
H    -0.11931  -2.09937   1.44621
H    -0.77163  -3.61840   0.83620
H    -2.37335  -1.30597   1.70094
H    -2.97514  -2.79601   0.97208
H    -3.54082  -1.09091  -0.72765
H    -2.20812  -3.33490  -1.33831
H    -1.79087  -2.05804  -2.50660
H    -4.00563   0.46994  -2.30329
H    -2.74003  -0.35788  -3.22420
H    -3.05990   1.39549  -3.50805
