25
Generated by autodE on: 2022-06-06. E = -464.923933 Ha
C     2.39141  -0.99376   1.25079
C     1.80837   0.15476   0.46187
O     2.44501   1.20399   0.32746
C     0.47991  -0.05332  -0.12498
C    -0.36992   0.89619  -0.61493
C    -0.21977   2.36979  -0.73038
C    -1.68374   0.19853  -0.91036
C    -2.30419  -0.12429   0.49107
C    -1.35544  -1.22301   1.04897
C    -0.29864  -1.36935  -0.08978
C    -1.18933  -1.19768  -1.33543
H     2.57362  -1.85220   0.58343
H     3.33742  -0.68583   1.71534
H     1.68512  -1.33648   2.02368
H    -0.31262   2.67430  -1.78806
H    -1.04537   2.87180  -0.19604
H     0.74152   2.72431  -0.34331
H    -2.35663   0.74079  -1.58734
H    -2.35370   0.77052   1.12833
H    -3.32952  -0.50193   0.36323
H    -1.88926  -2.17318   1.20172
H    -0.88709  -0.94288   2.00333
H     0.30652  -2.28151  -0.03295
H    -0.61693  -1.18388  -2.27502
H    -1.99762  -1.94235  -1.40266
