33
Generated by autodE on: 2022-06-06. E = -803.195724 Ha
C     3.93221   1.28547   0.46570
N     3.93225  -0.04314   1.05440
C     3.04297  -1.00196   0.74438
O     2.97577  -2.11139   1.29029
C     2.14623  -0.70510  -0.39876
N     0.97894  -0.36332  -0.30725
C    -0.27024  -0.05007  -0.29208
C    -0.62833   1.38189  -0.39588
C     0.25490   2.28394  -1.02236
C    -0.04967   3.64269  -1.09477
C    -1.23808   4.13015  -0.53930
C    -2.11577   3.24510   0.09424
C    -1.81666   1.88338   0.16843
C    -1.24362  -1.15737  -0.15629
C    -2.53667  -1.07024  -0.70623
C    -3.42407  -2.14264  -0.60025
C    -3.03860  -3.31960   0.04914
C    -1.75109  -3.42037   0.58783
C    -0.86127  -2.35130   0.48862
H     3.82871   1.22007  -0.62827
H     4.88804   1.77492   0.69012
H     3.11505   1.91562   0.85311
H     4.54413  -0.23978   1.84285
H     1.18376   1.91298  -1.46031
H     0.64439   4.32551  -1.59042
H    -1.47609   5.19474  -0.59652
H    -3.04003   3.61711   0.54254
H    -2.50186   1.21098   0.68524
H    -2.84365  -0.16902  -1.23786
H    -4.42228  -2.05921  -1.03642
H    -3.73705  -4.15533   0.13324
H    -1.43923  -4.33605   1.09567
H     0.14056  -2.43610   0.91537
