30
Generated by autodE on: 2022-07-27. E = -726.002217 Ha
C    -0.57366  -0.90175  -3.31670
N    -0.62449  -0.66503  -1.88830
C     0.43285  -0.16507  -1.22613
O     1.52412   0.04610  -1.76701
C     0.25918   0.01512   0.25300
N     0.82131   1.05732   0.85766
C     1.25260   2.26850   0.39998
C     0.74786   2.89458  -0.76859
C     1.25883   4.28717  -1.07294
O    -0.11010   2.37641  -1.52016
C    -0.34029  -1.02929   1.08623
C    -0.31919  -2.38415   0.68480
C    -0.85875  -3.37535   1.50148
C    -1.43133  -3.04455   2.73531
C    -1.46386  -1.70782   3.14380
C    -0.93270  -0.70869   2.32822
H     0.23697  -1.60165  -3.57263
H    -0.39880   0.03721  -3.86724
H    -1.52900  -1.33200  -3.64105
H    -1.50139  -0.78652  -1.39294
H     0.93809   0.94087   1.86809
H     1.86146   2.82223   1.11203
H     1.92557   4.68459  -0.29531
H     0.40424   4.96953  -1.20838
H     1.80611   4.26246  -2.03044
H     0.14391  -2.66383  -0.26198
H    -0.82357  -4.41754   1.17608
H    -1.85543  -3.82465   3.37142
H    -1.92277  -1.43661   4.09732
H    -1.00976   0.33359   2.64644
