30
Generated by autodE on: 2022-06-08. E = -726.012576 Ha
C    -1.14932   3.87039  -1.32326
N    -1.09856   2.50620  -0.83720
C     0.06614   1.84027  -0.73040
O     1.15726   2.36275  -1.03844
C     0.03572   0.45787  -0.20202
N     1.26138  -0.03810  -0.04792
C     1.72213  -1.22841   0.36279
C     3.12636  -1.51196   0.41738
C     4.11318  -0.42919   0.02117
O     3.52857  -2.63102   0.78446
C    -1.17628  -0.29727   0.15260
C    -2.23003  -0.43562  -0.77174
C    -3.38628  -1.14018  -0.43015
C    -3.50811  -1.72138   0.83514
C    -2.46628  -1.59258   1.76050
C    -1.31024  -0.88820   1.42485
H    -0.62587   4.56192  -0.64270
H    -2.19871   4.17924  -1.40078
H    -0.67974   3.95401  -2.31551
H    -1.95768   2.05690  -0.53995
H     1.95764   0.66970  -0.33941
H     1.00722  -1.99676   0.65224
H     3.97038  -0.12470  -1.02907
H     5.13271  -0.81715   0.14229
H     3.99585   0.47148   0.64577
H    -2.13480  -0.00027  -1.76824
H    -4.19195  -1.24176  -1.16084
H    -4.41212  -2.27426   1.10051
H    -2.55738  -2.03928   2.75328
H    -0.50920  -0.78150   2.15891
