44
Generated by autodE on: 2022-06-19. E = -979.657890 Ha
C    -2.06908   3.61703   2.11397
O    -2.02010   2.27307   1.60208
C    -1.22982   2.05870   0.55970
O    -0.57161   2.90841   0.00179
C    -1.18241   0.59353   0.18369
O    -0.76164   0.51409  -1.23372
C    -1.13297  -0.72596  -1.63047
O    -0.89808  -1.16841  -2.72791
C    -1.81490  -1.37426  -0.41472
C    -2.74184  -2.51608  -0.74087
C    -0.64008  -1.69010   0.54416
C    -0.13730  -0.28185   0.98023
C    -0.27383  -0.07316   2.49672
C     1.26666   0.08465   0.56717
C     2.24624  -0.74988   0.17300
C     3.59327  -0.30175  -0.14493
C     4.63391  -1.07019  -0.54647
C     5.97604  -0.45774  -0.83576
C     4.56755  -2.55937  -0.73966
N    -2.39448  -0.17878   0.25068
C    -3.56424   0.40408  -0.40713
H    -2.44305   4.30311   1.34146
H    -1.06764   3.93307   2.43810
H    -2.75674   3.58736   2.96606
H    -3.21565  -2.89855   0.17469
H    -3.52466  -2.21357  -1.45084
H    -2.16372  -3.33065  -1.20081
H     0.12298  -2.29883   0.04681
H    -1.03141  -2.25353   1.40079
H     0.34032  -0.82402   3.01566
H     0.08314   0.92312   2.79891
H    -1.31603  -0.18787   2.82397
H     1.49910   1.15272   0.65722
H     2.03924  -1.81996   0.09009
H     3.76806   0.77603  -0.04247
H     6.28368  -0.66178  -1.87707
H     5.97856   0.63100  -0.67930
H     6.75653  -0.90440  -0.19386
H     4.84519  -2.82226  -1.77566
H     3.57912  -2.98915  -0.53223
H     5.30437  -3.06254  -0.08884
H    -4.40628  -0.29553  -0.32782
H    -3.40524   0.63600  -1.47684
H    -3.84816   1.32864   0.11158
