23
Generated by autodE on: 2022-06-19. E = -351.521383 Ha
C    -3.62020  -1.01014   0.41609
C    -2.57424  -0.19678   0.15116
C    -2.78213   1.24335  -0.24270
C    -1.20885  -0.70978   0.24454
C    -0.07863   0.00088   0.00286
C     1.25370  -0.55785   0.10980
C     2.42900   0.08252  -0.11450
C     3.73873  -0.63784   0.03919
C     2.54658   1.52374  -0.52235
H    -4.65181  -0.65271   0.35372
H    -3.46607  -2.05536   0.70157
H    -2.28661   1.92520   0.46830
H    -3.85116   1.49652  -0.27621
H    -2.34550   1.45139  -1.23369
H    -1.11198  -1.76268   0.53570
H    -0.16756   1.05107  -0.28793
H     1.30174  -1.61325   0.40425
H     3.60391  -1.68803   0.33713
H     4.37328  -0.13931   0.79399
H     4.31225  -0.61310  -0.90486
H     1.58029   2.03138  -0.63723
H     3.09442   1.60668  -1.47762
H     3.14234   2.08305   0.22067
