37
Generated by autodE on: 2022-06-18. E = -916.946964 Ha
C    -0.53423  -1.29896  -2.36740
C    -0.29547  -1.69956  -1.11122
C    -0.46154  -3.12194  -0.65976
C     0.12359  -0.72284  -0.02677
C     1.28867   0.24559  -0.40186
C     2.55996   0.04379   0.34914
C     3.79050  -0.06793  -0.18635
C     4.98524  -0.29851   0.69800
C     4.10510   0.01371  -1.65382
N     0.69380   1.62378  -0.18978
O     0.52468   1.75817   1.28159
C    -0.53107   0.96672   1.62115
O    -0.93207   0.83651   2.74294
C    -0.97154   0.33656   0.29865
C    -2.41452  -0.11221   0.24576
O    -2.76381  -1.08641   0.91483
N    -3.22782   0.61030  -0.53013
C    -4.63460   0.27945  -0.66836
O    -0.64233   1.42438  -0.58581
H    -0.86354  -2.01107  -3.12947
H    -0.42126  -0.25650  -2.67605
H    -1.21390  -3.18026   0.14433
H     0.48291  -3.50664  -0.23736
H    -0.77327  -3.77895  -1.48420
H     0.36865  -1.27793   0.88747
H     1.45340   0.21972  -1.48309
H     2.45297  -0.03898   1.43526
H     5.49378  -1.23916   0.42366
H     4.71185  -0.34528   1.76200
H     5.72817   0.50625   0.56033
H     4.80840   0.84312  -1.84163
H     3.22400   0.16207  -2.29120
H     4.61822  -0.90647  -1.98172
H    -2.84644   1.40398  -1.03602
H    -5.09318   0.97758  -1.37811
H    -4.75993  -0.74764  -1.04389
H    -5.15630   0.35711   0.29814
