14
Generated by autodE on: 2022-06-18. E = -565.378922 Ha
C    -3.44961   0.52526  -0.54717
N    -2.02382   0.75391  -0.40672
C    -1.18647  -0.25519  -0.11747
O    -1.53902  -1.42724   0.04816
C     0.24305   0.08254   0.00908
O     0.70318   1.32638  -0.15754
N     1.99799   1.42289   0.00604
O     2.42262   0.21710   0.28989
C     1.34183  -0.75720   0.32033
O     1.55367  -1.91367   0.56581
H    -3.93941   1.48175  -0.76312
H    -3.87561   0.10578   0.37743
H    -3.65993  -0.17750  -1.36855
H    -1.65726   1.69282  -0.52953
