37
Generated by autodE on: 2022-06-18. E = -916.892822 Ha. Imaginary frequency = -352.3 cm-1
C    -0.83692  -1.25157  -2.46262
C    -0.73300  -1.70348  -1.19630
C    -1.63512  -2.78388  -0.65889
C     0.23970  -1.15561  -0.23717
C     1.41782  -0.47719  -0.63813
C     2.57049  -0.44551   0.24174
C     3.81651  -0.02452  -0.08919
C     4.92554  -0.05344   0.92067
C     4.19578   0.50800  -1.43902
N     0.71108   1.59409  -0.51728
O     0.87684   1.67710   0.85918
C    -0.14801   0.99377   1.50647
O    -0.15378   0.81138   2.69954
C    -1.02434   0.62583   0.41157
C    -2.42788   0.17738   0.54339
O    -2.81977  -0.30086   1.61412
N    -3.19039   0.31136  -0.55442
C    -4.53567  -0.22701  -0.60995
O    -0.61729   1.31648  -0.67366
H    -1.58845  -1.66536  -3.14002
H    -0.19238  -0.46415  -2.85908
H    -2.15293  -2.45137   0.25431
H    -1.04308  -3.67057  -0.37459
H    -2.38645  -3.09036  -1.39977
H     0.25095  -1.62302   0.75156
H     1.58536  -0.35036  -1.70676
H     2.39799  -0.78757   1.26761
H     5.76129  -0.67883   0.56018
H     4.59174  -0.43915   1.89454
H     5.34116   0.95942   1.06553
H     4.54901   1.54952  -1.34109
H     3.37624   0.49404  -2.16823
H     5.04343  -0.06565  -1.85191
H    -2.74133   0.59235  -1.42144
H    -5.05375   0.19477  -1.47986
H    -4.52697  -1.32635  -0.69849
H    -5.08794   0.04074   0.30115
