30
Generated by autodE on: 2022-05-28. E = -903.619010 Ha
C     4.18359  -2.40268   0.74442
N     2.97252  -2.01972   0.05170
C     2.49104  -0.76777   0.05786
O     3.07892   0.19468   0.56718
C     1.17261  -0.58711  -0.70135
N     0.39447  -1.83649  -0.80235
N    -0.57999  -1.82346   0.25546
C    -0.06090  -2.47614   1.45480
C    -0.92902  -0.41963   0.50367
C    -2.11001   0.09346  -0.37464
O    -1.45629   0.37382  -1.62757
C    -0.50655   1.32145  -1.10088
C    -1.43058   2.26278  -0.34272
F    -1.14160   3.53559  -0.08919
C    -2.43116   1.50060   0.10263
F    -3.42578   1.79085   0.93657
C     0.24681   0.45413  -0.05470
H     4.57024  -3.33788   0.31828
H     4.94559  -1.61938   0.63032
H     4.01054  -2.55629   1.82388
H     2.32847  -2.72845  -0.29338
H     1.46535  -0.27704  -1.71712
H    -0.13018  -1.79886  -1.67403
H    -0.86692  -2.54571   2.19964
H     0.26289  -3.49535   1.20445
H     0.78721  -1.94286   1.92673
H    -1.14496  -0.26559   1.56708
H    -2.95207  -0.59721  -0.49030
H     0.10690   1.76909  -1.89102
H     0.76297   1.06672   0.69163
