17
Generated by autodE on: 2022-05-28. E = -397.481600 Ha
C     3.20439   0.58775   0.13643
N     2.59991  -0.71866   0.10386
N     1.31559  -0.66742   0.04924
C     0.44550   0.34480   0.01726
C    -0.95708  -0.04348  -0.04072
O    -1.30883  -1.24316  -0.06109
N    -1.85862   0.96435  -0.07027
C    -3.28281   0.71234  -0.12898
H     4.29451   0.47516   0.18371
H     2.87322   1.18039   1.01296
H     2.95119   1.18841  -0.76032
H     0.84156  -1.58338   0.02515
H     0.78455   1.37617   0.03744
H    -1.52397   1.92157  -0.05567
H    -3.62686   0.13101   0.74205
H    -3.81354   1.67227  -0.13962
H    -3.55790   0.14955  -1.03613
