17
Generated by autodE on: 2022-07-26. E = -397.460852 Ha
C    -1.86964  -0.24245   1.08358
N    -2.28070  -0.44311  -0.27772
N    -1.47629   0.02480  -1.17756
C    -0.25184   0.57476  -1.18611
C     0.86003   0.45035  -0.24062
O     1.70258   1.36314  -0.13984
N     1.02049  -0.72388   0.42146
C     2.14275  -0.93916   1.31205
H    -2.76142  -0.32947   1.71957
H    -1.41508   0.75961   1.22695
H    -1.12831  -0.97161   1.45418
H    -1.91610   0.03579  -2.10466
H    -0.02360   1.11850  -2.10347
H     0.43021  -1.51283   0.18688
H     2.19536  -0.14628   2.07374
H     3.10416  -0.94927   0.77035
H     2.01487  -1.90502   1.81698
