13
Generated by autodE on: 2022-05-28. E = -506.057105 Ha
F     1.98501  -0.83848  -0.73201
C     0.88960  -0.37830  -0.13554
C     0.44855   0.86600   0.04292
F     0.96677   2.03532  -0.31979
C    -0.96298   0.70772   0.63722
C    -1.87639   0.11672  -0.46817
C    -1.43407  -1.13049  -0.64691
C    -0.25744  -1.28186   0.35220
O    -0.74653  -0.47109   1.44132
H    -1.34130   1.55702   1.21679
H    -2.66624   0.66125  -0.98385
H    -1.75904  -1.89586  -1.35042
H     0.02418  -2.29341   0.66494
