30
Generated by autodE on: 2022-05-28. E = -903.510694 Ha. Imaginary frequency = -337.2 cm-1
C     4.24544  -2.51936   0.95668
N     3.11657  -2.24895   0.08841
C     2.59110  -1.00847  -0.02164
O     3.16165  -0.01198   0.44822
C     1.35665  -0.87896  -0.84299
N     0.34579  -1.77398  -0.91314
N    -0.36939  -2.30067   0.05304
C     0.32695  -2.57310   1.29193
C    -1.01036  -0.07917   0.80712
C    -2.16600   0.22747  -0.16650
O    -1.42970   0.38529  -1.40056
C    -0.53237   1.39830  -0.89594
C    -1.56786   2.41884  -0.39632
F    -1.34163   3.72933  -0.33505
C    -2.58889   1.68988   0.05610
F    -3.69098   2.05102   0.70943
C     0.05162   0.65355   0.33253
H     4.52695  -3.57474   0.85566
H     5.10974  -1.89506   0.68454
H     3.99951  -2.31695   2.01313
H     2.60655  -3.03141  -0.30557
H     1.50921  -0.32848  -1.77421
H    -0.22501  -1.64359  -1.74912
H    -0.43111  -2.81003   2.05018
H     0.98157  -3.45787   1.19074
H     0.94860  -1.74715   1.67672
H    -1.16234  -0.46631   1.81102
H    -2.97901  -0.50178  -0.25215
H     0.16483   1.76080  -1.65902
H     0.92014   1.00579   0.88420
