39
Generated by autodE on: 2022-05-29. E = -1026.634748 Ha
C     3.67769  -0.14032   2.48881
N     3.02279  -0.09837   1.19433
C     1.87183  -0.73960   0.96212
O     1.33334  -1.48821   1.78484
C     1.23743  -0.51801  -0.44395
C     0.45097   0.76627  -0.53124
C     1.10152   2.09146  -0.41707
O     2.31175   2.23632  -0.42914
O     0.23382   3.09124  -0.32545
C     0.77075   4.42294  -0.26437
C    -0.84166   0.50165  -0.82019
C    -1.90207   1.43062  -1.00106
N    -2.80941   2.13859  -1.16885
C    -1.07578  -0.99642  -0.99249
C    -1.61414  -1.31815  -2.39300
C    -2.12013  -1.43491   0.08259
O    -3.33079  -1.29690  -0.13043
N    -1.58197  -1.90297   1.21309
C    -2.35667  -2.27805   2.37553
N     0.24782  -1.52560  -0.71409
C     0.66689  -2.81283  -1.20790
H     4.66487   0.33041   2.40476
H     3.09484   0.39201   3.25906
H     3.80698  -1.18114   2.81847
H     3.30940   0.60656   0.51807
H     2.06420  -0.49973  -1.18239
H     1.35082   4.64029  -1.17245
H     1.41401   4.53195   0.62018
H    -0.09514   5.09035  -0.19412
H    -2.58364  -0.82924  -2.55335
H    -1.75787  -2.40196  -2.50589
H    -0.90511  -0.96963  -3.15729
H    -0.55566  -1.90330   1.26522
H    -3.42522  -2.18348   2.14560
H    -2.14794  -3.31869   2.66928
H    -2.11990  -1.62644   3.23215
H    -0.14738  -3.54411  -1.09749
H     0.98226  -2.80291  -2.27058
H     1.51377  -3.17735  -0.60572
