28
Generated by autodE on: 2022-05-29. E = -628.880853 Ha
C     4.36195   0.87980   1.12284
N     2.99412   0.89418   0.65719
C     2.29016  -0.26099   0.47367
O     2.85299  -1.35777   0.69393
C     0.92668  -0.01244   0.02887
N    -0.03559  -0.91323  -0.26236
C     0.33580  -2.34895  -0.28549
C    -1.33735  -0.63114  -0.55289
C    -2.23667  -1.74244  -1.02310
C    -1.88697   0.71078  -0.34206
O    -1.20829   1.73664  -0.10868
N    -3.24779   0.82289  -0.40137
C    -3.89670   2.08723  -0.12953
H     5.01254   0.29814   0.44926
H     4.73431   1.91118   1.16272
H     4.45046   0.43733   2.12988
H     2.53533   1.78511   0.50721
H     0.60984   1.02077  -0.05035
H     1.33797  -2.45260   0.13189
H     0.32449  -2.70789  -1.32227
H    -0.38736  -2.92243   0.30424
H    -2.65867  -2.34573  -0.19778
H    -3.07837  -1.33266  -1.59550
H    -1.72086  -2.43592  -1.70060
H    -3.82153  -0.01038  -0.39794
H    -3.50878   2.87784  -0.78969
H    -3.74668   2.42211   0.91211
H    -4.97395   1.97799  -0.30921
