11
Generated by autodE on: 2022-05-29. E = -397.625310 Ha
C    -3.18837   0.57596   0.46612
O    -1.75573   0.51824   0.61896
C    -1.08088  -0.07945  -0.35163
O    -1.55492  -0.57731  -1.34938
C     0.35157  -0.07741  -0.08346
C     1.55623  -0.11694   0.07461
C     2.91549  -0.15513   0.26270
N     4.07002  -0.18735   0.42340
H    -3.60257  -0.44070   0.41547
H    -3.55971   1.10012   1.35313
H    -3.44715   1.12949  -0.44739
