39
Generated by autodE on: 2022-05-29. E = -1026.519352 Ha. Imaginary frequency = -152.4 cm-1
C     2.41075  -0.03653   3.12591
N     2.05299   0.25650   1.75277
C     1.55443  -0.70187   0.95002
O     1.46111  -1.88712   1.30784
C     1.23598  -0.27925  -0.44060
C    -0.23484   1.60984  -0.56177
C     0.85536   2.55281  -0.46192
O     1.36718   2.90753   0.58970
O     1.26183   2.96419  -1.66363
C     2.39296   3.85314  -1.69114
C    -1.39450   1.19819  -0.70652
C    -2.70535   0.86578  -0.86813
N    -3.83573   0.58380  -1.00958
C    -0.83871  -1.45056  -0.79928
C    -1.77976  -2.09431  -1.77269
C    -1.17159  -1.60922   0.66677
O    -1.11872  -0.69708   1.49886
N    -1.61170  -2.83938   0.99577
C    -1.93391  -3.17619   2.36885
N     0.34286  -0.96753  -1.20842
C     0.56546  -0.86026  -2.66570
H     3.14156  -0.85761   3.17482
H     2.85607   0.85866   3.57766
H     1.52992  -0.33308   3.72048
H     1.94881   1.23005   1.46793
H     2.07310   0.14468  -0.99393
H     3.26470   3.37302  -1.22412
H     2.15859   4.78774  -1.16238
H     2.58810   4.05294  -2.75065
H    -2.78967  -2.11861  -1.34430
H    -1.48563  -3.13552  -2.00228
H    -1.83854  -1.54799  -2.72197
H    -1.58657  -3.58051   0.30375
H    -2.70601  -2.50088   2.76720
H    -2.30907  -4.20614   2.40365
H    -1.04450  -3.09589   3.01517
H     0.47495  -1.84965  -3.12911
H    -0.17212  -0.17614  -3.10600
H     1.57328  -0.47379  -2.83875
