35
Generated by autodE on: 2022-05-31. E = -1541.756451 Ha
C    -4.28410   2.55108   0.51497
N    -2.97490   2.02711   0.17766
C    -2.12280   1.54818   1.08816
O    -2.24975   1.61544   2.30635
C    -0.84486   0.87717   0.46344
C     0.16255   1.94299   0.36901
N     0.90772   2.82790   0.30539
O    -1.09242   0.40738  -0.86393
C    -1.58840  -0.93180  -0.79586
C    -3.06517  -0.94878  -0.78807
N    -4.22429  -0.97437  -0.79110
C    -0.99974  -1.55370   0.48551
C     0.28047  -2.43796   0.33391
O     0.91863  -2.18373   1.58703
C     1.07955  -0.76560   1.40890
C     1.75937  -0.69834   0.04212
C     2.76927   0.27249  -0.40743
O     3.13196   0.42149  -1.55830
O     3.26537   0.96387   0.62554
C     4.20752   1.99837   0.31637
C     1.23650  -1.74437  -0.62904
Cl    1.47099  -2.25973  -2.24094
C    -0.43061  -0.35461   1.29183
H    -4.52464   3.40309  -0.13542
H    -4.28420   2.88342   1.56002
H    -5.05837   1.77679   0.38603
H    -2.76456   1.84177  -0.79976
H    -1.26558  -1.44068  -1.71602
H    -1.75229  -2.11588   1.04799
H     0.10089  -3.50342   0.16130
H     1.61813  -0.30881   2.24301
H     4.47590   2.45802   1.27440
H     5.10001   1.57600  -0.16726
H     3.74683   2.74429  -0.34683
H    -0.85058  -0.27637   2.29820
