16
Generated by autodE on: 2022-05-31. E = -546.492512 Ha
C    -3.77626  -0.49909  -0.43665
N    -2.39610  -0.47588   0.00264
C    -1.40665   0.10217  -0.70922
O    -1.55706   0.65791  -1.80029
C    -0.05759   0.03362  -0.08773
C     0.21299  -0.54763   1.16610
N     0.36121  -1.04529   2.21264
O     0.88169   0.58822  -0.82269
C     2.15751   0.76685  -0.70567
C     2.92257   0.33867   0.39558
N     3.62239   0.01258   1.27161
H    -4.14549  -1.53380  -0.50869
H    -4.42282   0.05206   0.26457
H    -3.84239  -0.02851  -1.42415
H    -2.17603  -0.91151   0.89349
H     2.62018   1.28671  -1.54529
