19
Generated by autodE on: 2022-05-31. E = -995.131156 Ha
C    -3.66184   1.07589  -0.32758
O    -2.23924   1.04855  -0.49703
C    -1.60469  -0.06365  -0.08572
O    -2.17959  -1.01918   0.40493
C    -0.16429   0.04429  -0.30439
C     0.83587  -0.73007   0.15799
Cl    0.80647  -2.12506   1.13931
C     2.14801  -0.02768  -0.26395
C     2.24151   1.26186   0.58397
C     1.26361   2.04363   0.11848
C     0.58351   1.21494  -0.99454
O     1.72172   0.50613  -1.52412
H    -3.92611   0.97907   0.73572
H    -4.13386   0.25994  -0.89430
H    -3.99446   2.04653  -0.71325
H     3.03555  -0.66345  -0.34249
H     2.93744   1.41809   1.40686
H     0.93547   3.02697   0.45284
H     0.02919   1.75273  -1.76892
