35
Generated by autodE on: 2022-05-31. E = -1541.624415 Ha. Imaginary frequency = -227.3 cm-1
C    -4.53075   2.24144   0.58845
N    -3.20193   2.03817   0.04083
C    -2.14777   1.76588   0.82540
O    -2.15141   1.87957   2.05336
C    -0.88455   1.37166   0.10542
C     0.24201   2.20352   0.31596
N     1.13341   2.91921   0.54293
O    -0.82928   0.61833  -0.98481
C    -1.55461  -0.42176  -1.33055
C    -2.90279  -0.63860  -0.96802
N    -4.00660  -0.91900  -0.71224
C    -0.89881  -1.68493   0.88796
C     0.28743  -2.60628   0.52503
O     1.12263  -2.42552   1.68459
C     1.18413  -0.98207   1.57672
C     1.71928  -0.83835   0.13716
C     2.65790   0.16576  -0.37359
O     2.86659   0.39278  -1.55133
O     3.29073   0.79429   0.62624
C     4.22373   1.81627   0.25471
C     1.14352  -1.86623  -0.51450
Cl    1.25013  -2.34544  -2.15085
C    -0.33313  -0.66036   1.58512
H    -5.18398   2.62931  -0.20201
H    -4.49760   2.96310   1.41619
H    -4.94852   1.29297   0.96504
H    -3.10530   1.95870  -0.96725
H    -1.15671  -0.95441  -2.19391
H    -1.93944  -1.99494   0.85865
H     0.06219  -3.65605   0.31604
H     1.78897  -0.52965   2.36639
H     4.60679   2.23124   1.19402
H     5.04695   1.38834  -0.33581
H     3.72036   2.59990  -0.32792
H    -0.80523   0.05618   2.25199
