41
Generated by autodE on: 2022-05-29. E = -1192.682099 Ha
C     4.13783  -1.70567  -0.71654
N     3.06538  -0.76067  -0.49236
C     2.36148  -0.70351   0.64717
O     2.60456  -1.40762   1.63927
C     1.22057   0.30468   0.67314
N     1.19318   1.18809  -0.48428
C    -0.14950   1.80459  -0.55311
C    -0.22321   2.97306   0.44881
C    -0.40878   2.34774  -1.95705
C    -1.08236   0.59676  -0.16133
Cl   -2.56768   1.25077   0.69825
C    -1.53995  -0.31503  -1.33017
C    -2.53411  -1.38982  -0.83495
C    -1.64127  -2.34446   0.00711
C    -0.24669  -1.69439  -0.10066
C    -0.28709  -1.18405  -1.55493
C    -0.19108  -0.37181   0.72959
C    -0.60276  -0.54056   2.18760
H     4.83197  -1.30564  -1.46770
H     3.76045  -2.67946  -1.07349
H     4.68456  -1.87559   0.22091
H     2.71849  -0.17982  -1.25238
H     1.35942   0.85476   1.62129
H     1.89659   1.92075  -0.39178
H     0.60685   3.66359   0.22898
H    -1.16348   3.53249   0.36343
H    -0.12240   2.63397   1.48956
H    -1.44736   2.70021  -2.05037
H    -0.22016   1.59143  -2.73033
H     0.25684   3.20323  -2.15206
H    -1.91233   0.25145  -2.19075
H    -3.36684  -0.96266  -0.26462
H    -2.95909  -1.90710  -1.70781
H    -1.60750  -3.35081  -0.43648
H    -1.98939  -2.46013   1.04147
H     0.56783  -2.38282   0.15829
H    -0.47362  -1.99202  -2.27883
H     0.59767  -0.61991  -1.86081
H    -0.55121   0.42032   2.71934
H    -1.62322  -0.92674   2.29740
H     0.09266  -1.23677   2.68050
