20
Generated by autodE on: 2022-05-29. E = -771.828691 Ha
C     2.29247  -0.83800  -0.26638
C     0.91852  -0.30765  -0.47377
C     0.19069   0.53567   0.28009
Cl    0.66593   1.26655   1.79158
C    -1.23766   0.57801  -0.22828
C    -1.85242  -0.81498   0.12345
C    -1.03362  -1.78722  -0.77596
C    -0.05643  -0.82659  -1.53022
C    -0.96751   0.40090  -1.73665
H     2.26328  -1.92875  -0.09470
H     2.78097  -0.36659   0.59878
H     2.92210  -0.67729  -1.15809
H    -1.83088   1.44349   0.09125
H    -2.92264  -0.83418  -0.13202
H    -1.75751  -1.03488   1.19659
H    -1.68241  -2.31104  -1.49423
H    -0.48775  -2.54890  -0.20036
H     0.41561  -1.26386  -2.42025
H    -0.44201   1.25830  -2.18209
H    -1.87709   0.17606  -2.31540
