21
Generated by autodE on: 2022-05-29. E = -420.790717 Ha
C     3.77613  -0.15198  -0.07830
N     2.50382   0.53646  -0.05661
C     1.32567  -0.15486   0.11112
O     1.34192  -1.35282   0.51307
C     0.11430   0.54429  -0.15846
N    -1.03807  -0.16804   0.05780
C    -2.29857   0.16194  -0.07873
C    -2.63306   1.53663  -0.54096
C    -3.35951  -0.83956   0.22759
H     3.91536  -0.78421  -0.97617
H     3.87483  -0.80266   0.80208
H     4.58903   0.58665  -0.05190
H     2.44631   1.41138  -0.56719
H     0.05705   1.57348  -0.50164
H    -0.82799  -1.12101   0.38049
H    -2.21934   2.29704   0.14750
H    -2.18894   1.74038  -1.53329
H    -3.71961   1.67790  -0.60766
H    -3.98880  -1.02871  -0.66029
H    -4.03591  -0.46579   1.01659
H    -2.92895  -1.79577   0.56025
