41
Generated by autodE on: 2022-05-29. E = -1192.602601 Ha. Imaginary frequency = -325.1 cm-1
C     3.92510  -2.05656  -0.49735
N     3.12384  -0.84859  -0.51171
C     2.56604  -0.37568   0.64429
O     2.89876  -0.87590   1.74475
C     1.56561   0.66849   0.60169
N     1.22482   1.37745  -0.51626
C     0.13583   2.15906  -0.61175
C    -0.23266   3.02200   0.55467
C    -0.25677   2.63306  -1.97449
C    -1.36365   0.27585  -0.04148
Cl   -2.70329   1.15188   0.74313
C    -1.70768  -0.45093  -1.33579
C    -2.59059  -1.67351  -0.93838
C    -1.59016  -2.57904  -0.15963
C    -0.26204  -1.75298  -0.19531
C    -0.37013  -1.15669  -1.61253
C    -0.50859  -0.54060   0.70373
C    -0.52235  -0.67893   2.19453
H     4.35992  -2.20790  -1.49402
H     3.33414  -2.95208  -0.23344
H     4.74365  -1.96971   0.23131
H     2.71106  -0.60040  -1.40269
H     1.34648   1.12841   1.55997
H     1.56085   1.02044  -1.40780
H     0.49941   3.84894   0.62985
H    -1.22543   3.46320   0.40873
H    -0.23610   2.48667   1.51191
H    -1.35369   2.69995  -2.04054
H     0.09834   1.95169  -2.76189
H     0.14035   3.64429  -2.18236
H    -2.12004   0.17597  -2.13750
H    -3.45111  -1.36183  -0.32960
H    -2.97740  -2.17822  -1.83723
H    -1.44325  -3.54427  -0.66850
H    -1.91519  -2.79325   0.86846
H     0.63728  -2.33924   0.03799
H    -0.45547  -1.93192  -2.38925
H     0.43631  -0.47496  -1.89174
H    -0.69206   0.28956   2.68594
H    -1.33866  -1.35286   2.51555
H     0.42434  -1.09698   2.56771
