52
Generated by autodE on: 2022-10-13. E = -948.100091 Ha
C     0.42445   1.57221   2.69909
C     0.34871   0.53598   1.85061
C     0.33300  -0.88539   2.34449
C     0.33250   0.78447   0.35895
C     1.31095  -0.10069  -0.44166
C     2.72929   0.36275  -0.33258
C     3.81053  -0.36708  -0.00015
C     5.17678   0.26227   0.07678
C     3.78149  -1.83749   0.32244
C     0.72107  -0.05793  -1.85562
C     1.26448  -1.14613  -2.76843
N    -0.71018  -0.18517  -1.58170
C    -1.58737  -0.13225  -2.73739
C    -1.04934   0.63665  -0.39753
C    -1.47640   2.03906  -0.94030
C    -2.93214   2.32967  -1.20422
O    -0.63048   2.86755  -1.23941
C    -2.15250   0.01163   0.44338
C    -2.71211   0.74456   1.50242
C    -3.69122   0.18304   2.32368
C    -4.13357  -1.12498   2.09695
C    -3.58851  -1.85998   1.04103
C    -2.60445  -1.29521   0.22290
H     0.46260   2.60324   2.33431
H     0.44217   1.42391   3.78341
H    -0.45009  -1.47850   1.84848
H     1.29258  -1.38379   2.12595
H     0.16999  -0.92846   3.43115
H     0.63929   1.82447   0.19900
H     1.21887  -1.14031  -0.10107
H     2.88173   1.42793  -0.55048
H     5.15200   1.33613  -0.16115
H     5.60808   0.13999   1.08638
H     5.87774  -0.23249  -0.61877
H     2.78446  -2.28602   0.22795
H     4.14413  -2.01397   1.35040
H     4.46747  -2.38819  -0.34470
H     0.94949   0.93024  -2.31349
H     0.88096  -1.05819  -3.79586
H     2.36157  -1.06761  -2.81543
H     1.00738  -2.14595  -2.38299
H    -2.63383  -0.26162  -2.42971
H    -1.34650  -0.95936  -3.42050
H    -1.50911   0.81044  -3.31889
H    -3.55360   1.43123  -1.28434
H    -3.01308   2.94437  -2.11199
H    -3.31746   2.92445  -0.35935
H    -2.37276   1.76411   1.69332
H    -4.11029   0.76897   3.14538
H    -4.90023  -1.56599   2.73859
H    -3.92728  -2.88174   0.85220
H    -2.17109  -1.87482  -0.59135
