23
Generated by autodE on: 2022-10-13. E = -351.521382 Ha
C     3.51082   0.51227  -1.30763
C     2.53244   0.35316  -0.38930
C     2.83701   0.34621   1.08695
C     1.14666   0.18295  -0.82158
C     0.07777   0.01331  -0.00332
C    -1.27799  -0.15198  -0.48671
C    -2.39654  -0.33097   0.26056
C    -3.74076  -0.48674  -0.39267
C    -2.41463  -0.39073   1.76161
H     4.55583   0.64136  -1.01237
H     3.28626   0.51682  -2.37874
H     2.52236  -0.60229   1.55310
H     3.91174   0.48255   1.27260
H     2.29068   1.14919   1.60920
H     0.97814   0.19580  -1.90519
H     0.23814  -0.00032   1.07823
H    -1.39748  -0.12800  -1.57669
H    -3.67870  -0.43690  -1.48968
H    -4.43748   0.29766  -0.04603
H    -4.20314  -1.45023  -0.11209
H    -2.84375  -1.35038   2.10008
H    -3.07282   0.39782   2.16742
H    -1.42401  -0.27880   2.22057
