29
Generated by autodE on: 2022-10-16. E = -596.535348 Ha
C     2.76303  -1.51629  -2.44169
C     1.86070  -0.50530  -1.84213
N     1.15653  -0.71271  -0.76749
C     1.19562  -2.03913  -0.12488
C     0.50213   0.36043  -0.08198
C     1.24281   1.56127   0.06187
C     0.62458   2.73979   0.79985
O     2.40910   1.73025  -0.39803
C    -0.84519   0.05958   0.41496
C    -1.33261   0.50674   1.66504
C    -2.62345   0.19474   2.09488
C    -3.46696  -0.59835   1.30928
C    -2.99460  -1.07734   0.08238
C    -1.71211  -0.75061  -0.35824
H     2.19483  -2.40431  -2.77039
H     3.28400  -1.09297  -3.30911
H     3.50872  -1.87166  -1.71027
H     1.75175   0.47403  -2.30567
H     2.21891  -2.23960   0.22474
H     0.90019  -2.82014  -0.83732
H     0.51596  -2.04460   0.73077
H     0.89286   2.71509   1.86911
H     1.05095   3.65981   0.37393
H    -0.47010   2.77949   0.72694
H    -0.68247   1.08177   2.32370
H    -2.96588   0.55934   3.06702
H    -4.47361  -0.84771   1.65269
H    -3.63524  -1.70326  -0.54453
H    -1.37216  -1.12177  -1.32794
