29
Generated by autodE on: 2022-10-13. E = -596.535472 Ha
C    -3.70842   1.43846  -0.13763
C    -2.44703   0.82798  -0.61792
N    -1.48168   0.45099   0.16810
C    -1.59853   0.68319   1.61911
C    -0.40252  -0.35952  -0.31230
C    -0.75966  -1.44163  -1.15702
C     0.32576  -2.35998  -1.69928
O    -1.94729  -1.70101  -1.50700
C     0.92944   0.02535   0.16469
C     1.23829   1.39629   0.34392
C     2.48561   1.81076   0.81055
C     3.48032   0.87247   1.10723
C     3.19349  -0.48783   0.94913
C     1.93949  -0.90628   0.50117
H    -4.38947   1.61534  -0.97898
H    -4.20857   0.79238   0.60361
H    -3.51045   2.40187   0.36452
H    -2.28199   0.67906  -1.68437
H    -2.44048   0.09347   2.01061
H    -1.77879   1.74629   1.82441
H    -0.67577   0.36362   2.10969
H    -0.02357  -2.75327  -2.66511
H     0.48146  -3.22069  -1.02783
H     1.29376  -1.86111  -1.83898
H     0.48416   2.14880   0.10208
H     2.68593   2.87856   0.93284
H     4.46020   1.19570   1.46610
H     3.94918  -1.23769   1.19794
H     1.73210  -1.97402   0.44089
