52
Generated by autodE on: 2022-10-13. E = -948.038939 Ha. Imaginary frequency = -432.9 cm-1
C    -0.02822   1.16878   3.18410
C     0.31134   0.29267   2.20338
C     0.13527  -1.18980   2.41349
C     0.86522   0.77759   0.95193
C     1.66876   0.02105   0.06016
C     2.81208   0.71918  -0.56887
C     4.02182   0.21226  -0.88401
C     5.07364   1.07158  -1.53424
C     4.44203  -1.20979  -0.62542
C     0.60759  -0.42466  -1.61446
C     1.32073  -1.55142  -2.30336
N    -0.67264  -0.61437  -1.15432
C    -1.08844  -2.00586  -0.93348
C    -1.33452   0.41222  -0.51745
C    -0.99154   1.81157  -0.71883
C    -1.70917   2.81743   0.16275
O    -0.20924   2.24618  -1.59421
C    -2.69694   0.12262   0.03653
C    -2.98891   0.16492   1.40676
C    -4.28531  -0.08303   1.86765
C    -5.31287  -0.37633   0.96721
C    -5.03582  -0.41466  -0.40363
C    -3.74216  -0.16234  -0.86344
H     0.10495   2.24644   3.05239
H    -0.43558   0.82357   4.13799
H    -0.58821  -1.60622   1.69711
H     1.08140  -1.73518   2.26537
H    -0.22829  -1.40469   3.42822
H     0.95312   1.86512   0.88325
H     1.84815  -1.01722   0.35331
H     2.62392   1.77408  -0.80213
H     4.72134   2.10045  -1.70187
H     5.98911   1.11438  -0.91685
H     5.38084   0.64916  -2.50816
H     3.67724  -1.80432  -0.10883
H     5.36378  -1.23379  -0.01713
H     4.68627  -1.72154  -1.57316
H     0.73836   0.55543  -2.06062
H     0.78169  -1.85432  -3.21768
H     2.31725  -1.20597  -2.60655
H     1.44348  -2.44396  -1.67354
H    -1.22447  -2.51419  -1.89772
H    -2.02596  -2.04711  -0.37781
H    -0.31794  -2.53983  -0.36114
H    -2.77866   2.87526  -0.09489
H    -1.25225   3.80275  -0.00138
H    -1.64284   2.55724   1.22958
H    -2.19931   0.40104   2.11850
H    -4.49073  -0.04687   2.94047
H    -6.32540  -0.56961   1.32952
H    -5.83165  -0.63637  -1.11892
H    -3.53220  -0.18946  -1.93532
