23
Generated by autodE on: 2022-07-27. E = -609.135901 Ha
C     3.04734   3.56448  -0.52703
N     1.88766   3.32720   0.30805
C     1.15839   2.17083   0.16369
O     1.61765   1.19024  -0.47256
N    -0.05323   2.23677   0.78335
O    -0.76283   1.03053   0.48274
C    -0.17005  -0.08359   0.68194
C    -0.74958  -1.30409   0.20178
C    -1.89599  -1.31069  -0.62503
C    -2.42732  -2.52160  -1.04944
C    -1.82101  -3.72796  -0.66613
C    -0.68054  -3.72809   0.14529
C    -0.14215  -2.52059   0.58057
H     2.79215   3.76151  -1.58494
H     3.59900   4.43229  -0.14020
H     3.71432   2.69182  -0.50100
H     1.35204   4.14352   0.58688
H     0.71845  -0.10701   1.31847
H    -2.35048  -0.36501  -0.92414
H    -3.31378  -2.53533  -1.68656
H    -2.24208  -4.67616  -1.00811
H    -0.21448  -4.67141   0.43601
H     0.74615  -2.50236   1.21584
