45
Generated by autodE on: 2022-06-23. E = -1275.363054 Ha
C    -3.48925   0.48425  -2.43449
O    -3.19064   0.21179  -1.05415
C    -2.01165   0.61581  -0.59657
O    -1.20498   1.23086  -1.26371
C    -1.80468   0.17932   0.87378
C    -2.86481   0.88790   1.71476
N    -1.93792  -1.27255   1.01153
C    -0.77816  -1.89200   0.38527
C    -0.59574  -3.25578   0.92101
N    -0.48698  -4.33262   1.33382
C    -0.98608  -2.06671  -1.08356
N    -1.32428  -2.20463  -2.18423
C     0.42126  -0.90171   0.76181
C     1.37588  -1.56017   1.78329
C     1.33366  -0.67666  -0.44219
O     1.59528  -1.61334  -1.18768
C     2.00087   0.61780  -0.60558
O     3.00779   0.67373  -1.51782
C     4.20507  -0.04319  -1.19288
C     1.51258   1.74697  -0.00533
O     1.97682   2.98728  -0.10551
C     3.27512   3.29374  -0.63227
C     0.25461   1.71071   0.80644
O    -0.25002   2.76202   1.15884
C    -0.31135   0.38287   1.31013
C    -0.21928   0.49008   2.84761
H    -3.45904   1.56619  -2.62369
H    -4.49793   0.09244  -2.60552
H    -2.76378  -0.02903  -3.08098
H    -2.81053   0.56467   2.76065
H    -3.86228   0.64127   1.32630
H    -2.72660   1.97578   1.66100
H    -2.82034  -1.63042   0.64347
H     1.86631  -2.42702   1.32221
H     0.84329  -1.89273   2.68145
H     2.15338  -0.84261   2.07474
H     4.88055   0.07622  -2.04961
H     4.67438   0.38508  -0.29217
H     4.00365  -1.11205  -1.03231
H     4.04686   2.68327  -0.14190
H     3.43711   4.35298  -0.39611
H     3.30682   3.14285  -1.71797
H     0.82671   0.57915   3.16627
H    -0.66196  -0.38923   3.33012
H    -0.74603   1.38771   3.18842
