19
Generated by autodE on: 2022-06-23. E = -585.881483 Ha
C     4.21113  -0.17748  -0.00655
O     2.89167  -0.41304   0.51202
C     1.87740   0.05369  -0.20338
O     1.99462   0.66443  -1.25505
C     0.55448  -0.24326   0.40281
C     0.36803  -0.97833   1.67766
N    -0.43359   0.22237  -0.32656
C    -1.79681   0.18774  -0.19412
C    -2.47640  -0.45585   0.86307
N    -3.11611  -0.96490   1.69731
C    -2.56726   0.82962  -1.18890
N    -3.21922   1.35611  -2.00286
H     4.39927   0.90236  -0.09015
H     4.32041  -0.64852  -0.99380
H     4.90123  -0.63180   0.71279
H    -0.20156  -0.37019   2.39856
H    -0.19363  -1.91220   1.51261
H     1.33994  -1.22640   2.11538
H    -0.09657   0.71036  -1.17064
