45
Generated by autodE on: 2022-06-23. E = -1275.323092 Ha. Imaginary frequency = -336.0 cm-1
C    -1.44589   2.77083  -1.85402
O    -1.69207   2.02405  -0.64979
C    -1.62530   0.70035  -0.73405
O    -1.35362   0.09630  -1.75114
C    -1.96362   0.03966   0.56984
C    -2.98544   0.75416   1.40377
N    -2.02966  -1.32282   0.57602
C    -1.00573  -2.18121   0.18621
C    -1.02945  -3.44456   0.86505
N    -1.01902  -4.45940   1.43303
C    -0.54662  -2.34292  -1.16449
N    -0.09769  -2.64619  -2.19372
C     0.69918  -0.99371   1.17611
C     1.18609  -2.06418   2.12012
C     1.61127  -0.77548   0.00856
O     2.28238  -1.69892  -0.44766
C     1.74652   0.57403  -0.57624
O     2.54956   0.67768  -1.67303
C     1.97602   0.22054  -2.90427
C     1.19343   1.66019   0.03793
O     1.29486   2.94611  -0.28988
C     2.10383   3.41671  -1.37403
C     0.36880   1.48453   1.28228
O     0.05013   2.47590   1.92786
C    -0.04454   0.12103   1.68760
C    -0.56577   0.02265   3.09993
H    -0.50530   2.45285  -2.32022
H    -2.27677   2.61911  -2.55755
H    -1.38794   3.82022  -1.54744
H    -2.59566   1.73260   1.71297
H    -3.89731   0.93298   0.81098
H    -3.24972   0.16924   2.29390
H    -2.54328  -1.68401   1.37993
H     1.60534  -2.91138   1.56493
H     0.40368  -2.42802   2.79471
H     1.99032  -1.63805   2.74556
H     2.74474   0.35992  -3.67558
H     1.08474   0.81585  -3.15963
H     1.69834  -0.84187  -2.84732
H     3.15733   3.15047  -1.21741
H     1.98822   4.50776  -1.36377
H     1.75481   3.01812  -2.33581
H    -1.18171  -0.87666   3.23979
H     0.27972  -0.04759   3.80429
H    -1.15061   0.90590   3.37507
