27
Generated by autodE on: 2022-05-28. E = -1183.348791 Ha
C     3.50084  -1.04000   1.16590
O     2.10666  -0.69253   1.23248
C     1.68666   0.26282   0.41590
O     2.40390   0.88012  -0.34139
C     0.19445   0.52535   0.50584
N     0.01797   2.00318   0.45026
N    -0.65816   2.37365  -0.51438
C    -1.08098   1.27599  -1.40527
C    -2.54118   1.41667  -1.79784
C    -0.66732  -0.02119  -0.68088
Cl    0.16830  -1.14999  -1.81506
C    -1.80305  -0.75713   0.10589
C    -1.20827  -1.99300   0.76094
C    -0.46912  -1.53484   1.77738
C    -0.61136  -0.02210   1.73264
O    -1.94444   0.13962   1.21618
H     3.75296  -1.38927   0.15477
H     4.12135  -0.17038   1.42342
H     3.64376  -1.84380   1.89643
H    -0.45695   1.38963  -2.30545
H    -3.19575   1.41228  -0.91491
H    -2.83089   0.58988  -2.46245
H    -2.69144   2.36268  -2.33730
H    -2.73892  -0.87405  -0.44754
H    -1.32803  -3.01465   0.40424
H     0.16686  -2.08410   2.46787
H    -0.45887   0.54605   2.65560
