19
Generated by autodE on: 2022-05-28. E = -995.131162 Ha
C     3.51817   1.16726  -0.98238
O     2.10644   1.18451  -0.73710
C     1.60053   0.14209  -0.05398
O     2.27962  -0.78442   0.35186
C     0.15687   0.28066   0.12121
C    -0.74460  -0.61612   0.56507
Cl   -0.55056  -2.22169   1.10673
C    -2.13055   0.04441   0.37721
C    -2.37681   0.10897  -1.14766
C    -1.49876   1.01148  -1.59342
C    -0.72456   1.47184  -0.33782
O    -1.77057   1.40449   0.65217
H     3.73964   2.08328  -1.54227
H     4.07471   1.15803  -0.03372
H     3.79666   0.28338  -1.57486
H    -2.93614  -0.32706   1.01838
H    -3.08633  -0.51269  -1.69176
H    -1.29013   1.34045  -2.61062
H    -0.23802   2.45091  -0.36508
