25
Generated by autodE on: 2022-07-27. E = -573.277530 Ha
C     4.59856  -0.46938   2.39258
N     3.96968   0.01554   1.18502
C     2.61263  -0.06027   1.00876
O     1.87038  -0.41750   1.95749
C     2.13739   0.30539  -0.29438
N     0.82429   0.29571  -0.64095
C    -0.28240  -0.00568   0.02555
C    -1.60065   0.04798  -0.56310
C    -2.70327  -0.30645   0.25055
C    -4.00406  -0.28011  -0.24813
C    -4.24683   0.10104  -1.57312
C    -3.16673   0.45557  -2.39209
C    -1.86350   0.43096  -1.90062
H     5.66707  -0.21892   2.36578
H     4.50209  -1.56411   2.51422
H     4.15473   0.00092   3.28327
H     4.55066   0.16646   0.36789
H     2.81972   0.60924  -1.08542
H     0.67998   0.57701  -1.61354
H    -0.15734  -0.30654   1.06207
H    -2.52028  -0.60489   1.28587
H    -4.83684  -0.55932   0.40212
H    -5.26616   0.12232  -1.96486
H    -3.34282   0.75526  -3.42816
H    -1.04733   0.71444  -2.57031
