25
Generated by autodE on: 2022-06-02. E = -573.281269 Ha
C     4.93785  -0.10777  -0.15274
N     4.07878  -0.86351   0.73383
C     2.71872  -0.81180   0.75536
O     2.06484  -1.50857   1.57936
C     2.05245   0.05180  -0.18078
N     0.70249   0.04869  -0.09925
C    -0.21732   0.70141  -0.78328
C    -1.63650   0.56946  -0.54911
C    -2.19551  -0.27372   0.44139
C    -3.57578  -0.35126   0.61129
C    -4.43939   0.40324  -0.19396
C    -3.90123   1.24149  -1.17720
C    -2.52143   1.32480  -1.35380
H     4.74774  -0.34223  -1.21360
H     5.98233  -0.36255   0.06699
H     4.81864   0.98081  -0.01937
H     4.49979  -1.48120   1.41919
H     2.53148   0.68507  -0.92272
H     0.39289  -0.59443   0.64500
H     0.13820   1.37429  -1.56630
H    -1.55291  -0.87667   1.08797
H    -3.98437  -1.00912   1.38227
H    -5.52070   0.33736  -0.05472
H    -4.56314   1.83561  -1.81210
H    -2.10724   1.98109  -2.12329
