33
Generated by autodE on: 2022-10-21. E = -913.831557 Ha
C     3.89094  -2.11889   0.60496
N     2.66670  -1.53784   0.09535
C     2.00730  -0.54847   0.70458
O     2.35848   0.01452   1.74358
C     0.68528  -0.13805   0.01514
C     0.68183   1.39288  -0.13596
O     0.96423   1.94255  -1.18120
O     0.36558   2.02661   0.98069
C     0.31531   3.46291   0.92345
C    -0.52241  -0.65303   0.80634
C    -1.57141  -0.68950  -0.29736
O    -2.60252  -1.54912   0.01928
C    -3.56842  -1.77230  -1.01255
O    -2.02198   0.58999  -0.67548
C    -2.80744   1.30102   0.27887
O    -0.85896  -1.18461  -1.41597
N     0.52451  -0.76672  -1.30916
H     3.70752  -3.10040   1.07192
H     4.61494  -2.25236  -0.21154
H     4.32116  -1.44834   1.35908
H     2.23136  -1.90097  -0.75084
H     1.29958   3.86735   0.64909
H     0.03203   3.79297   1.92887
H    -0.43659   3.78288   0.18842
H    -0.77956  -0.01853   1.65837
H    -0.34462  -1.67952   1.15123
H    -4.36111  -2.38603  -0.56616
H    -3.11953  -2.31393  -1.85945
H    -3.99809  -0.82590  -1.37358
H    -3.67643   0.70824   0.60417
H    -2.21411   1.58938   1.16078
H    -3.15911   2.21109  -0.22473
H     0.62569  -0.02600  -2.01059
