14
Generated by autodE on: 2022-10-21. E = -307.788272 Ha
C    -0.92299   1.08770   1.11441
C    -0.10958   0.34801   0.33457
O     1.23175   0.52954   0.36803
C     2.06811  -0.27685  -0.46062
O    -0.47462  -0.61354  -0.53407
C    -1.85897  -0.91071  -0.66280
H    -2.00309   0.96107   1.10265
H    -0.47913   1.83375   1.77367
H     3.09518   0.05109  -0.25489
H     1.97038  -1.34577  -0.21625
H     1.84444  -0.12826  -1.52819
H    -1.93615  -1.71292  -1.40720
H    -2.27774  -1.25460   0.29687
H    -2.41983  -0.02800  -1.01042
