19
Generated by autodE on: 2022-10-21. E = -605.997380 Ha
C    -3.48324   0.90122  -0.26415
N    -2.04780   0.72679  -0.18801
C    -1.45922  -0.45819   0.00290
O    -2.06567  -1.53570   0.12948
C     0.04229  -0.47168   0.06525
N     0.50708  -1.69891   0.25000
O     1.66682  -2.12685   0.35470
C     0.89990   0.72186  -0.06056
O     0.44819   1.84722  -0.22728
O     2.20013   0.46848   0.02322
C     3.08287   1.59751  -0.09105
H    -3.83831   1.56487   0.53975
H    -3.97343  -0.07347  -0.16188
H    -3.76989   1.34542  -1.22997
H    -1.42856   1.53376  -0.27190
H    -0.28759  -2.37829   0.31083
H     4.09643   1.19126  -0.00139
H     2.95087   2.08872  -1.06546
H     2.88593   2.31917   0.71437
