52
Generated by autodE on: 2022-06-03. E = -1297.013637 Ha. Imaginary frequency = -312.8 cm-1
C     1.51641  -3.35199   1.71354
N     0.95555  -2.01651   1.69945
C     1.71178  -0.94995   1.40125
O     2.95277  -1.01128   1.29571
C     0.99725   0.35458   1.24129
C     1.68071   1.66373   1.54212
O     0.98756   2.67940   1.71659
N     3.01578   1.66854   1.56836
C     3.76604   2.90182   1.67515
N    -0.33743   0.47974   1.37103
N    -1.13783  -0.40373   0.77471
C    -2.52207  -0.21029   0.97243
C    -3.09891   0.96122   1.49656
C    -4.48610   1.06273   1.61883
C    -5.31688   0.01111   1.21985
C    -4.74608  -1.15924   0.70756
C    -3.36149  -1.27363   0.59340
C    -0.63181  -0.12149  -1.16805
C    -1.61495   0.92342  -1.59365
C    -0.74446  -1.54850  -1.75599
C    -0.24902  -1.46566  -3.21378
C     1.07614  -1.30720  -3.11773
C     1.36193  -1.27742  -1.60085
O     0.36548  -2.19395  -1.12661
C     0.78741   0.07638  -1.10437
C     1.48009   1.33586  -1.34862
C     2.94955   1.24189  -1.69271
O     0.91983   2.43638  -1.28304
H     0.79428  -4.03752   2.17520
H     1.73680  -3.70879   0.69321
H     2.44652  -3.37106   2.29680
H    -0.03597  -1.91126   1.47344
H     3.46990   0.76483   1.41145
H     3.67290   3.35011   2.67789
H     3.40460   3.63841   0.94065
H     4.82470   2.69134   1.48069
H    -0.62143   1.46621   1.47323
H    -2.48350   1.80219   1.81921
H    -4.92002   1.97688   2.03073
H    -6.40111   0.09919   1.31747
H    -5.38238  -1.99493   0.40719
H    -2.91068  -2.19364   0.21955
H    -1.35906   1.26337  -2.61167
H    -1.58930   1.80445  -0.94042
H    -2.63691   0.51993  -1.61549
H    -1.68871  -2.07111  -1.57661
H    -0.88618  -1.47826  -4.09734
H     1.81520  -1.15037  -3.90277
H     2.36364  -1.55541  -1.26152
H     3.47130   0.54738  -1.01963
H     3.06059   0.84933  -2.71782
H     3.40919   2.23751  -1.64083
