44
Generated by autodE on: 2022-06-03. E = -1220.237040 Ha
C     3.30818  -3.09385  -0.33062
O     2.93460  -1.72579  -0.11787
C     2.04189  -1.49288   0.85227
O     1.58062  -2.38033   1.55438
C     1.66510  -0.08462   0.99460
C     2.24065   1.05319   0.53706
C     3.40046   1.30940  -0.34829
C     1.36328   2.16542   1.10245
O     0.90891   1.60806   2.34526
C     0.44783   0.36107   1.79518
C    -0.66269   0.90374   0.83093
C     0.02648   2.18936   0.29109
N     0.15104   2.05482  -1.16376
C    -0.64450   3.01978  -1.91674
N    -0.17417   0.71240  -1.52528
C    -1.02077   0.13421  -0.45842
C    -2.48652   0.30323  -0.89763
O    -3.00366  -0.42855  -1.71654
O    -3.09749   1.33699  -0.33567
C    -4.43386   1.62561  -0.78068
C    -0.79855  -1.37529  -0.38972
O    -0.05962  -1.99135  -1.12602
O    -1.52630  -1.91488   0.57908
C    -1.46177  -3.34589   0.73187
H     2.43064  -3.68034  -0.63969
H     3.73739  -3.52877   0.58325
H     4.05568  -3.08074  -1.13224
H     4.06876   2.05820   0.10833
H     3.96371   0.39815  -0.57706
H     3.03758   1.75075  -1.29187
H     1.84419   3.13960   1.24379
H     0.09500  -0.32257   2.57255
H    -1.55261   1.12169   1.42672
H    -0.52760   3.10064   0.54776
H    -0.29479   4.03445  -1.67601
H    -1.72805   2.96801  -1.70140
H    -0.49257   2.85371  -2.99196
H     0.68472   0.16162  -1.56152
H    -5.09460   0.77172  -0.57614
H    -4.43306   1.84456  -1.85779
H    -4.75569   2.50460  -0.21142
H    -1.78359  -3.83743  -0.19678
H    -0.43769  -3.64809   0.98512
H    -2.14788  -3.58813   1.55080
