22
Generated by autodE on: 2022-06-03. E = -574.845784 Ha
C     3.49767   0.73820   0.92407
O     2.15564   0.23701   0.93226
C     1.46947   0.33359  -0.21945
O     1.95587   0.80490  -1.23825
C     0.10528  -0.17352  -0.14555
C    -0.69247  -0.51266   0.89122
C    -0.50772  -0.54684   2.35881
C    -2.06432  -0.79921   0.22460
C    -2.61634   0.56256  -0.24961
C    -1.83019   0.90715  -1.27424
C    -0.80797  -0.24450  -1.39352
O    -1.63335  -1.36484  -1.02447
H     3.51078   1.81123   0.68244
H     4.11096   0.19449   0.19046
H     3.88736   0.57504   1.93574
H    -1.24736   0.12237   2.83384
H     0.50113  -0.24797   2.66440
H    -0.72062  -1.55919   2.74387
H    -2.74173  -1.46068   0.77595
H    -3.43128   1.10848   0.22416
H    -1.82564   1.81510  -1.87647
H    -0.31049  -0.38768  -2.35782
