22
Generated by autodE on: 2022-06-03. E = -645.322451 Ha
C    -2.23636   3.16301   0.34317
N    -1.94755   1.74804   0.36810
N    -0.75318   1.46666   0.09223
C    -0.11178   0.25936   0.01261
C    -0.83693  -0.97650   0.27561
O    -2.02107  -1.03580   0.57571
O    -0.07856  -2.08336   0.15959
C    -0.73685  -3.32846   0.40910
C     1.29280   0.45868  -0.35089
O     1.76063   1.58277  -0.53616
O     2.02849  -0.64665  -0.46914
C     3.40432  -0.46510  -0.82959
H    -2.62580   3.46429   1.32900
H    -1.36210   3.78770   0.08951
H    -3.04157   3.34912  -0.38572
H    -0.07801   2.23368  -0.12535
H     0.02614  -4.10391   0.27048
H    -1.56455  -3.48405  -0.29878
H    -1.12972  -3.36644   1.43605
H     3.92953   0.13231  -0.07029
H     3.48769   0.03283  -1.80653
H     3.83374  -1.47240  -0.88118
