44
Generated by autodE on: 2022-06-03. E = -1220.151848 Ha. Imaginary frequency = -358.5 cm-1
C     3.30836  -2.93915  -0.14329
O     2.92061  -1.57907   0.08413
C     1.94078  -1.37543   0.97760
O     1.43674  -2.27998   1.62856
C     1.56191   0.02528   1.11959
C     2.09565   1.15374   0.59680
C     3.23616   1.36400  -0.33443
C     1.28529   2.28184   1.25763
O     1.06773   1.71124   2.57340
C     0.45586   0.49266   2.06566
C    -0.70609   1.10000   1.24790
C    -0.16532   2.26703   0.70868
N    -0.31970   1.96907  -1.39037
C     0.71622   2.60936  -2.17405
N    -0.31030   0.66978  -1.48283
C    -1.18472  -0.05433  -0.72602
C    -2.62595   0.31268  -0.67847
O    -3.40534  -0.06062   0.17932
O    -2.99972   1.07649  -1.71104
C    -4.36564   1.51109  -1.72548
C    -0.79922  -1.47693  -0.61671
O     0.18206  -1.93552  -1.18560
O    -1.61122  -2.20152   0.14811
C    -1.31416  -3.60261   0.26420
H     2.46355  -3.51009  -0.55530
H     3.64929  -3.41037   0.78972
H     4.12858  -2.90204  -0.86979
H     4.18048   1.13006   0.18716
H     3.18368   0.69796  -1.20696
H     3.28956   2.40668  -0.67299
H     1.77512   3.25986   1.30720
H     0.17686  -0.19684   2.86752
H    -1.73742   0.95994   1.56136
H    -0.70453   3.19986   0.56374
H     1.02471   3.53326  -1.66636
H     0.30284   2.89391  -3.15771
H     1.59844   1.97033  -2.34606
H     0.55983   0.17344  -1.73103
H    -4.46723   2.15344  -2.60797
H    -5.04597   0.65046  -1.80229
H    -4.59936   2.07910  -0.81319
H    -1.31018  -4.07771  -0.72706
H    -0.33942  -3.74350   0.74941
H    -2.11376  -4.02447   0.88376
