43
Generated by autodE on: 2022-05-30. E = -1306.371116 Ha
C    -0.87971  -4.73426   0.35885
O     0.02527  -3.62524   0.50597
C    -0.51610  -2.42859   0.65773
O    -1.69825  -2.19804   0.76025
C     0.55120  -1.32370   0.83209
C     1.87719  -1.74347   0.36739
N     2.94503  -2.01525   0.00806
N     0.62153  -1.03516   2.29385
O    -0.19076   0.14031   2.47742
C    -0.32573   0.73936   1.25474
C     0.10435   0.01481   0.21367
C     0.28995   0.42650  -1.23235
C     0.50170  -0.83064  -2.13363
C     1.23227  -0.67832  -3.43184
O     0.03113  -1.90293  -1.79817
C    -1.02021   0.99827  -1.88160
C    -2.32553   0.33812  -1.53730
O    -0.93319   1.89117  -2.69936
C     1.48357   1.40663  -1.40513
C     1.46542   2.78089  -0.71493
C     1.67250   2.81846   0.81513
C     0.42934   3.09355   1.66897
C    -0.74511   2.18136   1.37613
F    -1.69123   2.29103   2.35551
F    -1.36564   2.57563   0.21556
H    -0.24927  -5.62461   0.25965
H    -1.52738  -4.81691   1.24264
H    -1.49348  -4.59562  -0.54250
H     1.56813  -0.69405   2.49863
H     2.30514  -0.53026  -3.22915
H     0.87941   0.19914  -3.99231
H     1.09917  -1.59227  -4.02371
H    -3.07679   0.61782  -2.28729
H    -2.66310   0.67602  -0.54780
H    -2.21684  -0.75307  -1.48270
H     2.38922   0.86430  -1.08957
H     1.59068   1.59864  -2.47870
H     0.56066   3.33769  -0.99795
H     2.30022   3.33098  -1.17555
H     2.39206   3.61452   1.05753
H     2.14326   1.87959   1.14972
H     0.67307   2.96870   2.73429
H     0.06158   4.12223   1.52497
