30
Generated by autodE on: 2022-05-30. E = -816.155051 Ha
C    -2.55982   0.68028  -2.68403
C    -1.98406   0.98964  -1.33585
O    -2.58263   1.62013  -0.48696
C    -0.54664   0.47755  -1.04223
C     0.40969   1.43553  -1.82782
C     0.80710   2.70600  -1.14231
O     0.76388   1.14279  -2.95008
C    -0.25721   0.49612   0.38357
C     0.16266   0.17243   1.47317
C     0.81124  -0.78068   2.37481
F     1.60419  -0.16249   3.30624
F    -0.14643  -1.45406   3.10030
C     1.63728  -1.77023   1.56160
C     0.90448  -2.41864   0.37134
C     0.93657  -1.68992  -1.00228
C    -0.35021  -0.99950  -1.50160
H    -1.82328   0.85585  -3.48122
H    -3.46175   1.28373  -2.84728
H    -2.82836  -0.38824  -2.72346
H    -0.06187   3.16236  -0.64385
H     1.25542   3.40010  -1.86442
H     1.54150   2.47044  -0.35465
H     1.96570  -2.54242   2.27561
H     2.53526  -1.23376   1.21777
H     1.37834  -3.40086   0.22784
H    -0.13701  -2.63698   0.66137
H     1.17245  -2.45168  -1.76069
H     1.77918  -0.97880  -1.03307
H    -1.22911  -1.57866  -1.17967
H    -0.34904  -0.98982  -2.59937
