13
Generated by autodE on: 2022-05-30. E = -490.153348 Ha
C     3.07300   0.02093   0.30499
O     1.71275   0.39881   0.02331
C     0.77602  -0.50225   0.28011
O     0.96334  -1.61372   0.73480
C    -0.57355   0.00296  -0.05877
C    -0.82807   1.29434  -0.58314
N    -1.02926   2.35644  -1.01230
N    -1.58670  -0.82772   0.14954
O    -2.78572  -0.61445  -0.06377
H     3.18849  -0.20717   1.37382
H     3.35277  -0.85619  -0.29529
H     3.68515   0.88615   0.02870
H    -1.29752  -1.75145   0.53726
