46
Generated by autodE on: 2022-10-21. E = -1089.925546 Ha
C    -1.18451   2.09726  -1.90228
O    -0.28923   1.36322  -1.07416
C    -0.80820   0.55636  -0.05838
C    -1.69433   1.33433   0.96168
C    -0.95772   2.64030   1.33055
C     0.23427   2.13863   2.19260
C     0.01265   0.61032   2.24688
C    -1.52060   0.53547   2.26499
C     0.37342  -0.02181   0.86614
C     1.81741   0.23140   0.43706
C     2.80776   0.38118   1.42382
C     4.15771   0.51021   1.08669
C     4.55354   0.48824  -0.25234
C     3.58413   0.32069  -1.24436
C     2.23614   0.18687  -0.90434
C     0.09987  -1.57145   0.91074
C     1.10576  -2.39178   0.20463
N     1.82975  -3.12070  -0.33557
N    -1.23359  -1.76175   0.35966
C    -1.51934  -0.75638  -0.63729
C    -0.91981  -1.08681  -1.95195
N    -0.43434  -1.43281  -2.94748
C    -3.05305  -0.59355  -0.87206
C    -3.98540  -1.17271   0.14452
O    -3.44076  -0.03730  -1.87915
H    -1.96528   2.61095  -1.32126
H    -1.66920   1.44970  -2.64693
H    -0.57451   2.84939  -2.42128
H    -2.72409   1.49293   0.61895
H    -1.63674   3.27809   1.91423
H    -0.63257   3.21415   0.45554
H     0.19520   2.55034   3.21159
H     1.20512   2.41454   1.76373
H     0.52137   0.11046   3.07983
H    -1.95231   1.06563   3.12658
H    -1.92216  -0.48192   2.23686
H     2.53212   0.39112   2.47800
H     4.90110   0.62651   1.87903
H     5.60781   0.59184  -0.51990
H     3.87633   0.28501  -2.29671
H     1.50966   0.03220  -1.69701
H     0.12778  -1.91718   1.95668
H    -1.43392  -2.71397   0.05783
H    -3.73402  -0.84240   1.16110
H    -5.01483  -0.89276  -0.11220
H    -3.88621  -2.27077   0.13512
