15
Generated by autodE on: 2022-10-21. E = -471.285899 Ha
C    -2.96081   0.35958   0.32751
C    -1.75571  -0.43427   0.73636
O    -1.80875  -1.37839   1.52864
C    -0.45926  -0.06437   0.15955
C    -0.29746   0.99899  -0.74996
N    -0.21538   1.89094  -1.49863
N     0.56918  -0.83914   0.58077
C     1.86092  -0.88938   0.33822
C     2.53407  -0.01618  -0.54334
N     3.15011   0.67055  -1.25637
H    -3.85027  -0.02540   0.84129
H    -2.81777   1.42393   0.57438
H    -3.10404   0.29675  -0.76331
H     0.20520  -1.54543   1.24574
H     2.43471  -1.66087   0.85374
