46
Generated by autodE on: 2022-10-21. E = -1089.885806 Ha. Imaginary frequency = -349.2 cm-1
C    -1.11653   1.84483  -2.27696
O    -0.15692   1.19297  -1.42624
C    -0.45872   0.96996  -0.17232
C    -1.57662   1.64212   0.57806
C    -0.87025   2.90563   1.19349
C     0.05076   2.29209   2.28799
C    -0.18849   0.76368   2.12588
C    -1.69318   0.74893   1.82045
C     0.44734   0.37039   0.76879
C     1.93454   0.46624   0.65005
C     2.72060   0.05415   1.74522
C     4.11384   0.10512   1.69377
C     4.75984   0.57084   0.54448
C     3.99341   0.98229  -0.54875
C     2.59820   0.92873  -0.50089
C     0.18978  -1.68679   0.59724
C     1.17865  -1.99593  -0.40969
N     1.98404  -2.27979  -1.19718
N    -1.09774  -2.03141   0.32910
C    -1.83551  -1.56844  -0.76382
C    -1.25387  -1.45198  -2.03747
N    -0.78270  -1.31630  -3.10040
C    -3.24263  -1.39351  -0.53037
C    -4.12515  -0.87205  -1.63537
O    -3.72368  -1.63535   0.59732
H    -1.25232   2.88727  -1.95691
H    -2.07342   1.30682  -2.24478
H    -0.69568   1.80694  -3.28699
H    -2.48526   1.85507   0.00701
H    -1.64033   3.56386   1.62101
H    -0.31860   3.47776   0.43432
H    -0.25833   2.61322   3.29315
H     1.10712   2.56225   2.15719
H     0.14217   0.15487   2.97459
H    -2.12376  -0.23392   1.62160
H    -2.28212   1.23174   2.61326
H     2.23685  -0.31864   2.64918
H     4.69733  -0.22286   2.55745
H     5.85078   0.61014   0.50131
H     4.48377   1.34717  -1.45462
H     2.02387   1.24104  -1.36956
H     0.52359  -1.95658   1.60398
H    -1.70625  -2.15091   1.14095
H    -3.62903  -0.83706  -2.61326
H    -4.45463   0.14551  -1.36790
H    -5.02758  -1.49897  -1.70248
