57
Generated by autodE on: 2022-06-09. E = -1478.621497 Ha
C     4.07908  -1.81350  -1.58627
N     2.80673  -1.21519  -1.23824
C     2.48527   0.04026  -1.56727
O     3.17015   0.77109  -2.29125
C     1.18747   0.57677  -0.92218
C     0.68961   1.69026  -1.88827
O     0.84642   2.88067  -1.71554
O     0.07135   1.18823  -2.95183
C    -0.47679   2.12799  -3.88942
C     1.49668   1.22719   0.45565
C     2.74966   0.68644   1.21314
C     2.90504   1.53734   2.46934
C     1.91782   1.09601   3.24879
F     1.49428   1.55148   4.42540
C     1.17775   0.00613   2.49283
O     2.25512  -0.56315   1.74028
C     0.35042   0.75643   1.40006
C    -0.60904  -0.11167   0.53082
C    -1.05961  -1.33369   1.33258
C    -2.09539  -1.20032   2.27005
C    -2.45026  -2.26401   3.10240
C    -1.77539  -3.48575   3.00881
C    -0.73835  -3.62584   2.08323
C    -0.37956  -2.55572   1.25729
C    -1.81729   0.69903   0.01426
C    -2.92565   0.01875  -0.52165
C    -3.97592   0.70941  -1.12851
C    -3.94346   2.10485  -1.21604
C    -2.85417   2.79531  -0.68149
C    -1.80549   2.09918  -0.06994
N     0.24540  -0.48902  -0.61753
C    -0.34558  -1.27077  -1.69129
H     4.88772  -1.46652  -0.92003
H     4.34804  -1.55027  -2.61847
H     4.00098  -2.90533  -1.50499
H     2.20483  -1.65978  -0.54867
H    -1.22812   2.75990  -3.39425
H    -0.94514   1.52759  -4.67748
H     0.31905   2.75875  -4.30984
H     1.55957   2.31122   0.33757
H     3.65475   0.53677   0.61659
H     3.58921   2.37188   2.60941
H     0.64946  -0.73657   3.09574
H    -0.20107   1.57479   1.87163
H    -2.62609  -0.25037   2.35613
H    -3.25792  -2.13748   3.82746
H    -2.05485  -4.32101   3.65531
H    -0.19845  -4.57250   2.00351
H     0.44588  -2.66928   0.55560
H    -2.97169  -1.06901  -0.45857
H    -4.82388   0.15335  -1.53571
H    -4.76297   2.64796  -1.69247
H    -2.81459   3.88589  -0.73452
H    -0.97333   2.67429   0.33223
H    -0.75479  -2.20412  -1.28042
H    -1.15341  -0.75584  -2.23408
H     0.43049  -1.53811  -2.41980
