44
Generated by autodE on: 2022-06-09. E = -1071.758017 Ha
C     2.60777  -1.56816   3.30741
N     2.54322  -1.15005   1.92621
C     1.55101  -0.34108   1.47472
O     0.59530  -0.02322   2.22212
C     1.65300   0.12957   0.09739
C     2.70192  -0.20596  -0.79642
O     3.73378  -0.84295  -0.52307
O     2.47521   0.21099  -2.07990
C     3.50877  -0.05052  -3.02800
N     0.57582   0.95688  -0.33623
C     0.90306   2.35572  -0.65020
C    -0.66440   0.52441  -0.23317
C    -0.96128  -0.92063  -0.23194
C    -1.92303  -1.43365   0.65326
C    -2.23773  -2.79383   0.63575
C    -1.61395  -3.64453  -0.28066
C    -0.67074  -3.13270  -1.18190
C    -0.33597  -1.78141  -1.15398
C    -1.79720   1.46081  -0.12324
C    -1.78000   2.47983   0.84640
C    -2.87610   3.33086   0.98141
C    -3.98845   3.18128   0.14591
C    -4.01398   2.16259  -0.81304
C    -2.93133   1.29260  -0.93743
H     3.41593  -2.30276   3.42045
H     1.66386  -2.03785   3.62497
H     2.80641  -0.72785   3.99699
H     3.32883  -1.29890   1.29490
H     4.45004   0.43987  -2.73629
H     3.15668   0.36141  -3.98209
H     3.68681  -1.13129  -3.13327
H     0.08031   2.83252  -1.19396
H     1.80147   2.35072  -1.27677
H     1.11681   2.90663   0.27571
H    -2.40712  -0.76623   1.36768
H    -2.97523  -3.18860   1.33788
H    -1.86614  -4.70728  -0.29998
H    -0.19539  -3.79228  -1.91121
H     0.39333  -1.38072  -1.85855
H    -0.92105   2.57585   1.51163
H    -2.86442   4.11142   1.74521
H    -4.84247   3.85462   0.24899
H    -4.88444   2.04137  -1.46129
H    -2.95115   0.48901  -1.67584
