13
Generated by autodE on: 2022-06-09. E = -406.788331 Ha
F     0.35147  -1.70706   1.52888
C     0.38900  -0.77149   0.58467
C     1.32880   0.12747   0.29916
C     0.66148   0.96013  -0.82197
C    -0.50531   1.76355  -0.19397
C    -1.42957   0.85021   0.11506
C    -0.81307  -0.49680  -0.33802
O    -0.09291  -0.06952  -1.50791
H     2.28742   0.32552   0.77346
H     1.33253   1.49693  -1.50122
H    -0.49901   2.83779  -0.01170
H    -2.38849   0.96342   0.61921
H    -1.48962  -1.33667  -0.53061
