57
Generated by autodE on: 2022-06-09. E = -1478.506401 Ha. Imaginary frequency = -222.4 cm-1
C     4.35682   0.47050  -2.74843
N     2.92537   0.58541  -2.57474
C     2.23281  -0.34900  -1.86387
O     2.81202  -1.37912  -1.47164
C     0.81544  -0.03959  -1.57468
C     0.18419   0.97419  -2.43317
O     0.63014   2.09988  -2.64680
O    -0.88801   0.51175  -3.09505
C    -1.55868   1.43241  -3.96285
C     1.37594   1.27216   0.50500
C     2.71999   0.63104   0.92100
C     3.16990   1.30684   2.23538
C     2.28210   0.84401   3.11494
F     2.11723   1.13371   4.40260
C     1.31987  -0.08743   2.35834
O     2.24699  -0.64587   1.41463
C     0.47946   0.81134   1.43516
C    -0.93663  -0.58276  -0.00244
C    -1.43803  -1.49111   1.05745
C    -2.72028  -1.29642   1.62309
C    -3.17185  -2.07132   2.69068
C    -2.35869  -3.06460   3.24188
C    -1.07526  -3.25392   2.72136
C    -0.61968  -2.47876   1.65734
C    -1.90203   0.49374  -0.45507
C    -3.02675  -0.00662  -1.14568
C    -4.03347   0.83949  -1.60188
C    -3.93639   2.21989  -1.39334
C    -2.81576   2.73117  -0.74219
C    -1.80598   1.87801  -0.27668
N     0.03387  -0.97510  -0.88079
C     0.33834  -2.41153  -1.07644
H     4.62456  -0.49914  -3.19404
H     4.69629   1.26910  -3.42090
H     4.90713   0.56209  -1.79463
H     2.47921   1.48318  -2.73536
H    -2.46358   0.91960  -4.30771
H    -1.82630   2.35094  -3.42453
H    -0.91659   1.68442  -4.82005
H     1.30003   2.14885  -0.13469
H     3.49169   0.50876   0.15810
H     3.96651   2.03850   2.35045
H     0.80476  -0.84488   2.95680
H    -0.44167   1.27188   1.77668
H    -3.37831  -0.52462   1.23047
H    -4.17121  -1.89257   3.09405
H    -2.71420  -3.67363   4.07604
H    -0.41086  -4.00445   3.15559
H     0.40212  -2.62320   1.32213
H    -3.10880  -1.08119  -1.32009
H    -4.89637   0.41966  -2.12398
H    -4.72311   2.88919  -1.74876
H    -2.71328   3.80759  -0.58727
H    -0.94700   2.32713   0.21051
H     1.18375  -2.75766  -0.47931
H    -0.55993  -2.99271  -0.84413
H     0.58353  -2.55106  -2.13469
