45
Generated by autodE on: 2022-10-22. E = -1122.213147 Ha
C     3.71076   2.23081  -1.40886
N     2.74484   1.51753  -0.59461
C     2.21932   0.35371  -0.97900
O     2.55675  -0.26823  -1.98532
C     1.12559  -0.24314  -0.03920
C     1.58868  -1.60789   0.30603
N     2.00866  -2.63776   0.63319
N     0.91222   0.59027   1.14543
C     1.73580   0.28532   2.31740
N    -0.49673   0.47500   1.46302
C    -0.97739   1.07346   2.52757
N    -1.42363   1.58611   3.48221
C    -1.32588  -0.09227   0.41330
C    -1.95542  -1.41233   0.95296
C    -3.18481  -1.96817   0.29915
O    -1.43803  -1.95026   1.91253
C    -2.32972   0.90161  -0.25913
C    -1.70283   2.30477  -0.31046
C    -0.53239   2.12065  -1.31505
C    -0.69582   0.66513  -1.81156
C    -2.22822   0.49678  -1.74796
C    -0.29078  -0.37589  -0.74388
O    -0.50389  -1.70029  -1.16343
C    -0.07582  -2.11139  -2.45989
H     3.22854   2.70088  -2.28182
H     4.18299   3.01137  -0.79994
H     4.48344   1.53873  -1.77146
H     2.32159   1.97090   0.21209
H     1.47809  -0.68989   2.76412
H     2.78868   0.28525   2.00934
H     1.60023   1.07712   3.06648
H    -3.99072  -1.22003   0.27588
H    -3.51509  -2.85531   0.85427
H    -2.96171  -2.24607  -0.74057
H    -3.32623   0.87333   0.19590
H    -1.37937   2.68289   0.66701
H    -2.45267   3.00921  -0.69720
H     0.44197   2.32496  -0.86444
H    -0.63306   2.79509  -2.17667
H    -0.21202   0.47887  -2.77637
H    -2.75750   1.20412  -2.40146
H    -2.56903  -0.51905  -1.97524
H    -0.16005  -3.20632  -2.46753
H     0.96675  -1.82232  -2.64951
H    -0.72684  -1.70105  -3.24802
