19
Generated by autodE on: 2022-10-26. E = -582.022796 Ha
C     0.71979   3.04659  -1.47476
N     0.33928   1.83608  -0.77428
C     0.82788   0.64698  -1.14441
O     1.61717   0.48628  -2.08471
C     0.40482  -0.57631  -0.38384
C     0.97404  -1.78928  -0.85977
N     1.43741  -2.78198  -1.25185
N    -0.42390  -0.64521   0.65994
C    -0.70445  -1.97322   1.26566
N    -0.98700   0.44741   1.12746
C    -1.80848   0.36971   2.15372
N    -2.55562   0.45741   3.05279
H     0.43923   2.99330  -2.53846
H     0.20597   3.89705  -1.01165
H     1.80746   3.21122  -1.42018
H    -0.30532   1.85983   0.01508
H    -1.26432  -2.57495   0.53876
H     0.24637  -2.45813   1.51356
H    -1.29715  -1.82707   2.17279
