45
Generated by autodE on: 2022-10-22. E = -1122.151373 Ha. Imaginary frequency = -415.8 cm-1
C     2.38106   3.49589  -0.44781
N     2.08247   2.22875   0.18962
C     2.31361   1.05750  -0.44804
O     2.98137   1.00168  -1.49873
C     1.79983  -0.18132   0.15977
C     2.39731  -1.37902  -0.28043
N     2.85936  -2.39093  -0.63989
N     1.06363  -0.22025   1.33710
C     1.17526  -1.37831   2.23325
N    -0.05656   0.52074   1.30484
C    -0.56261   0.92999   2.46751
N    -1.07409   1.36760   3.42282
C    -1.40568  -0.14322   0.14889
C    -2.19005  -0.99463   1.11555
C    -3.56423  -0.52451   1.51110
O    -1.72174  -2.03417   1.55927
C    -2.10124   1.04751  -0.54027
C    -1.06560   2.03313  -1.12492
C    -0.43219   1.23758  -2.30008
C    -1.17233  -0.12549  -2.23778
C    -2.59683   0.34399  -1.82595
C    -0.79587  -0.84882  -0.96405
O    -0.39446  -2.09181  -0.87446
C    -0.05960  -2.83047  -2.06494
H     1.73306   3.67863  -1.32317
H     2.22495   4.30358   0.27828
H     3.42615   3.52305  -0.78643
H     1.41227   2.23298   0.94944
H     0.84671  -2.30044   1.73784
H     2.22406  -1.47408   2.54179
H     0.55027  -1.20294   3.11706
H    -3.50206   0.45633   2.00767
H    -4.00687  -1.25777   2.19704
H    -4.20866  -0.40225   0.62727
H    -2.85942   1.52852   0.08453
H    -0.33408   2.35356  -0.37931
H    -1.59066   2.92715  -1.48925
H     0.65274   1.11820  -2.22958
H    -0.65368   1.70753  -3.26894
H    -1.08370  -0.72946  -3.14510
H    -3.03681   1.03464  -2.56172
H    -3.29060  -0.48762  -1.63659
H     0.39232  -3.76424  -1.71533
H     0.65889  -2.27008  -2.67604
H    -0.97393  -3.04039  -2.63845
