15
Generated by autodE on: 2022-07-27. E = -413.240575 Ha
C     0.76933  -2.06164   1.19349
C     0.20956  -0.84020   0.52561
C    -1.04561  -0.36408   0.99473
N    -2.08060  -0.11222   1.46717
N     0.84465  -0.24841  -0.47847
C     2.10156  -0.85906  -0.95748
N     0.53279   0.84787  -1.16248
C    -0.49195   1.59970  -0.82776
N    -1.33472   2.40717  -0.68617
H     0.85444  -2.89828   0.48156
H     0.10744  -2.36842   2.01186
H     1.77025  -1.86239   1.60780
H     2.45225  -0.25627  -1.79789
H     2.83938  -0.85285  -0.14527
H     1.91015  -1.89199  -1.27296
