49
Generated by autodE on: 2022-06-06. E = -1041.782310 Ha
C    -5.63063   1.62433  -1.41642
O    -4.86378   0.80051  -0.52486
C    -3.54146   0.97076  -0.53061
O    -2.97928   1.78657  -1.23472
C    -2.83339  -0.01537   0.39690
C    -3.52062  -0.08226   1.77312
C    -1.41674   0.33208   0.52094
C    -0.21547   0.17797   0.53211
C     1.08998  -0.46903   0.37032
C     2.07901   0.00002   1.44923
C     2.19019   1.37525   1.70955
C     3.10084   1.85636   2.65082
C     3.92168   0.96523   3.35195
C     3.81926  -0.40419   3.09971
C     2.90397  -0.88473   2.15517
C     1.69125  -0.17056  -1.02014
C     2.97410  -0.65400  -1.32501
C     3.54061  -0.43647  -2.58167
C     2.83483   0.27506  -3.55900
C     1.56055   0.76282  -3.26367
C     0.99203   0.54050  -2.00359
C     0.75292  -1.99625   0.47637
C    -0.41934  -2.49062  -0.39635
C    -1.85353  -2.46373   0.20685
C    -2.85087  -1.41384  -0.32335
H    -5.49542   2.68672  -1.16798
H    -5.32447   1.44970  -2.45785
H    -6.67696   1.33128  -1.27320
H    -4.56660  -0.39795   1.66312
H    -2.99929  -0.80598   2.41525
H    -3.49652   0.89931   2.26922
H     1.55297   2.07544   1.16350
H     3.16977   2.93052   2.83946
H     4.63516   1.33820   4.09057
H     4.45408  -1.11021   3.64075
H     2.84628  -1.95787   1.97373
H     3.53968  -1.20288  -0.56934
H     4.54005  -0.82173  -2.79815
H     3.27838   0.44833  -4.54235
H     0.99851   1.32123  -4.01638
H    -0.00593   0.92428  -1.78717
H     0.54146  -2.22529   1.53256
H     1.66096  -2.55480   0.20644
H    -0.19379  -3.54113  -0.63648
H    -0.41083  -1.96360  -1.36517
H    -2.31243  -3.44132  -0.00870
H    -1.79695  -2.40774   1.30663
H    -2.65693  -1.25013  -1.39612
H    -3.87821  -1.80035  -0.24007
