86
Generated by autodE on: 2022-07-06. E = -4492.287691 Ha
C    16.78510   0.73994 -15.89440
N    15.41526   1.06185 -15.54583
C    14.63514   1.70167 -16.43333
O    14.96192   1.82822 -17.61252
C    13.18317   2.09075 -16.02737
Br   13.07691   2.09257 -13.95355
C    12.32991   0.88868 -16.45548
C    12.17872   0.74241 -17.98171
C    10.76709   1.02019 -18.46904
C    10.27073   2.46632 -18.43618
C    10.11872   3.27232 -17.08567
C     8.98012   4.32471 -17.34058
C     8.74279   4.85867 -18.61734
C     7.69904   5.75986 -18.84981
C     6.84815   6.13963 -17.81212
C     7.05851   5.60650 -16.53786
C     8.10474   4.71378 -16.31041
C     9.56527   2.39714 -15.95152
C     8.55273   1.46120 -16.22828
C     7.94799   0.73195 -15.20444
C     8.32853   0.93370 -13.87231
C     9.30618   1.88554 -13.58235
C     9.90778   2.61182 -14.61456
C    11.48704   3.96361 -16.75901
C    12.73002   3.48048 -16.45942
C    13.78595   4.62213 -16.51729
C    14.72226   4.58882 -15.27280
O    15.76373   3.92788 -15.26206
N    14.30154   5.31008 -14.22700
C    14.96833   5.26420 -12.94497
C    14.60159   4.65046 -17.82548
C    14.04873   4.17844 -19.02347
C    14.71243   4.34699 -20.23891
C    15.95040   4.99568 -20.28150
C    16.50953   5.47679 -19.09522
C    15.83807   5.30898 -17.88026
N    12.93606   5.80792 -16.43255
C    13.49205   7.11162 -16.74362
C    11.59638   5.51487 -16.91766
C    11.50731   5.88433 -18.36166
N    11.57031   6.23315 -19.46629
C    10.62168   6.36742 -16.08866
C    10.56484   6.14286 -14.70642
C     9.74987   6.92989 -13.89475
C     9.00143   7.97314 -14.45325
C     9.08777   8.22542 -15.82341
C     9.89633   7.42697 -16.63794
H    16.81824   0.14281 -16.81640
H    17.23318   0.15948 -15.07830
H    17.38140   1.65444 -16.05448
H    15.18989   1.16921 -14.56331
H    12.81283  -0.00205 -16.03272
H    11.34684   0.95309 -15.98123
H    12.89439   1.38732 -18.50673
H    12.44765  -0.28891 -18.25680
H    10.06761   0.36607 -17.92720
H    10.70064   0.71403 -19.52678
H     9.27538   2.44659 -18.89731
H    10.89717   3.07007 -19.10867
H     9.37460   4.58556 -19.45770
H     7.55348   6.15911 -19.85647
H     6.02976   6.84043 -17.99300
H     6.40821   5.89051 -15.70744
H     8.24107   4.32583 -15.30400
H     8.20967   1.31329 -17.25210
H     7.16819   0.00638 -15.44810
H     7.85645   0.36154 -13.07022
H     9.60802   2.07039 -12.54874
H    10.65194   3.36190 -14.36872
H    13.41137   5.78802 -14.33871
H    14.55209   6.04331 -12.29433
H    14.83260   4.28314 -12.45859
H    16.04824   5.43680 -13.06421
H    13.09614   3.65251 -19.01101
H    14.25995   3.96402 -21.15676
H    16.47421   5.12540 -21.23160
H    17.47396   5.99026 -19.11058
H    16.29172   5.70090 -16.97021
H    14.42799   7.25237 -16.18832
H    12.78490   7.88785 -16.41767
H    13.70270   7.26042 -17.81787
H    11.16556   5.35056 -14.26085
H     9.70295   6.73221 -12.82143
H     8.36259   8.59186 -13.81888
H     8.51824   9.04412 -16.26875
H     9.94386   7.62790 -17.70818
