14
Generated by autodE on: 2022-06-03. E = -508.169915 Ha
C    -2.77999  -0.96991   0.40117
C    -1.32361  -1.11264   0.10708
O    -0.77449  -2.16152  -0.15630
C    -0.48162   0.15638   0.13709
C    -1.10203   1.39241   0.48525
N    -1.63057   2.38646   0.77373
C     0.85022   0.13231  -0.16507
C     1.57555  -1.05298  -0.52268
N     2.30347  -1.90677  -0.82514
C     1.63676   1.32998  -0.14378
N     2.28316   2.29447  -0.12930
H    -2.91832  -0.53921   1.40666
H    -3.23813  -0.26839  -0.31573
H    -3.26792  -1.94964   0.33791
