32
Generated by autodE on: 2022-06-03. E = -860.142421 Ha
C    -0.79866   4.09352   0.28647
O    -0.45560   2.71270   0.10498
C    -1.44850   1.82789   0.26167
O    -2.59657   2.15071   0.51466
C    -0.99745   0.42403   0.10866
O     0.30661   0.34532   0.05983
N     1.00277  -0.77739  -0.08401
C     2.35096  -0.47751  -0.15421
C     2.91254   0.82110  -0.09512
C     4.29294   0.98183  -0.17627
C     5.14068  -0.12569  -0.31858
C     4.58856  -1.41155  -0.37976
C     3.21072  -1.59139  -0.29827
C    -1.91066  -0.70408   0.05119
C    -1.54290  -1.99552   0.50014
C    -2.45936  -3.04461   0.46055
C    -3.74651  -2.84549  -0.04708
C    -4.11883  -1.57761  -0.50971
C    -3.22049  -0.51714  -0.45751
H    -1.56502   4.39868  -0.44058
H     0.12707   4.65630   0.12125
H    -1.17311   4.26695   1.30587
H     2.26148   1.68813   0.01285
H     4.71663   1.98813  -0.12859
H     6.22197   0.01372  -0.38156
H     5.23946  -2.28202  -0.49114
H     2.77078  -2.58964  -0.34546
H    -0.54227  -2.16668   0.88591
H    -2.16060  -4.03025   0.82439
H    -4.45581  -3.67528  -0.08831
H    -5.11847  -1.41521  -0.91878
H    -3.52336   0.46125  -0.82422
