32
Generated by autodE on: 2022-07-27. E = -860.140919 Ha
C    -1.53891  -1.17160   3.55185
O    -1.20209  -0.40885   2.37656
C    -1.42979  -0.98408   1.20679
O    -1.95819  -2.06011   1.03822
C    -0.97345  -0.11331   0.06275
O     0.29470  -0.04005  -0.16273
N     1.15757  -0.78605   0.58310
C     2.45152  -0.45431   0.25570
C     2.85182   0.56490  -0.64520
C     4.20534   0.78828  -0.89154
C     5.19400   0.02743  -0.25442
C     4.80502  -0.97435   0.64586
C     3.45891  -1.21580   0.90102
C    -1.87958   0.57419  -0.81451
C    -1.40133   1.28839  -1.94023
C    -2.29171   1.96346  -2.76572
C    -3.66783   1.93952  -2.49532
C    -4.15008   1.23267  -1.38815
C    -3.26947   0.55406  -0.55024
H    -2.61088  -1.41304   3.55354
H    -1.28757  -0.53228   4.40497
H    -0.94791  -2.09797   3.57749
H     2.09968   1.17911  -1.14034
H     4.49370   1.57800  -1.59049
H     6.25137   0.21522  -0.45240
H     5.56253  -1.57590   1.15496
H     3.15296  -1.99763   1.59962
H    -0.33224   1.30017  -2.15638
H    -1.91515   2.51122  -3.63222
H    -4.36246   2.46980  -3.15036
H    -5.22096   1.21079  -1.17590
H    -3.65798   0.00597   0.30996
