46
Generated by autodE on: 2022-06-03. E = -1368.333446 Ha. Imaginary frequency = -162.2 cm-1
C    -1.21285  -0.60030   3.95471
O    -0.80668   0.04068   2.73040
C    -1.48230  -0.27676   1.64063
O    -2.44632  -1.00854   1.61061
C    -0.97661   0.49164   0.43221
C    -1.87366   1.44217  -0.22210
C    -1.33134   2.44189  -1.06075
C    -2.16786   3.36013  -1.68759
C    -3.55378   3.28634  -1.51077
C    -4.10098   2.28932  -0.69620
C    -3.27366   1.37349  -0.05138
O     0.30442   0.87427   0.42652
N     1.18755  -0.05625   0.85574
C     2.48175   0.44453   0.79805
C     2.84643   1.65649   0.17151
C     4.18383   2.04042   0.15936
C     5.16316   1.22610   0.74238
C     4.80187   0.01861   1.35376
C     3.46809  -0.37302   1.39218
C     0.82796  -1.45180  -0.77653
C     1.29556  -2.58927  -0.03485
N     1.84149  -3.43656   0.54423
C     1.80340  -0.90283  -1.66435
N     2.60776  -0.40353  -2.34013
C    -0.56623  -1.21067  -1.05186
C    -0.85213  -0.45433  -2.22898
N    -1.09721   0.17259  -3.17722
C    -1.58797  -2.24810  -0.65398
C    -2.94937  -2.13331  -1.26850
O    -1.27102  -3.14079   0.11088
H    -1.12113  -1.69055   3.85224
H    -0.53049  -0.22629   4.72538
H    -2.25150  -0.33391   4.19469
H    -0.25445   2.49156  -1.21799
H    -1.73639   4.13242  -2.32751
H    -4.20799   4.00419  -2.01045
H    -5.18198   2.22697  -0.55631
H    -3.71051   0.60658   0.58549
H     2.08437   2.28642  -0.28532
H     4.46833   2.98175  -0.31543
H     6.21022   1.53582   0.72388
H     5.56453  -0.61300   1.81367
H     3.16559  -1.30016   1.87991
H    -2.88584  -2.42750  -2.32982
H    -3.31394  -1.09673  -1.23940
H    -3.64407  -2.80213  -0.74627
