43
Generated by autodE on: 2022-10-21. E = -1095.006628 Ha
C     3.13173  -3.10154   0.32902
N     2.34450  -1.98569  -0.15513
C     1.62359  -1.21719   0.66983
O     1.57507  -1.39542   1.89071
C     0.86601  -0.06125  -0.00403
C     1.57583   1.25836   0.38208
O     2.33407   1.39077   1.31765
O     1.24968   2.24053  -0.44914
C     1.77488   3.54304  -0.15051
N     0.92520  -0.16087  -1.46522
C    -0.22033   0.05374  -1.98799
C    -0.46694   0.11833  -3.45310
C    -1.35780   0.21864  -1.00047
F    -1.95826   1.45536  -1.18363
C    -2.36520  -0.94014  -1.06881
C    -3.49931  -0.64616  -0.07069
C    -2.81864  -0.87636   1.30714
C    -1.35436  -1.22471   0.94390
C    -1.56762  -2.04183  -0.34610
C    -0.66904   0.06166   0.41036
O    -0.89196   1.20959   1.19831
C    -0.56904   1.09688   2.58494
H     3.93713  -2.76194   1.00007
H     3.57932  -3.61929  -0.52778
H     2.50347  -3.81250   0.88760
H     2.33582  -1.74190  -1.14162
H     1.40151   4.20532  -0.93962
H     2.87381   3.52363  -0.15417
H     1.41505   3.87865   0.83284
H    -1.12255  -0.70917  -3.76937
H     0.47482   0.07129  -4.01438
H    -0.99487   1.05542  -3.69271
H    -2.69857  -1.15640  -2.09140
H    -3.88639   0.37462  -0.18889
H    -4.33358  -1.34237  -0.23683
H    -3.26400  -1.73161   1.83510
H    -2.90301  -0.00264   1.96213
H    -0.79940  -1.71758   1.74665
H    -0.64230  -2.33839  -0.85843
H    -2.16946  -2.94455  -0.16940
H     0.37391   0.55715   2.74457
H    -1.36618   0.58349   3.14587
H    -0.47170   2.12202   2.96831
