22
Generated by autodE on: 2022-10-21. E = -608.207864 Ha
C     3.81475  -1.74013   0.00127
C     2.50824  -1.12966  -0.01512
N     1.47594  -0.64195  -0.01447
C     0.23973  -0.08601   0.00100
C    -0.76003  -0.86815   0.74541
O    -0.42812  -1.93213   1.30548
N    -2.02488  -0.38414   0.79200
C    -3.10448  -1.04834   1.48661
C     0.14194   1.14433  -0.74234
O     1.07590   1.68588  -1.32949
O    -1.10584   1.68326  -0.74580
C    -1.26295   2.93833  -1.41351
H     4.06047  -2.16914  -0.98259
H     3.80542  -2.54445   0.75488
H     4.57339  -0.99525   0.28849
H    -2.20760   0.48715   0.30427
H    -2.70338  -1.90332   2.04321
H    -3.87318  -1.41954   0.78745
H    -3.59484  -0.36521   2.19861
H    -1.05964   2.83760  -2.49001
H    -2.30706   3.23469  -1.25636
H    -0.58841   3.69556  -0.98789
