33
Generated by autodE on: 2022-06-08. E = -3528.362693 Ha
C     3.22163   0.60614   2.21790
C     1.94637   1.06399   2.85375
O     1.80816   1.21431   4.05071
C     0.76355   1.38869   1.89776
C     0.89333   2.91658   1.60083
C     0.40980   3.86557   2.65443
O     1.38924   3.28523   0.55557
C     0.79485   0.65079   0.64293
C     0.38361   0.03457  -0.31576
C    -0.60926  -0.62595  -1.13229
Br   -0.46550  -2.61547  -0.84052
C    -0.38729  -0.39641  -2.63676
F    -1.32486  -0.99840  -3.37739
F    -0.44242   0.91958  -2.90752
F     0.80895  -0.83591  -3.04336
C    -2.00495  -0.13969  -0.68365
C    -2.26423  -0.12445   0.83406
C    -1.83643   1.12527   1.65526
C    -0.59519   1.01199   2.56452
H     4.03052   0.58244   2.95903
H     3.47929   1.26699   1.37522
H     3.07119  -0.40188   1.79726
H     0.79000   4.87273   2.44113
H    -0.69242   3.88547   2.63710
H     0.71375   3.53692   3.65829
H    -2.11947   0.88131  -1.08335
H    -2.75354  -0.76688  -1.18843
H    -3.35497  -0.22078   0.93948
H    -1.84570  -1.03706   1.28942
H    -2.67586   1.36504   2.32508
H    -1.73915   1.99758   0.98676
H    -0.50113  -0.01979   2.93693
H    -0.71941   1.64677   3.45078
