50
Generated by autodE on: 2022-06-08. E = -4041.791340 Ha. Imaginary frequency = -283.4 cm-1
C    -4.38603   2.08593   0.94302
O    -3.62730   0.90476   0.66364
C    -3.00629   0.85692  -0.52575
O    -3.16861   1.69855  -1.40008
C    -2.16904  -0.31494  -0.70493
C    -1.91296  -0.73274  -2.03185
N    -1.67469  -1.10033  -3.11478
O    -2.07852  -1.36115   0.18081
C    -1.55030  -1.33845   1.38234
C    -1.69279  -0.25391   2.38138
C     0.49540  -1.09708   0.67183
C     0.49253   0.04401   0.19595
C     1.04538   1.32745  -0.18743
Br    0.76079   1.61616  -2.14631
C     0.35773   2.50827   0.53870
F     0.47352   2.34870   1.86887
F     0.92703   3.67473   0.21995
F    -0.94716   2.60681   0.26452
C     2.56000   1.35879   0.13140
C     3.41943   0.20955  -0.40685
C     3.50745  -1.09309   0.42024
C     2.57257  -2.25247   0.02911
C     1.25243  -2.36462   0.84279
C     0.37745  -3.53668   0.30701
C     0.19391  -3.65745  -1.17446
O    -0.14108  -4.30409   1.09663
C     1.53314  -2.63357   2.33944
C     2.48821  -3.74265   2.67498
O     1.02226  -1.94316   3.19999
H    -4.79050   1.95235   1.95331
H    -5.20637   2.20359   0.22025
H    -3.74017   2.97575   0.91009
H    -1.45503  -2.35716   1.76877
H    -1.59938   0.75042   1.96345
H    -0.94230  -0.41907   3.16409
H    -2.69476  -0.35163   2.83588
H     2.94144   2.31583  -0.25106
H     2.64315   1.39321   1.22955
H     3.13431  -0.02011  -1.44684
H     4.43840   0.62033  -0.46601
H     3.41055  -0.85750   1.49367
H     4.53213  -1.47377   0.29640
H     3.10126  -3.21048   0.13664
H     2.30889  -2.16206  -1.03338
H     0.13505  -2.67811  -1.66720
H    -0.70492  -4.25184  -1.38288
H     1.06989  -4.18420  -1.58971
H     2.40195  -4.59607   1.99017
H     2.32504  -4.05952   3.71334
H     3.51476  -3.34781   2.58798
