34
Generated by autodE on: 2022-05-29. E = -1166.428520 Ha
C     3.90852   0.91345   1.00268
O     2.71991   1.02598   0.20397
C     2.18961  -0.10621  -0.24421
O     2.68701  -1.19895  -0.10515
C     0.88888   0.14968  -1.04373
C     1.12000   1.30549  -2.01222
O     0.67257  -1.00968  -1.85427
O    -0.02621  -1.96940  -1.03657
C    -0.97030  -1.24436  -0.26536
F    -1.00508  -1.91104   0.92893
C    -2.34414  -1.12151  -0.92436
C    -3.30819  -0.41462   0.05781
C    -2.87214   1.07657  -0.03240
C    -1.58706   1.01635  -0.88942
C    -2.05781  -0.00782  -1.95071
C    -0.43139   0.22938  -0.17471
C    -0.16514   0.68442   1.26715
F    -1.21887   0.52426   2.08184
F     0.16801   1.98510   1.29718
F     0.83648  -0.00464   1.85317
H     3.70069   0.31854   1.90362
H     4.18432   1.93759   1.27744
H     4.71486   0.44092   0.42476
H     2.05874   1.14491  -2.56104
H     1.19867   2.24385  -1.44977
H     0.30094   1.38130  -2.73543
H    -2.69017  -2.08833  -1.31020
H    -4.34524  -0.55482  -0.27596
H    -3.22786  -0.82229   1.07414
H    -2.75747   1.56782   0.93797
H    -3.60782   1.66027  -0.60363
H    -1.26498   1.99673  -1.25360
H    -2.97281   0.33154  -2.45487
H    -1.31489  -0.27628  -2.70763
