14
Generated by autodE on: 2022-07-26. E = -457.004723 Ha
C     1.90454   0.93818   1.91569
O     0.99943   1.05159   0.80451
C     0.37814  -0.06257   0.42501
O     0.52520  -1.14639   0.94243
C    -0.51235   0.24832  -0.74724
C    -0.49925   1.57392  -1.40532
O    -1.31409  -0.60784  -1.23889
O    -1.47526  -1.85883  -0.76774
H     1.36543   0.59054   2.80849
H     2.30705   1.94406   2.07703
H     2.71294   0.23334   1.67452
H     0.52067   1.81005  -1.74921
H    -0.78133   2.35203  -0.67758
H    -1.19583   1.58140  -2.25283
