14
Generated by autodE on: 2022-05-29. E = -457.015056 Ha
C     2.82026  -0.12719   0.62026
O     1.40016   0.10353   0.66816
C     0.70222  -0.28322  -0.38806
O     1.15565  -0.80967  -1.38200
C    -0.76571  -0.00577  -0.25070
C    -1.74310  -0.35142  -1.28443
O    -1.11384   0.55738   0.83472
O    -2.42056   0.83896   1.02785
H     3.02504  -1.20242   0.51892
H     3.21616   0.25186   1.56852
H     3.26268   0.41576  -0.22693
H    -1.25931  -0.82370  -2.14466
H    -2.50698  -1.01544  -0.84182
H    -2.28298   0.56509  -1.58232
