20
Generated by autodE on: 2022-05-29. E = -709.338424 Ha
F    -0.29354  -0.76312   2.15028
C    -0.62635  -0.63539   0.86961
C     0.14890  -0.22584  -0.14763
C     1.54722   0.24979  -0.12252
F     1.63106   1.57853  -0.38246
F     2.15070   0.04317   1.06178
F     2.30714  -0.35560  -1.06415
C    -0.78946  -0.07986  -1.34289
C    -1.68736   1.16387  -1.04981
C    -2.54995   0.68945   0.15574
C    -2.04870  -0.77620   0.39581
C    -1.78281  -1.22746  -1.05671
H    -0.29255  -0.07478  -2.32066
H    -2.31326   1.39325  -1.92467
H    -1.08101   2.05115  -0.82266
H    -2.42197   1.31212   1.05225
H    -3.62035   0.67170  -0.09463
H    -2.69406  -1.39523   1.03014
H    -1.32064  -2.22287  -1.12055
H    -2.68273  -1.18706  -1.68802
