34
Generated by autodE on: 2022-05-29. E = -1166.342317 Ha. Imaginary frequency = -192.1 cm-1
C     3.77229   0.69708   1.13039
O     2.81123   0.82524   0.07119
C     2.24618  -0.29523  -0.36749
O     2.52894  -1.40721   0.01632
C     1.29665   0.03226  -1.48998
C     1.40230   1.32076  -2.21986
O     0.66846  -0.90093  -2.11769
O     0.29550  -2.01176  -1.43900
C    -1.15254  -1.06949   0.04681
F    -0.82188  -1.98738   0.94563
C    -2.40281  -1.20398  -0.77662
C    -3.52356  -0.58813   0.13199
C    -3.19492   0.93335   0.12334
C    -1.86742   0.99426  -0.69981
C    -2.19260  -0.05657  -1.78299
C    -0.79805   0.26164   0.12173
C    -0.17799   0.88370   1.32195
F    -1.08217   1.13530   2.30528
F     0.39468   2.07410   1.04747
F     0.76259   0.10156   1.89364
H     3.30835   0.22078   2.00491
H     4.08695   1.71805   1.37255
H     4.63128   0.09947   0.79401
H     2.42573   1.45767  -2.60694
H     1.20283   2.14903  -1.52527
H     0.68253   1.34570  -3.04705
H    -2.60600  -2.20970  -1.15984
H    -4.50565  -0.79752  -0.31511
H    -3.51132  -1.02508   1.14076
H    -3.09061   1.35685   1.12864
H    -3.97180   1.50415  -0.40616
H    -1.58087   1.99546  -1.04396
H    -3.11727   0.18702  -2.32507
H    -1.38964  -0.23299  -2.50331
