23
Generated by autodE on: 2022-06-17. E = -351.521386 Ha
C    -3.45565   0.52629   1.44258
C    -2.41661  -0.15095   0.90639
C    -2.49727  -1.63429   0.65031
C    -1.18367   0.55510   0.56363
C    -0.07347  -0.00885   0.02494
C     1.12618   0.73701  -0.29628
C     2.27246   0.24655  -0.83212
C     3.44024   1.15030  -1.10993
C     2.49122  -1.19560  -1.19197
H    -3.39434   1.60317   1.62782
H    -4.38923   0.02265   1.70848
H    -1.71242  -2.17640   1.20361
H    -3.47402  -2.03774   0.95235
H    -2.34325  -1.86221  -0.41753
H    -1.17607   1.63260   0.76775
H    -0.07345  -1.08270  -0.18066
H     1.08938   1.81102  -0.07721
H     3.23386   2.19437  -0.83222
H     3.71210   1.12056  -2.18048
H     4.33634   0.81259  -0.55878
H     3.36251  -1.59767  -0.64530
H     1.62777  -1.83922  -0.98012
H     2.73460  -1.28880  -2.26517
