13
Generated by autodE on: 2022-06-17. E = -453.064700 Ha
C    -2.68860   0.76006  -0.40450
C    -1.30497   0.28955  -0.15675
N    -0.17588   0.95670  -0.50298
C     0.91599   0.27595  -0.14690
C     2.25416   0.63984  -0.32505
N     3.37245   0.94269  -0.47389
O     0.53645  -0.86555   0.44966
C    -0.88615  -0.91522   0.47583
O    -1.46434  -1.86858   0.97317
H    -2.90151   1.70278   0.12641
H    -2.87656   0.92766  -1.47768
H    -3.39140  -0.00372  -0.04512
H    -0.15121   1.86447  -0.97222
