29
Generated by autodE on: 2022-05-26. E = -891.345007 Ha
C     4.11634   1.13260  -0.27499
N     2.89792   0.35268  -0.39317
C     1.70123   0.88692  -0.11502
O     1.53649   2.06367   0.23245
C     0.50877   0.00951  -0.22271
C     0.29766  -1.30539   0.00587
C     1.21497  -2.32603   0.34771
N     1.95246  -3.18424   0.61943
C    -1.23175  -1.50838  -0.03159
C    -1.77836  -2.89510  -0.21158
N    -1.57592  -0.47412  -1.03977
C    -0.89897   0.59671  -0.35407
C    -1.03051   1.98898  -0.96950
C    -1.66555   3.06140  -0.15061
O    -0.62617   2.12504  -2.10603
O    -1.46148   0.55190   1.03207
C    -1.67985  -0.76530   1.26271
O    -2.13534  -1.21070   2.28164
H     4.27353   1.46543   0.76271
H     4.07251   2.02610  -0.91689
H     4.96437   0.51083  -0.58405
H     2.95906  -0.61084  -0.70700
H    -2.87630  -2.86478  -0.26059
H    -1.38667  -3.34707  -1.13321
H    -1.48711  -3.52027   0.64480
H    -2.58697  -0.30319  -1.05242
H    -1.68318   4.00150  -0.71578
H    -1.10475   3.18407   0.78860
H    -2.68899   2.75817   0.12453
