17
Generated by autodE on: 2022-05-26. E = -513.519688 Ha
C    -3.06096   0.26174  -0.04944
C    -1.90838  -0.39859  -0.75040
O    -2.03407  -1.14757  -1.72262
C    -0.58229  -0.12676  -0.23475
N     0.56082  -0.62065  -0.71128
C     1.63052  -0.17262  -0.00917
C     3.04564  -0.52922  -0.26879
C     1.11109   0.68451   1.00473
O     1.61052   1.34715   1.90217
O    -0.29596   0.66934   0.80665
H    -3.99769  -0.00833  -0.55300
H    -2.93485   1.35639  -0.05177
H    -3.09749  -0.05758   1.00485
H     0.58726  -1.25630  -1.51136
H     3.34968  -0.26844  -1.29584
H     3.22721  -1.60796  -0.12825
H     3.68606   0.02195   0.43309
