12
Generated by autodE on: 2022-05-26. E = -377.766669 Ha
C    -2.40473   1.00509  -0.36107
N    -2.18607  -0.37552   0.03004
C    -1.01326  -0.98777   0.24890
O    -0.88673  -2.16581   0.59351
C     0.19655  -0.18121   0.05768
C     1.27049   0.37773  -0.06641
C     2.47480   1.01850  -0.21131
N     3.49735   1.56645  -0.33551
H    -1.44481   1.50113  -0.55009
H    -2.93304   1.55636   0.43181
H    -3.00634   1.05029  -1.28087
H    -3.00448  -0.96351   0.18179
