29
Generated by autodE on: 2022-05-26. E = -891.283316 Ha. Imaginary frequency = -395.3 cm-1
C     3.44680   2.30140  -0.85267
N     2.56081   1.15821  -0.72718
C     1.90593   0.90140   0.41683
O     2.07377   1.52863   1.46686
C     0.90121  -0.18232   0.34991
C     0.58582  -1.32434   0.78030
C     0.61516  -2.54029   1.40261
N     0.59083  -3.59576   1.91188
C    -1.59182  -1.51803  -0.39312
C    -1.94135  -2.92810  -0.65582
N    -1.11123  -0.63103  -1.27747
C    -0.78935   0.51923  -0.60981
C    -0.44010   1.76291  -1.34739
C    -0.52748   3.04711  -0.58899
O    -0.05638   1.65795  -2.50197
O    -1.58161   0.56599   0.51318
C    -2.01800  -0.73507   0.76854
O    -2.63620  -1.03498   1.76258
H     3.99811   2.22187  -1.79724
H     4.16418   2.32380  -0.02059
H     2.88002   3.24757  -0.84729
H     2.26904   0.66862  -1.56823
H    -3.02247  -3.02211  -0.85373
H    -1.38264  -3.31930  -1.51633
H    -1.71597  -3.53608   0.23362
H    -0.68116  -0.86493  -2.17353
H    -0.13669   3.86820  -1.20223
H     0.03200   2.97232   0.35701
H    -1.57974   3.23966  -0.32132
