34
Generated by autodE on: 2022-06-17. E = -782.562102 Ha
C     4.21883  -0.79205   1.14976
O     2.85597  -1.15127   0.86830
C     2.19685  -0.38358   0.00308
O     2.69473   0.55379  -0.58841
C     0.75373  -0.81290  -0.14069
N     0.14945  -0.18900  -1.31888
C    -1.12289   0.43083  -0.96199
C    -2.12811   0.19180  -2.02435
N    -2.89672   0.01276  -2.87355
C    -1.02018   1.90771  -0.86032
N    -0.91857   3.06302  -0.84347
C    -1.53437  -0.25251   0.41178
C    -2.18110  -1.61394   0.10683
C    -2.53177   0.59091   1.20323
C    -0.12361  -0.42812   1.09495
C    -0.11147  -1.53053   2.15730
C     0.38121   0.86887   1.75262
H     4.57915  -1.52541   1.87979
H     4.26581   0.22197   1.57185
H     4.82287  -0.83740   0.23257
H     0.75609  -1.90935  -0.24272
H     0.78736   0.47849  -1.75019
H    -3.11582  -1.47808  -0.45436
H    -1.52529  -2.27793  -0.47368
H    -2.43871  -2.11840   1.04671
H    -3.47890   0.67260   0.64788
H    -2.17166   1.60639   1.41041
H    -2.74659   0.10101   2.16436
H     0.88141  -1.58086   2.62648
H    -0.33187  -2.52064   1.73727
H    -0.84729  -1.31335   2.94670
H     1.36701   0.69170   2.20736
H     0.48989   1.70307   1.04823
H    -0.29418   1.18365   2.55944
