18
Generated by autodE on: 2022-06-17. E = -235.968071 Ha
C    -1.38975  -1.38395   0.19781
C    -0.66032  -0.06343   0.13583
C    -1.58361   1.09840   0.41375
C     0.66034   0.06342  -0.13575
C     1.58356  -1.09838  -0.41399
C     1.38979   1.38394  -0.19762
H    -2.22576  -1.39453  -0.52445
H    -0.76060  -2.25874  -0.00542
H    -1.84868  -1.52243   1.19333
H    -1.09702   2.08052   0.38266
H    -2.41475   1.11048  -0.31415
H    -2.05362   0.98583   1.40732
H     1.09689  -2.08048  -0.38327
H     2.41473  -1.11078   0.31387
H     2.05354  -0.98551  -1.40754
H     1.84776   1.52310  -1.19349
H     2.22650   1.39393   0.52382
H     0.76092   2.25864   0.00687
