16
Generated by autodE on: 2022-06-17. E = -546.541842 Ha
C    -4.19246  -0.47340  -0.10193
O    -2.94959   0.17945   0.20118
C    -1.83688  -0.44788  -0.17512
O    -1.80095  -1.52217  -0.75403
C    -0.64010   0.31254   0.19357
N     0.51297  -0.21423  -0.13145
C     1.78066   0.24794   0.07046
C     1.98570   1.48107   0.72427
N     2.14238   2.50259   1.26659
C     2.87292  -0.52042  -0.38410
N     3.78746  -1.14478  -0.75408
H    -4.24181  -1.45147   0.39805
H    -4.29772  -0.61010  -1.18790
H    -4.97951   0.18823   0.27673
H    -0.68884   1.26950   0.71148
H     0.44283  -1.12203  -0.61646
