34
Generated by autodE on: 2022-06-17. E = -782.501942 Ha. Imaginary frequency = -334.3 cm-1
C     4.20984  -0.61980   1.23913
O     2.94572  -0.91129   0.62257
C     2.26079   0.12647   0.14264
O     2.65959   1.27785   0.16061
C     0.92782  -0.27094  -0.36024
N     0.31281   0.66404  -1.12262
C    -0.99904   0.44711  -1.50811
C    -1.36996  -0.82727  -2.00147
N    -1.67893  -1.89016  -2.37296
C    -1.80036   1.55490  -1.86873
N    -2.48533   2.46668  -2.11741
C    -1.59118  -0.08548   0.89739
C    -2.67963  -1.09239   0.67490
C    -2.04456   1.32064   1.16520
C    -0.30386  -0.49519   1.35638
C    -0.08473  -1.96840   1.64101
C     0.40070   0.43067   2.33778
H     4.60078  -1.58052   1.59217
H     4.07246   0.07079   2.08345
H     4.89777  -0.17335   0.50713
H     0.79731  -1.31194  -0.65686
H     0.58557   1.63293  -0.95010
H    -3.52331  -0.65490   0.12209
H    -2.34334  -1.99141   0.14285
H    -3.06316  -1.42990   1.65734
H    -2.96532   1.56517   0.61904
H    -1.27649   2.06857   0.91812
H    -2.25701   1.43770   2.24521
H     0.98190  -2.17718   1.80498
H    -0.43527  -2.61273   0.82324
H    -0.62939  -2.26390   2.55519
H     1.38239   0.02764   2.62402
H     0.55053   1.44332   1.94059
H    -0.19715   0.52378   3.26115
