30
Generated by autodE on: 2022-05-29. E = -888.471825 Ha
C    -4.36517   0.17504  -0.78841
N    -3.10691   0.56517  -0.17203
C    -1.93942   0.35948  -0.78456
O    -1.81186  -0.13072  -1.90231
C    -0.64241   0.74400   0.01263
C    -0.79978   2.04597   0.69456
N    -0.91379   3.06720   1.23222
N     0.50740   0.77207  -0.87945
C     1.42184  -0.32767  -0.57513
C     1.46185  -1.32902  -1.65594
N     1.46461  -2.10295  -2.51894
C     2.88167   0.15869  -0.27813
C     3.00860   1.48578   0.39654
O     3.81200  -0.55813  -0.57339
C     0.86018  -0.97608   0.69222
C     1.53509  -2.09994   1.38251
C    -0.28742  -0.35184   1.01903
C    -1.10105  -0.65025   2.14335
N    -1.78290  -0.87569   3.05840
H    -4.41466  -0.91592  -0.92857
H    -5.18798   0.49001  -0.13640
H    -4.48010   0.65600  -1.77102
H    -3.12620   0.96458   0.76275
H     0.18771   0.74471  -1.84764
H     2.21495   1.63718   1.14296
H     4.00245   1.56907   0.85457
H     2.89096   2.27759  -0.36108
H     0.93913  -2.46412   2.22910
H     1.70893  -2.92959   0.67811
H     2.52392  -1.78280   1.75251
