8
Generated by autodE on: 2022-05-29. E = -208.998850 Ha
C    -2.59747   0.18014   0.10157
C    -1.15606   0.07984   0.04540
C     0.05903  -0.00427  -0.00228
C     1.42494  -0.09905  -0.05595
N     2.58983  -0.17899  -0.10124
H    -2.91129   1.23634   0.08194
H    -2.98022  -0.28050   1.02669
H    -3.05349  -0.33524  -0.75920
