22
Generated by autodE on: 2022-05-29. E = -679.411803 Ha
C     4.49787   0.48552   0.20599
N     3.22912  -0.01725  -0.28812
C     2.06944   0.36166   0.26090
O     1.97170   1.15206   1.20806
C     0.81812  -0.21716  -0.31929
C     0.81307  -1.12827  -1.39857
N     0.88396  -1.87507  -2.29086
N    -0.28466   0.21090   0.27555
C    -1.59867   0.00214   0.13510
C    -2.13260  -0.86656  -0.84162
N    -2.62091  -1.57253  -1.63088
C    -2.44423   0.75557   1.08565
C    -3.92817   0.57937   0.98898
O    -1.89828   1.48848   1.90626
H     5.30741   0.02452  -0.37126
H     4.63068   0.23839   1.27056
H     4.55886   1.57970   0.09816
H     3.22814  -0.66931  -1.06723
H    -0.07128   0.88011   1.04773
H    -4.42601   1.19558   1.74749
H    -4.19353  -0.48061   1.13297
H    -4.27757   0.86575  -0.01630
