22
Generated by autodE on: 2022-07-26. E = -679.397084 Ha
C    -4.45965   0.82864   0.30775
N    -3.03467   0.95537   0.55598
C    -2.15171   0.14894  -0.03993
O    -2.45426  -0.74393  -0.84408
C    -0.70256   0.33461   0.29251
C    -0.26555   1.19270   1.32011
N     0.01976   1.88172   2.21654
N     0.07260  -0.52878  -0.36241
C     1.39176  -0.76000  -0.47144
C     1.75423  -2.01621  -1.03237
N     2.05504  -3.04219  -1.49524
C     2.51214   0.15660  -0.16290
C     2.30035   1.64526  -0.13533
O     3.63564  -0.32760  -0.05932
H    -4.98095   1.63649   0.83368
H    -4.67527   0.90230  -0.76882
H    -4.84151  -0.13917   0.66908
H    -2.71178   1.66085   1.21164
H    -0.55691  -1.17031  -0.89058
H     2.27850   2.00563   0.90449
H     1.37930   1.97020  -0.63788
H     3.16977   2.10262  -0.62921
