30
Generated by autodE on: 2022-05-29. E = -888.377788 Ha. Imaginary frequency = -378.6 cm-1
C    -4.34103   1.17082  -0.50388
N    -2.92543   1.36450  -0.24396
C    -1.98800   0.66459  -0.88716
O    -2.19822  -0.10979  -1.82597
C    -0.56324   0.79468  -0.38188
C    -0.24451   1.87377   0.48761
N    -0.13283   2.76697   1.22523
N     0.28913   0.09827  -1.15450
C     1.46979  -0.50050  -0.82032
C     1.76337  -1.66789  -1.60381
N     1.98182  -2.63227  -2.21493
C     2.70496   0.14458  -0.25810
C     2.74091   1.59913   0.09090
O     3.68618  -0.57405  -0.12571
C     0.71161  -1.38283   1.13871
C     1.68457  -2.42812   1.45977
C    -0.35322  -0.75375   1.35557
C    -1.49983  -0.46508   2.05918
N    -2.48574  -0.18763   2.62378
H    -4.50690   1.03466  -1.58015
H    -4.72395   0.28482   0.02861
H    -4.89088   2.05637  -0.16198
H    -2.66545   1.89614   0.58254
H    -0.28902  -0.42932  -1.83324
H     2.32294   1.74241   1.09819
H     3.79187   1.91567   0.10630
H     2.17146   2.21672  -0.61610
H     1.60644  -3.25390   0.73441
H     1.48184  -2.82240   2.46756
H     2.71660  -2.05062   1.41976
