49
Generated by autodE on: 2022-06-05. E = -1390.020465 Ha
C     2.71059   0.61399  -3.79289
N     2.47287   0.75340  -2.37255
C     1.40602   1.41655  -1.91643
O     0.58799   1.98436  -2.66075
C     1.19114   1.47058  -0.43980
C     1.93548   1.19669   0.66551
C     3.29186   0.62346   0.82354
C     3.86526   0.59221   2.21097
O     3.93672   0.19026  -0.13102
C     1.01981   1.56000   1.83675
O     0.26812   2.65361   1.29744
C    -0.13711   1.99030   0.09404
C    -0.97675   0.81933   0.72160
C    -0.10391   0.47805   1.95776
C     0.30544  -0.99760   1.77970
C    -0.36095  -1.87162   2.77618
N    -0.85482  -2.59617   3.53632
N    -0.03170  -1.32849   0.39767
C     0.01472  -2.74114   0.05035
C    -1.16912  -0.51268  -0.03333
C    -1.21632  -0.34955  -1.55831
O    -0.48694  -0.90124  -2.34988
O    -2.19719   0.48349  -1.89100
C    -2.41077   0.71546  -3.29512
C    -2.48605  -1.21932   0.35654
O    -3.03527  -2.03173  -0.35856
O    -2.86466  -0.93490   1.59559
C    -3.94300  -1.70685   2.15122
H     1.88315   0.06907  -4.27625
H     2.79854   1.59592  -4.28484
H     3.64166   0.05478  -3.94563
H     3.12286   0.36330  -1.68023
H     3.90572   1.61330   2.62416
H     3.21658   0.00359   2.87971
H     4.87100   0.15510   2.18786
H     1.50038   1.83346   2.77972
H    -0.69458   2.65014  -0.57404
H    -1.94406   1.24558   1.00022
H    -0.64316   0.63481   2.89727
H     1.38478  -1.15609   1.94008
H    -0.73173  -3.35168   0.59335
H     1.01424  -3.12981   0.29624
H    -0.14654  -2.86402  -1.02582
H    -2.65748  -0.22966  -3.79904
H    -3.25296   1.41342  -3.35758
H    -1.50985   1.15610  -3.74091
H    -4.06814  -1.34920   3.17893
H    -4.86229  -1.54345   1.57191
H    -3.68276  -2.77415   2.14634
