25
Generated by autodE on: 2022-06-05. E = -668.367367 Ha
C     3.81868   0.32735   0.15946
N     2.40088   0.38509  -0.12588
C     1.61119  -0.68199   0.06365
O     2.03318  -1.78914   0.43870
C     0.15880  -0.52201  -0.20421
C    -0.70470   0.52047  -0.28112
C    -0.49872   1.97394  -0.16932
C    -1.71607   2.80594   0.11400
O     0.61050   2.49403  -0.30570
C    -2.10398  -0.15946  -0.35372
C    -2.36411  -0.80170   1.02718
C    -1.50297  -1.82045   1.09679
C    -0.73889  -1.77997  -0.24422
O    -1.76904  -1.31760  -1.13045
H     4.28404   1.27146  -0.14921
H     4.29453  -0.50042  -0.38866
H     4.01282   0.17078   1.23412
H     1.94248   1.28016  -0.33002
H    -2.40048   2.76288  -0.74964
H    -1.42547   3.84735   0.30060
H    -2.26718   2.40143   0.97855
H    -2.91285   0.42310  -0.80416
H    -3.06887  -0.42551   1.76758
H    -1.29555  -2.51324   1.91106
H    -0.26003  -2.70079  -0.58868
