24
Generated by autodE on: 2022-06-05. E = -721.557614 Ha
C    -2.79016   2.38342   0.16640
O    -2.03109   1.17592   0.28393
C    -0.74011   1.23443  -0.09367
O    -0.22497   2.28280  -0.47209
C    -0.06960  -0.04918   0.04354
C    -0.84903  -1.25035   0.44695
O    -0.57722  -1.97483   1.38744
O    -1.90152  -1.45964  -0.34949
C    -2.79661  -2.51501   0.03044
N     1.28454  -0.16550  -0.10026
C     1.86437  -1.53094  -0.01479
C     2.12108   0.84810  -0.33098
C     3.50351   0.66724  -0.51257
N     4.65995   0.60849  -0.67085
H    -2.36554   3.17425   0.80220
H    -2.81259   2.73003  -0.87731
H    -3.80380   2.13396   0.50148
H    -3.60259  -2.50790  -0.71239
H    -3.20315  -2.32982   1.03541
H    -2.27709  -3.48389   0.01909
H     2.88483  -1.51082  -0.40443
H     1.86306  -1.85375   1.03077
H     1.25924  -2.21510  -0.61888
H     1.70707   1.85176  -0.39525
