49
Generated by autodE on: 2022-06-05. E = -1389.914124 Ha. Imaginary frequency = -340.6 cm-1
C     2.44135   0.28623  -3.86809
N     2.37248   0.58769  -2.45404
C     1.34177   1.27664  -1.94603
O     0.44020   1.76454  -2.64812
C     1.29465   1.47953  -0.47113
C     2.05042   1.12027   0.60232
C     3.25153   0.27469   0.72645
C     3.73602  -0.02084   2.11529
O     3.84583  -0.17146  -0.25728
C     1.34078   1.78262   1.80085
O     0.85805   2.99229   1.17456
C     0.15010   2.30474   0.11839
C    -0.76550   1.37082   0.94795
C     0.00239   1.05595   2.05532
C     0.11604  -1.32894   1.89174
C    -0.91662  -1.36819   2.86693
N    -1.69027  -1.38280   3.73873
N    -0.09556  -1.43230   0.55395
C     1.03241  -1.98564  -0.22430
C    -1.16151  -0.79613  -0.03669
C    -1.23151  -0.66186  -1.51459
O    -0.48892  -1.18028  -2.32809
O    -2.25915   0.12059  -1.86495
C    -2.47275   0.31371  -3.27082
C    -2.52504  -0.95708   0.59647
O    -3.37351  -0.10094   0.72203
O    -2.71748  -2.23580   0.94150
C    -3.95255  -2.54524   1.60598
H     1.57903  -0.32487  -4.18091
H     2.43983   1.20702  -4.47244
H     3.36506  -0.27007  -4.06924
H     3.06349   0.21130  -1.79271
H     4.09806   0.91054   2.58222
H     2.91303  -0.39331   2.74443
H     4.55119  -0.75401   2.07900
H     1.95317   1.99489   2.68100
H    -0.35132   2.98952  -0.56877
H    -1.84759   1.44548   0.89973
H    -0.36304   0.90427   3.06686
H     1.07146  -1.71398   2.24977
H     0.68240  -2.87128  -0.76794
H     1.81833  -2.27621   0.47848
H     1.42326  -1.26763  -0.94411
H    -2.65701  -0.64969  -3.76771
H    -3.35675   0.95672  -3.35085
H    -1.60037   0.80421  -3.72193
H    -4.03464  -1.96732   2.53729
H    -4.80489  -2.31797   0.95047
H    -3.91395  -3.61800   1.82605
