47
Generated by autodE on: 2022-06-20. E = -1056.864745 Ha
C     4.35301   1.44447   2.42379
C     3.50023   1.54315   1.38402
C     3.44320   2.77280   0.51625
C     2.58334   0.43730   1.08725
C     1.69751   0.41769   0.07554
C     0.75874  -0.71500  -0.17542
C    -0.77588  -0.33216  -0.15794
C    -1.41532  -0.89340   1.12600
O    -0.87335  -0.85912   2.21189
O    -2.62522  -1.39479   0.91275
C    -3.29072  -1.98156   2.04326
C    -1.06900   1.16531  -0.21648
C    -0.78061   1.98427   0.88662
C    -0.99368   3.36241   0.81821
C    -1.50336   3.93959  -0.34957
C    -1.80163   3.12609  -1.44547
C    -1.58616   1.74567  -1.38058
O    -1.35082  -0.96521  -1.30210
C    -0.48624  -1.99310  -1.74887
C    -0.74382  -3.23283  -0.98013
N    -0.97357  -4.17903  -0.34928
C     0.94354  -1.43297  -1.54885
C     2.02805  -2.50432  -1.47982
C     1.23817  -0.45849  -2.69627
H     4.38002   0.54742   3.04998
H     5.04328   2.25459   2.67543
H     2.43574   3.22164   0.53671
H     4.16817   3.52931   0.84804
H     3.65582   2.52631  -0.53734
H     2.62668  -0.42130   1.76738
H     1.63156   1.26890  -0.60432
H     0.91521  -1.46574   0.61017
H    -2.71480  -2.84315   2.41060
H    -4.27142  -2.30737   1.67903
H    -3.40594  -1.24210   2.84811
H    -0.37909   1.54473   1.79938
H    -0.75893   3.98713   1.68312
H    -1.66967   5.01803  -0.40286
H    -2.20458   3.56535  -2.36112
H    -1.81726   1.11546  -2.23836
H    -0.71354  -2.20005  -2.80457
H     2.10266  -3.04872  -2.43418
H     1.83693  -3.23156  -0.67673
H     3.00112  -2.03024  -1.28079
H     0.49288   0.34659  -2.75732
H     2.22749   0.00147  -2.56289
H     1.24235  -0.99950  -3.65473
