23
Generated by autodE on: 2022-06-20. E = -351.521383 Ha
C     3.39169  -0.25700   1.65224
C     2.42377  -0.50955   0.74382
C     2.65328  -1.46356  -0.40044
C     1.12329   0.14704   0.86126
C     0.07397  -0.01982   0.01747
C    -1.19630   0.65750   0.17958
C    -2.28903   0.54628  -0.61746
C    -2.36503  -0.32722  -1.83745
C    -3.54249   1.31801  -0.31556
H     4.37356  -0.73418   1.58808
H     3.22221   0.43606   2.48207
H     1.93236  -2.29755  -0.37291
H     3.66856  -1.88358  -0.37118
H     2.51431  -0.96029  -1.37171
H     1.00702   0.83062   1.71095
H     0.18233  -0.70015  -0.83153
H    -1.26743   1.32972   1.04327
H    -2.62043   0.27788  -2.72523
H    -3.17854  -1.06616  -1.72759
H    -1.43593  -0.87128  -2.05055
H    -3.81332   1.97237  -1.16368
H    -4.39847   0.63386  -0.17358
H    -3.44115   1.94019   0.58574
