24
Generated by autodE on: 2022-06-20. E = -705.244831 Ha
C    -1.80242   3.48476   0.96685
O    -1.54929   2.19483   0.39501
C    -0.36574   1.63885   0.68671
O     0.48015   2.17945   1.38174
C    -0.19095   0.30730   0.08661
O    -1.24305  -0.11498  -0.56519
C    -1.46401  -1.19275  -1.28317
C    -2.72163  -1.28463  -1.89153
N    -3.76571  -1.39739  -2.40963
C     1.04026  -0.46647   0.22434
C     1.00650  -1.85045   0.49926
C     2.19196  -2.56697   0.65608
C     3.42723  -1.92249   0.53203
C     3.47164  -0.55063   0.26111
C     2.29183   0.17594   0.11353
H    -1.06328   4.21701   0.61026
H    -2.80750   3.76918   0.63445
H    -1.76539   3.43562   2.06498
H    -0.69238  -1.94954  -1.41820
H     0.05225  -2.36454   0.62352
H     2.15011  -3.63508   0.88007
H     4.35425  -2.48859   0.64737
H     4.43344  -0.04286   0.16067
H     2.33211   1.24374  -0.09987
