47
Generated by autodE on: 2022-06-20. E = -1056.770575 Ha. Imaginary frequency = -254.8 cm-1
C     2.73496   2.57196   2.68488
C     2.54602   2.10058   1.43219
C     2.79305   2.96481   0.22306
C     2.07633   0.73420   1.22959
C     1.82568   0.16285   0.02137
C     1.36397  -1.19037  -0.14252
C    -1.18337  -0.06583  -0.06338
C    -1.22403  -0.90096   1.13722
O    -0.87969  -0.55113   2.25847
O    -1.67798  -2.13059   0.86852
C    -1.57008  -3.12232   1.89144
C    -1.05963   1.38472  -0.05488
C    -0.94490   2.12952   1.13971
C    -0.77994   3.51454   1.10096
C    -0.72670   4.19244  -0.11841
C    -0.83973   3.46624  -1.31208
C    -1.00005   2.08527  -1.28442
O    -1.34034  -0.58134  -1.27282
C    -1.10174  -1.73742  -1.87075
C    -1.56248  -3.01486  -1.47009
N    -1.88401  -4.13133  -1.34226
C     1.31184  -1.88233  -1.34588
C     1.39473  -3.38585  -1.31509
C     1.71222  -1.21657  -2.63967
H     2.54708   1.94250   3.56013
H     3.07456   3.59573   2.86426
H     1.88174   3.05769  -0.38811
H     3.11738   3.97368   0.51444
H     3.56822   2.52498  -0.42647
H     1.90927   0.13983   2.13421
H     1.97895   0.75429  -0.88402
H     1.23366  -1.77461   0.77364
H    -0.52987  -3.20406   2.23913
H    -1.89032  -4.06249   1.42750
H    -2.22287  -2.87339   2.74050
H    -0.97515   1.61635   2.09629
H    -0.68335   4.06566   2.03903
H    -0.59235   5.27608  -0.14348
H    -0.79522   3.98330  -2.27338
H    -1.07925   1.53333  -2.22084
H    -1.01779  -1.61179  -2.95263
H     2.45908  -3.68376  -1.34353
H     0.91003  -3.85232  -2.18475
H     0.95500  -3.80210  -0.39715
H     1.29894  -0.20244  -2.73490
H     2.81288  -1.13305  -2.69449
H     1.38459  -1.80710  -3.50711
