43
Generated by autodE on: 2022-10-08. E = -1236.718875 Ha
C    -3.78853   2.92287  -0.41339
N    -3.01881   1.71178  -0.22082
C    -1.74747   1.61167  -0.62495
O    -1.14655   2.55194  -1.16641
C    -0.99393   0.28690  -0.32496
C    -1.90708  -0.95931  -0.14308
O    -3.10233  -0.91071   0.19521
N    -1.26425  -2.11804  -0.32797
C    -1.83582  -3.36942   0.12133
C    -0.14827   0.52211   0.98665
C    -0.16221  -0.68579   1.96577
O     0.84007  -1.43679   2.02807
O    -1.21999  -0.80978   2.64141
C     1.22459   0.95580   0.43960
C     2.37893   0.77995   1.43771
O     3.39932   0.13892   1.07031
O     2.22546   1.34574   2.55182
C     1.37361   0.35356  -0.98659
C     1.98162   1.40926  -1.92604
C     2.21419  -0.96219  -1.03838
C     3.61026  -0.95880  -1.60456
O     1.67895  -2.03335  -0.77915
N     0.00057   0.00562  -1.33016
C    -0.39890  -0.10749  -2.70938
H    -4.78657   2.78489   0.02112
H    -3.90060   3.16948  -1.48245
H    -3.30592   3.78284   0.07750
H    -3.44360   0.84694   0.12787
H    -0.25835  -2.05574  -0.52818
H    -1.14339  -4.18588  -0.12005
H    -2.80024  -3.56750  -0.37047
H    -2.00576  -3.35519   1.21207
H    -0.60604   1.34254   1.55275
H     1.15187   2.04293   0.28567
H     2.94086   1.76738  -1.52748
H     1.29642   2.26394  -1.99341
H     2.15569   1.02180  -2.94008
H     4.17518  -0.05334  -1.36803
H     3.51972  -1.03313  -2.70289
H     4.14793  -1.84777  -1.24797
H    -1.37481  -0.61366  -2.77583
H    -0.49511   0.86270  -3.23464
H     0.32252  -0.72607  -3.26819
