33
Generated by autodE on: 2022-10-08. E = -781.608576 Ha
C    -1.95687   3.29143  -1.51899
N    -1.10807   2.25262  -0.97425
C    -1.62668   1.08363  -0.50777
O    -2.86387   0.88624  -0.58704
C    -0.68689   0.09471   0.00821
C    -1.01692  -1.32317   0.19467
O    -0.19888  -2.14182   0.66656
N    -2.27542  -1.70648  -0.14128
C    -2.76912  -3.02019   0.20434
N     0.60359   0.49087   0.37807
C     0.70740   1.56430   1.39128
C     1.66840  -0.16495  -0.07775
C     1.56296  -0.99750  -1.30554
C     2.98454  -0.08827   0.63343
C     4.21929  -0.45321  -0.14439
O     3.05098   0.22108   1.81710
H    -2.44671   2.97743  -2.45677
H    -1.34309   4.17739  -1.72560
H    -2.74817   3.56968  -0.80613
H    -0.10454   2.35699  -1.06332
H    -2.92216  -0.94422  -0.35309
H    -2.09419  -3.80436  -0.17032
H    -2.86943  -3.16394   1.29568
H    -3.75675  -3.16298  -0.25374
H    -0.20923   2.15737   1.34870
H     0.79308   1.10947   2.38463
H     1.57681   2.20208   1.19757
H     1.47201  -2.06673  -1.05529
H     0.66050  -0.71842  -1.87006
H     2.45344  -0.86744  -1.93462
H     4.28144   0.12096  -1.08216
H     5.10045  -0.25421   0.47839
H     4.19961  -1.52115  -0.41554
