33
Generated by autodE on: 2022-10-13. E = -781.605201 Ha
C    -3.61349   1.58990   1.53100
N    -2.66674   0.80438   0.76697
C    -1.38006   1.20304   0.61371
O    -0.99121   2.28737   1.08639
C    -0.45703   0.30920  -0.11799
C    -0.62276  -1.16379  -0.24431
O    -0.15729  -1.79842  -1.20230
N    -1.37307  -1.78587   0.69603
C    -1.56726  -3.22147   0.66458
N     0.57660   0.89661  -0.78987
C     0.34970   2.19075  -1.46761
C     1.79787   0.33074  -0.94122
C     2.69752   0.81044  -2.03966
C     2.31385  -0.54191   0.10993
C     3.80766  -0.78823   0.12634
O     1.61042  -1.01580   1.01226
H    -3.21736   1.81813   2.53254
H    -4.54317   1.01750   1.63988
H    -3.84548   2.54829   1.03636
H    -2.98903  -0.03675   0.30351
H    -1.61579  -1.28399   1.54230
H    -2.01285  -3.53696  -0.29062
H    -2.24411  -3.50556   1.48009
H    -0.61376  -3.76282   0.78777
H    -0.65009   2.56062  -1.23974
H     1.10379   2.92322  -1.15520
H     0.42693   2.03067  -2.55090
H     3.48512   0.07567  -2.24176
H     2.13933   0.95800  -2.97516
H     3.19036   1.76910  -1.79824
H     4.06765  -1.28046   1.07234
H     4.08857  -1.45417  -0.70677
H     4.39074   0.13809   0.01607
