10
Generated by autodE on: 2022-10-08. E = -455.046503 Ha
O    -1.79410  -0.85078   1.05025
C    -1.57098  -0.10317   0.06348
O    -2.08029  -0.20003  -1.08329
C    -0.68263   1.10335   0.30344
C     0.65777   1.16431   0.23438
C     1.58051   0.01225  -0.08794
O     1.07299  -1.08365  -0.45870
O     2.81730   0.23997   0.04312
H    -1.23319   2.01976   0.55797
H     1.16328   2.11379   0.44557
