59
Generated by autodE on: 2022-06-11. E = -1542.426529 Ha
C     4.43534  -0.01015  -2.65627
N     3.45907  -0.41088  -1.66291
C     2.65764   0.46454  -1.05766
O     2.74044   1.69245  -1.19918
C     1.66634  -0.15082  -0.04184
C     2.40282   0.00944   1.31481
O     2.57593   1.07017   1.87209
O     2.93179  -1.13573   1.72976
C     3.62389  -1.09729   2.98606
N     1.44084  -1.56679  -0.30409
C     0.22069  -1.87872  -0.10003
C    -0.24370  -3.29842  -0.07537
C    -0.69344  -0.70744   0.31445
C    -0.77267  -0.89300   1.85561
O     0.22623  -0.69463   2.55384
N    -1.89747  -1.41582   2.36027
C    -2.00946  -1.73962   3.77052
C    -2.04293  -0.66634  -0.40024
C    -3.08320   0.14892   0.07962
C    -4.27994   0.27303  -0.62856
C    -4.46017  -0.40850  -1.83528
C    -3.42778  -1.20760  -2.33104
C    -2.22993  -1.33077  -1.62247
C     0.23577   0.51709  -0.07938
C     0.01003   1.76815   0.79883
O    -0.88933   1.81197   1.64635
N     0.79276   2.81377   0.50887
C     0.81017   3.99212   1.34850
C    -0.08479   0.84910  -1.56907
O     0.44631   0.21661  -2.48461
N    -1.00070   1.79965  -1.79945
C    -1.53484   2.01677  -3.13131
H     3.95364   0.24173  -3.61582
H     5.14029  -0.83455  -2.81965
H     4.98964   0.87236  -2.30795
H     3.23680  -1.39366  -1.52524
H     2.93119  -0.79956   3.78625
H     4.46537  -0.39120   2.94394
H     3.98914  -2.11605   3.15878
H     0.33246  -3.90420  -0.78790
H    -0.05609  -3.70117   0.93475
H    -1.31594  -3.40051  -0.27816
H    -2.69171  -1.57614   1.75127
H    -3.00474  -2.16016   3.95785
H    -1.87761  -0.84147   4.39389
H    -1.24645  -2.47576   4.06835
H    -2.93982   0.71906   0.99600
H    -5.07192   0.91537  -0.23673
H    -5.39584  -0.30961  -2.39024
H    -3.54688  -1.73416  -3.28058
H    -1.42667  -1.92818  -2.05338
H     1.59179   2.62602  -0.10767
H     1.29037   3.78495   2.32104
H    -0.21296   4.34513   1.54012
H     1.37126   4.78783   0.84167
H    -1.50245   2.20761  -1.01822
H    -2.26481   2.83396  -3.08858
H    -2.03165   1.11034  -3.51283
H    -0.73222   2.29079  -3.83176
