37
Generated by autodE on: 2022-06-11. E = -934.153250 Ha
C     1.36953   2.76670   1.52670
N     2.39472   2.09146   0.74991
C     2.19100   1.00663  -0.01516
O     3.03957   0.54838  -0.79086
C     0.93929   0.20422   0.25812
C     1.10570  -0.78175   1.39188
O     0.29313  -0.83442   2.31539
N     2.21636  -1.53500   1.31201
C     2.59328  -2.52222   2.30314
C    -0.21533   0.29708  -0.43492
C    -0.33900   1.34675  -1.50874
O     0.47814   2.25023  -1.61055
N    -1.37307   1.20315  -2.34987
C    -1.65950   2.12364  -3.43029
C    -1.35007  -0.63607  -0.19637
C    -1.19000  -2.01714  -0.39344
C    -2.25119  -2.89273  -0.15576
C    -3.48407  -2.39925   0.28248
C    -3.65252  -1.02470   0.47822
C    -2.59386  -0.14671   0.23707
H     0.74510   2.03725   2.05918
H     1.85320   3.41020   2.27300
H     0.71836   3.38705   0.88996
H     3.25115   2.60303   0.54702
H     2.81754  -1.39631   0.50284
H     1.84154  -2.52790   3.10092
H     3.57561  -2.28322   2.73946
H     2.64613  -3.52689   1.85602
H    -2.02468   0.44245  -2.18275
H    -0.80833   2.80220  -3.55825
H    -1.82423   1.57283  -4.36823
H    -2.56040   2.72160  -3.21638
H    -0.22740  -2.40074  -0.73758
H    -2.11475  -3.96490  -0.31504
H    -4.31386  -3.08489   0.46911
H    -4.61209  -0.63367   0.82423
H    -2.72546   0.92579   0.39711
