59
Generated by autodE on: 2022-06-11. E = -1542.353240 Ha. Imaginary frequency = -382.4 cm-1
C     2.92272   0.73438  -3.85196
N     3.00917   0.45388  -2.43401
C     2.36273  -0.59215  -1.89691
O     1.76188  -1.43581  -2.57496
C     2.36066  -0.68752  -0.39965
C     3.30392   0.05135   0.46127
O     3.91978   1.04558   0.10131
O     3.42913  -0.50180   1.66671
C     4.26604   0.18255   2.60834
N     1.80291  -1.79569   0.07270
C     0.75489  -2.25937   0.46041
C     0.26836  -3.56307   0.93890
C    -0.58748  -0.66368   0.47448
C    -0.90191  -1.01058   1.93004
O    -0.04118  -0.86762   2.81070
N    -2.11044  -1.52701   2.19719
C    -2.45061  -2.00643   3.52293
C    -1.61926  -1.04743  -0.56212
C    -2.82544  -0.32206  -0.56426
C    -3.84353  -0.62429  -1.47009
C    -3.66972  -1.65147  -2.40253
C    -2.46862  -2.36502  -2.42140
C    -1.45268  -2.06655  -1.50962
C     0.17125   0.52346   0.29307
C     0.45424   1.39596   1.50527
O     1.58556   1.73328   1.87325
N    -0.65426   1.91061   2.07569
C    -0.58122   2.66696   3.30997
C     0.25137   1.26547  -1.00576
O    -0.26420   0.86286  -2.05679
N     0.92193   2.44739  -0.94115
C     1.16088   3.28850  -2.09349
H     1.87486   0.87009  -4.16345
H     3.48189   1.65265  -4.06758
H     3.34985  -0.08802  -4.44752
H     3.44589   1.11492  -1.79338
H     5.29430   0.25899   2.22674
H     3.86640   1.18587   2.80694
H     4.24525  -0.42292   3.52175
H     0.82508  -4.37718   0.45342
H     0.44181  -3.60456   2.02614
H    -0.80656  -3.67696   0.75825
H    -2.77025  -1.65780   1.43780
H    -3.49991  -2.32521   3.52530
H    -2.31602  -1.21324   4.27357
H    -1.81690  -2.86096   3.81178
H    -2.95846   0.49613   0.14796
H    -4.77128  -0.04756  -1.45286
H    -4.46280  -1.88870  -3.11535
H    -2.31376  -3.15835  -3.15642
H    -0.51104  -2.60983  -1.57785
H    -1.56039   1.57196   1.76951
H     0.14074   3.49072   3.21637
H    -0.26486   2.02572   4.15052
H    -1.57090   3.08398   3.53363
H     1.48613   2.62052  -0.11398
H     0.48184   2.99640  -2.90265
H     0.97472   4.34325  -1.83927
H     2.19797   3.20283  -2.45599
