39
Generated by autodE on: 2022-06-19. E = -843.957344 Ha
C    -0.53998   2.66806   1.27840
O    -1.10943   1.63276   0.45937
C    -1.48493   0.51633   1.07159
O    -1.40603   0.34390   2.27162
C    -2.02471  -0.56521   0.12467
C    -3.43671  -0.92838   0.58366
C    -1.06291  -1.78249   0.10860
C    -0.14749  -1.54712  -1.11004
C     0.16610  -2.83158  -1.88833
C     1.12834  -0.77323  -0.83413
C     1.55466  -0.32312   0.36177
C     2.77013   0.44932   0.55039
C     3.21547   0.97131   1.71931
C     4.49875   1.75123   1.77334
C     2.50239   0.83972   3.03638
C    -1.07001  -0.60131  -1.89313
C    -0.81112  -0.28399  -3.27408
N    -0.56532  -0.06195  -4.38756
N    -2.04851  -0.06840  -1.26574
H    -0.33992   3.50714   0.60272
H     0.39556   2.31703   1.73461
H    -1.24697   2.96846   2.06410
H    -3.40187  -1.32696   1.60726
H    -3.85540  -1.69636  -0.08251
H    -4.09391  -0.04630   0.56826
H    -0.52490  -1.91960   1.05300
H    -1.66179  -2.68662  -0.06839
H    -0.76029  -3.33671  -2.20235
H     0.74236  -3.51859  -1.25036
H     0.76765  -2.61443  -2.78463
H     1.72465  -0.55042  -1.72763
H     0.97145  -0.54726   1.25651
H     3.37150   0.62338  -0.34956
H     4.31558   2.78029   2.13079
H     4.99411   1.80591   0.79293
H     5.20088   1.29744   2.49547
H     3.12268   0.27124   3.75204
H     2.35335   1.83676   3.48580
H     1.52244   0.35125   2.96637
