23
Generated by autodE on: 2022-06-19. E = -351.521385 Ha
C     1.32701   0.20557  -3.53496
C     1.26941  -0.19200  -2.24484
C     2.27943  -1.15577  -1.67628
C     0.21232   0.31405  -1.37158
C     0.04377  -0.00894  -0.06464
C    -1.02424   0.52228   0.75753
C    -1.26227   0.24791   2.06505
C    -2.41724   0.88343   2.78612
C    -0.43103  -0.68215   2.90242
H     2.10673  -0.15764  -4.21025
H     0.59210   0.90535  -3.94475
H     1.78836  -2.06479  -1.29094
H     2.82175  -0.70778  -0.82707
H     3.01470  -1.45615  -2.43600
H    -0.49560   1.01352  -1.83237
H     0.74529  -0.70588   0.40184
H    -1.70576   1.21968   0.25548
H    -2.06367   1.46004   3.65981
H    -3.10080   0.11305   3.18627
H    -2.99453   1.55656   2.13541
H     0.40066  -1.14513   2.35603
H    -0.01402  -0.14346   3.77175
H    -1.06133  -1.48865   3.31698
