13
Generated by autodE on: 2022-05-28. E = -340.881194 Ha
C     1.88408   1.27695  -0.12512
C     0.99057   0.06236  -0.11325
O     1.43284  -1.08069  -0.25573
C    -0.43311   0.33047   0.07811
C    -1.06263   1.68601   0.26056
N    -1.19468  -0.73815   0.08436
N    -1.81366  -1.68774   0.08273
H     1.79408   1.83303   0.82190
H     1.58832   1.96670  -0.93195
H     2.92505   0.96100  -0.27154
H    -0.86312   2.33241  -0.60859
H    -2.15112   1.59570   0.37640
H    -0.66341   2.18852   1.15572
