17
Generated by autodE on: 2022-05-28. E = -439.145382 Ha
C    -2.42439  -0.11933   0.38866
C    -0.99984  -0.25406   0.01962
C    -0.06206   0.66689  -0.29495
C    -0.19550   2.06632  -0.36775
N    -0.29114   3.22768  -0.43613
C     1.26325  -0.14007  -0.44966
C     1.64125  -0.64478   0.95898
C     0.70863  -1.55343   1.26024
C    -0.21664  -1.59117   0.02560
O     0.73009  -1.33990  -1.02769
H    -2.57820  -0.50746   1.41133
H    -3.05528  -0.73459  -0.27487
H    -2.76530   0.92452   0.34831
H     2.04646   0.31499  -1.06376
H     2.46428  -0.26175   1.56114
H     0.55122  -2.11838   2.17809
H    -0.80662  -2.49772  -0.14625
