60
Generated by autodE on: 2022-06-09. E = -1920.031479 Ha
C    -1.71020  -3.80723   0.79880
C    -1.05018  -3.04748   1.90411
O    -0.63604  -3.56306   2.92612
C    -0.87482  -1.52265   1.72064
C    -1.38831  -0.89339   3.04840
C    -2.87503  -0.74244   3.18345
O    -0.61078  -0.60681   3.93653
O    -1.63346  -1.09144   0.60786
C    -1.01894   0.07929   0.02021
C    -1.59597   1.30195   0.74656
C    -0.91888   1.97557   1.77011
C    -1.55236   2.99191   2.49562
C    -2.86922   3.34956   2.20548
C    -3.55347   2.68540   1.18001
C    -2.92118   1.67267   0.46031
C    -1.34689   0.11182  -1.46239
C    -1.90401  -0.98974  -2.11878
C    -2.12065  -0.95042  -3.50142
C    -1.77368   0.18372  -4.23874
C    -1.21192   1.28700  -3.58500
C    -1.00462   1.25207  -2.20560
C     0.49935  -0.12064   0.26404
C     1.28291  -0.89227  -0.84457
O     0.97642  -2.26242  -0.55821
C     1.46879  -2.25249   0.78351
C     2.85168  -1.65110   0.58116
Cl    4.12311  -1.93853   1.71015
C     2.76226  -0.78251  -0.44911
C     3.67359   0.21011  -1.00954
C     3.15888   1.24469  -1.82018
C     4.00214   2.21973  -2.35457
C     5.37656   2.17837  -2.10243
C     5.90146   1.15176  -1.30903
C     5.06302   0.17965  -0.76520
C     0.59883  -1.13622   1.43914
H    -2.73450  -3.43085   0.65099
H    -1.72716  -4.87647   1.04480
H    -1.16861  -3.63024  -0.14231
H    -3.39075  -1.65554   2.84707
H    -3.12954  -0.52080   4.22766
H    -3.22578   0.07767   2.53956
H     0.10510   1.71062   2.03184
H    -1.00780   3.50161   3.29376
H    -3.36263   4.14222   2.77267
H    -4.58485   2.95709   0.94313
H    -3.46610   1.15017  -0.32810
H    -2.16559  -1.88092  -1.54988
H    -2.56151  -1.81569  -4.00235
H    -1.94043   0.21105  -5.31812
H    -0.93617   2.17919  -4.15217
H    -0.56600   2.11511  -1.69976
H     0.98993   0.83646   0.45767
H     1.03611  -0.64604  -1.87921
H     1.43473  -3.24287   1.24744
H     2.08891   1.29615  -2.02829
H     3.58135   3.01537  -2.97377
H     6.03683   2.93971  -2.52413
H     6.97532   1.10694  -1.11263
H     5.48903  -0.61606  -0.15500
H     1.06169  -0.74828   2.35180
