60
Generated by autodE on: 2022-06-09. E = -1919.922485 Ha. Imaginary frequency = -229.6 cm-1
C    -1.53340  -3.91354   0.60998
C    -1.25912  -3.13166   1.87382
O    -0.73772  -3.68877   2.84854
C    -1.62506  -1.71796   1.90991
C    -2.10417  -1.08332   3.13509
C    -1.45939  -1.44197   4.44944
O    -3.04036  -0.27810   3.09720
O    -2.02413  -1.24216   0.69562
C    -1.94575  -0.05842   0.12366
C    -2.34394   1.21981   0.77999
C    -1.69776   1.79312   1.88915
C    -2.14589   2.99782   2.42878
C    -3.25882   3.64651   1.88581
C    -3.92005   3.08194   0.79199
C    -3.45997   1.88750   0.23669
C    -1.93570  -0.12602  -1.34597
C    -2.14285  -1.34331  -2.02267
C    -2.02003  -1.41040  -3.40951
C    -1.68011  -0.27026  -4.14582
C    -1.47000   0.94442  -3.48310
C    -1.60006   1.01996  -2.09817
C     0.47281   0.11906   0.40840
C     1.09380  -0.67096  -0.75605
O     0.83016  -2.01821  -0.34129
C     1.44187  -1.89534   0.94818
C     2.83174  -1.38456   0.51202
Cl    4.23694  -1.68399   1.46108
C     2.63812  -0.59629  -0.56706
C     3.49933   0.27731  -1.35182
C     2.91824   1.25821  -2.18484
C     3.71639   2.12448  -2.93283
C     5.10973   2.02509  -2.87608
C     5.69930   1.05095  -2.06159
C     4.90770   0.18768  -1.30605
C     0.69627  -0.66532   1.50602
H    -1.32831  -4.97335   0.80930
H    -0.88349  -3.56001  -0.20139
H    -2.57668  -3.78864   0.28328
H    -1.79609  -0.71849   5.20486
H    -1.76434  -2.45442   4.75578
H    -0.36272  -1.44690   4.38196
H    -0.83547   1.30624   2.33759
H    -1.62216   3.42925   3.28454
H    -3.60927   4.58832   2.31428
H    -4.79635   3.57325   0.36329
H    -3.98203   1.45653  -0.61841
H    -2.40354  -2.23482  -1.45584
H    -2.19086  -2.36084  -3.91997
H    -1.57770  -0.32798  -5.23176
H    -1.19555   1.83780  -4.04821
H    -1.40452   1.96450  -1.58990
H     0.32032   1.19358   0.37669
H     0.71758  -0.48025  -1.76429
H     1.41872  -2.82351   1.52579
H     1.83218   1.35162  -2.24279
H     3.24551   2.88008  -3.56601
H     5.73421   2.70036  -3.46552
H     6.78731   0.96165  -2.01630
H     5.38210  -0.56897  -0.68189
H     0.70016  -0.38010   2.55591
