46
Generated by autodE on: 2022-06-20. E = -981.599211 Ha
C    -0.09182  -2.54479  -2.31858
C     0.14444  -1.34944  -1.75935
C     0.33467  -0.10220  -2.57812
C     0.22908  -1.24302  -0.25305
C     1.20528  -0.19763   0.30914
C     2.63906  -0.57977   0.11779
C     3.63258   0.21783  -0.31613
C     5.03272  -0.30944  -0.47469
C     3.46406   1.67282  -0.65727
C     0.72222  -0.12661   1.77730
C     1.08251   1.20299   2.42552
C     2.45423   1.28856   3.02289
O     0.29947   2.13760   2.43031
O    -0.69385  -0.27598   1.71949
C    -1.10934  -0.86606   0.48991
C    -1.83802  -2.11026   0.81887
N    -2.39380  -3.09274   1.08636
C    -2.02162   0.07534  -0.29198
C    -2.87137  -0.42717  -1.28712
C    -3.63146   0.44648  -2.06714
C    -3.55605   1.82669  -1.85255
C    -2.72351   2.32633  -0.84723
C    -1.95805   1.45512  -0.06631
H    -0.20691  -3.44541  -1.70805
H    -0.18401  -2.65710  -3.40290
H     0.14824  -0.29924  -3.64335
H     1.36471   0.27793  -2.47343
H    -0.33470   0.70781  -2.25059
H     0.53043  -2.22280   0.14595
H     0.99022   0.77480  -0.15235
H     2.87632  -1.62173   0.36315
H     5.10636  -1.37509  -0.21272
H     5.38201  -0.17979  -1.51411
H     5.73612   0.25681   0.16075
H     4.13058   2.28625  -0.02645
H     3.76587   1.86115  -1.70208
H     2.43901   2.04062  -0.52194
H     1.16793  -0.95168   2.35951
H     2.68881   2.32544   3.29555
H     3.20323   0.88985   2.32099
H     2.48948   0.64929   3.92134
H    -2.93317  -1.50255  -1.46284
H    -4.28718   0.04651  -2.84396
H    -4.15162   2.50968  -2.46284
H    -2.66760   3.40238  -0.66630
H    -1.30849   1.84003   0.71922
