23
Generated by autodE on: 2022-06-20. E = -351.519888 Ha
C     3.64968   0.48247   0.74610
C     2.51168  -0.17551   0.53010
C     2.45673  -1.67979   0.58516
C     1.28911   0.56439   0.23602
C     0.06782   0.01543   0.00270
C    -1.12214   0.78952  -0.28287
C    -2.35852   0.27752  -0.50741
C    -3.53182   1.17214  -0.78220
C    -2.64272  -1.20585  -0.47953
H     4.58047  -0.04620   0.96873
H     3.68703   1.57529   0.70674
H     3.44487  -2.10661   0.80801
H     1.74884  -2.02324   1.35779
H     2.10548  -2.09997  -0.37189
H     1.38503   1.65660   0.20719
H    -0.03802  -1.07288   0.03195
H    -0.99863   1.87857  -0.31193
H    -4.33056   1.00907  -0.03587
H    -3.98202   0.93661  -1.76348
H    -3.25634   2.23704  -0.77057
H    -3.66602  -1.42018  -0.82059
H    -1.94805  -1.77287  -1.11959
H    -2.54303  -1.61480   0.54073
