23
Generated by autodE on: 2022-06-20. E = -629.994550 Ha
C    -3.20145   1.27760  -0.44732
C    -3.32808  -0.08249   0.19728
O    -4.42633  -0.58016   0.48443
C    -2.12547  -0.81758   0.48440
O    -0.98180  -0.25917   0.16402
C     0.25267  -0.68288   0.30107
C     0.46524  -1.95333   0.89015
N     0.61168  -3.00262   1.37833
C     1.32586   0.17840  -0.15102
C     2.66840  -0.24098  -0.03277
C     3.70219   0.58760  -0.46357
C     3.41927   1.84124  -1.01682
C     2.08834   2.26274  -1.13761
C     1.04646   1.44464  -0.71115
H    -2.61048   1.95583   0.18839
H    -2.68198   1.20266  -1.41568
H    -4.20459   1.69647  -0.59889
H    -2.13000  -1.80687   0.94881
H     2.89770  -1.21813   0.39784
H     4.73687   0.25178  -0.36650
H     4.23202   2.48865  -1.35303
H     1.86196   3.24054  -1.56863
H     0.01225   1.77806  -0.80609
