23
Generated by autodE on: 2022-07-27. E = -629.992986 Ha
C     3.72288   1.99666   1.98954
C     2.42714   1.80753   1.24118
O     1.78732   2.75851   0.77012
C     1.97284   0.44440   1.11028
O     0.84252   0.28472   0.46376
C     0.14159  -0.77640   0.15907
C     0.61734  -2.04806   0.56563
N     1.02918  -3.08321   0.91074
C    -1.08743  -0.57495  -0.58100
C    -1.89416  -1.67292  -0.94589
C    -3.07439  -1.46620  -1.65716
C    -3.46704  -0.17139  -2.01379
C    -2.66851   0.92278  -1.65354
C    -1.48773   0.73071  -0.94355
H     3.99929   3.05907   1.98698
H     4.52780   1.40124   1.52901
H     3.61623   1.64705   3.02985
H     2.49064  -0.43394   1.50164
H    -1.59335  -2.68625  -0.67101
H    -3.69234  -2.32267  -1.93520
H    -4.39303  -0.01347  -2.57087
H    -2.97154   1.93511  -1.92995
H    -0.86283   1.57917  -0.66069
