46
Generated by autodE on: 2022-06-20. E = -981.528513 Ha. Imaginary frequency = -271.0 cm-1
C    -0.99059  -0.35079  -2.95485
C    -0.12257   0.22856  -2.09521
C     0.07742   1.72191  -2.06480
C     0.62646  -0.59686  -1.15717
C     1.72941  -0.13849  -0.42521
C     2.68687  -1.07551   0.15213
C     3.98909  -0.83285   0.43148
C     4.86249  -1.90877   1.01299
C     4.68427   0.47324   0.16714
C     0.67042   0.62132   1.51387
C     1.21537   1.95038   1.72249
C     2.52751   2.01967   2.45743
O     0.64440   2.96373   1.30291
O    -0.58761   0.58431   1.08191
C    -1.14953  -0.52927   0.60848
C    -0.71140  -1.78315   1.11697
N    -0.33864  -2.80841   1.53060
C    -2.41345  -0.39059  -0.08430
C    -3.08841  -1.52761  -0.57252
C    -4.26729  -1.38506  -1.30281
C    -4.79298  -0.11338  -1.55538
C    -4.12279   1.02032  -1.07980
C    -2.93965   0.88986  -0.35694
H    -1.13372  -1.43427  -2.96929
H    -1.57207   0.24413  -3.66379
H    -0.63537   2.22826  -2.73038
H     1.09780   1.99138  -2.38655
H    -0.04573   2.12282  -1.04760
H     0.47229  -1.67630  -1.23119
H     2.07072   0.87823  -0.62075
H     2.29736  -2.07873   0.35720
H     4.31662  -2.85211   1.16090
H     5.73112  -2.10517   0.35945
H     5.27711  -1.58928   1.98580
H     5.18983   0.83345   1.07864
H     5.47715   0.32996  -0.58871
H     4.01386   1.26511  -0.18990
H     1.05807  -0.24865   2.04495
H     3.14833   2.82486   2.04057
H     3.06886   1.06477   2.43477
H     2.31794   2.26413   3.51354
H    -2.68220  -2.52371  -0.38444
H    -4.77961  -2.27428  -1.67671
H    -5.71867  -0.00535  -2.12486
H    -4.52494   2.01653  -1.27765
H    -2.41630   1.77361   0.00856
