63
Generated by autodE on: 2022-06-06. E = -1255.303719 Ha
C     0.96940  -0.10768  -2.95889
C     0.28751  -0.43167  -1.64083
N    -0.80830   0.48574  -1.37549
C    -1.28368   0.25331   0.00131
C    -2.52681  -0.67307  -0.05513
C    -3.28731  -0.95771   1.09207
C    -4.40631  -1.79024   1.03287
C    -4.79974  -2.36112  -0.18215
C    -4.05848  -2.08213  -1.33165
C    -2.93850  -1.24547  -1.26629
C    -1.79871   1.58892   0.57803
C    -2.18322   2.61815  -0.30319
C    -2.70603   3.82638   0.16401
C    -2.87711   4.03980   1.53328
C    -2.53247   3.01871   2.42132
C    -2.00960   1.81163   1.94966
C    -0.01176  -0.48264   0.75797
C     0.42745   0.06543   2.12216
C    -0.33556  -1.96858   1.01832
C     1.15684  -0.39457  -0.34198
C     2.11898  -1.57904  -0.20877
C     2.04646  -2.71256  -1.03259
C     2.91283  -3.79749  -0.85553
C     3.87477  -3.77775   0.15561
C     3.96761  -2.65275   0.98180
C     3.10687  -1.57065   0.79402
C     1.96181   0.91851  -0.36982
C     3.23725   0.93163  -0.96982
C     3.96173   2.11253  -1.13785
C     3.43020   3.33446  -0.71408
C     2.16340   3.34888  -0.13044
C     1.44299   2.16008   0.03453
H     0.27295  -0.28318  -3.79317
H     1.85642  -0.73768  -3.11560
H     1.29028   0.94415  -2.99781
H    -0.14056  -1.44117  -1.71412
H    -0.43085   1.42955  -1.43786
H    -3.00616  -0.53349   2.05507
H    -4.97440  -1.99265   1.94431
H    -5.67631  -3.01170  -0.23034
H    -4.35153  -2.51366  -2.29226
H    -2.37786  -1.02069  -2.17196
H    -2.08589   2.47952  -1.37897
H    -2.98580   4.60161  -0.55354
H    -3.28227   4.98470   1.90281
H    -2.67066   3.15576   3.49657
H    -1.76888   1.04309   2.67681
H     0.56837   1.14860   2.16656
H    -0.29051  -0.21882   2.90368
H     1.38248  -0.40398   2.39744
H    -0.59948  -2.52297   0.10843
H    -1.17577  -2.05673   1.71625
H     0.52623  -2.46684   1.48054
H     1.30394  -2.77383  -1.82716
H     2.82970  -4.66340  -1.51706
H     4.55014  -4.62520   0.29531
H     4.71992  -2.61305   1.77358
H     3.21755  -0.69338   1.43206
H     3.67341  -0.00099  -1.32624
H     4.94740   2.07545  -1.60845
H     3.99531   4.26085  -0.84147
H     1.71999   4.28998   0.20406
H     0.46033   2.23130   0.48986
