32
Generated by autodE on: 2022-06-06. E = -619.625588 Ha
C     0.21792   3.08362   0.99667
C    -0.44052   2.11795   0.04575
C    -1.43758   2.77910  -0.87021
C    -0.16349   0.78777   0.01689
C     0.91765   0.16819   0.83906
C     0.64677  -0.97431   1.61586
C     1.64802  -1.58022   2.37698
C     2.94959  -1.06617   2.36481
C     3.23827   0.05687   1.58375
C     2.23276   0.66632   0.82792
C    -0.91539  -0.17666  -0.83937
C    -0.21890  -1.08232  -1.66197
C    -0.90280  -2.00450  -2.45623
C    -2.30116  -2.05364  -2.43210
C    -3.00617  -1.17328  -1.60593
C    -2.31981  -0.24584  -0.81695
H     0.93178   3.73813   0.46607
H     0.75294   2.59186   1.81852
H    -0.54660   3.75160   1.42973
H    -2.34785   3.07375  -0.31879
H    -1.00610   3.71284  -1.27048
H    -1.74031   2.14833  -1.71519
H    -0.36527  -1.38578   1.62461
H     1.41228  -2.45973   2.98138
H     3.73546  -1.54317   2.95534
H     4.25441   0.45822   1.55598
H     2.47165   1.53248   0.20780
H     0.87314  -1.05529  -1.67992
H    -0.34181  -2.69057  -3.09578
H    -2.83730  -2.77916  -3.04859
H    -4.09775  -1.21222  -1.56889
H    -2.87822   0.42580  -0.16204
