31
Generated by autodE on: 2022-07-27. E = -635.637086 Ha
C     3.09031  -0.25882  -2.96041
C     2.08948  -0.69090  -1.95109
N     1.37855   0.18878  -1.27112
C     0.37640   0.09011  -0.33530
C    -0.27791  -1.19641  -0.08454
C    -0.66504  -1.56896   1.22523
C    -1.32039  -2.77399   1.47712
C    -1.60781  -3.66038   0.43278
C    -1.22826  -3.31537  -0.86984
C    -0.57473  -2.11014  -1.12492
C     0.03696   1.31736   0.36777
C     0.94586   2.40614   0.47177
C     0.58483   3.60542   1.08765
C    -0.68298   3.76830   1.65500
C    -1.58942   2.70038   1.58354
C    -1.24435   1.50806   0.95395
H     2.78477  -0.53503  -3.98740
H     4.06416  -0.74851  -2.78489
H     3.24151   0.83269  -2.93759
H     1.91789  -1.74900  -1.75522
H     1.62790   1.15963  -1.47983
H    -0.43843  -0.90020   2.05754
H    -1.59978  -3.02844   2.50300
H    -2.11610  -4.60681   0.63098
H    -1.45036  -3.99039  -1.70067
H    -0.30799  -1.86445  -2.15446
H     1.96717   2.30907   0.09442
H     1.31726   4.41546   1.14378
H    -0.95878   4.70298   2.14820
H    -2.58950   2.80484   2.01346
H    -1.98522   0.70992   0.88977
