31
Generated by autodE on: 2022-06-06. E = -635.637084 Ha
C     0.95442   4.15432  -0.46714
C     0.16789   2.92592  -0.18550
N     0.72222   1.72873  -0.22380
C     0.23994   0.45198  -0.06158
C    -1.20653   0.21340  -0.02178
C    -1.76171  -0.72822   0.87647
C    -3.13175  -0.98953   0.90357
C    -4.00216  -0.31373   0.04103
C    -3.47485   0.62658  -0.85228
C    -2.10526   0.88710  -0.88332
C     1.23271  -0.60014   0.07627
C     0.92215  -1.95648  -0.21843
C     1.88087  -2.96156  -0.13048
C     3.20062  -2.67083   0.24487
C     3.53205  -1.34437   0.53980
C     2.57268  -0.33333   0.47239
H     0.81459   4.90388   0.33135
H     0.63382   4.64037  -1.40813
H     2.03126   3.93641  -0.55306
H    -0.89438   2.98904   0.04971
H     1.72923   1.75250  -0.40823
H    -1.10280  -1.25633   1.56820
H    -3.52487  -1.72114   1.61447
H    -5.07577  -0.51397   0.06619
H    -4.13763   1.15877  -1.53982
H    -1.72334   1.61392  -1.60293
H    -0.08705  -2.21515  -0.54186
H     1.59714  -3.98955  -0.37274
H     3.95000  -3.46259   0.31155
H     4.54948  -1.09095   0.85030
H     2.86924   0.67680   0.76636
