63
Generated by autodE on: 2022-06-06. E = -1255.242884 Ha. Imaginary frequency = -295.8 cm-1
C     0.71014  -0.29505  -3.12501
C     0.04118  -0.50838  -1.80048
N    -0.94592   0.34114  -1.41791
C    -1.68219   0.15394  -0.25627
C    -2.47199  -1.08878  -0.13255
C    -2.98629  -1.51034   1.11330
C    -3.73294  -2.68160   1.23521
C    -3.98882  -3.48239   0.11661
C    -3.48730  -3.08373  -1.12656
C    -2.74651  -1.90676  -1.24956
C    -2.16461   1.40922   0.35566
C    -1.37292   2.58111   0.29087
C    -1.80838   3.79208   0.82885
C    -3.04868   3.87987   1.46786
C    -3.85042   2.73570   1.54152
C    -3.42117   1.52684   0.99290
C     0.38754  -0.63631   0.96200
C     0.27486   0.41555   2.04022
C     0.00737  -2.00462   1.47277
C     1.34275  -0.48203  -0.11385
C     2.18903  -1.62541  -0.62108
C     1.69511  -2.93722  -0.81390
C     2.48965  -3.95817  -1.33949
C     3.81534  -3.71679  -1.70809
C     4.32192  -2.42473  -1.55354
C     3.52523  -1.40417  -1.02868
C     2.10990   0.82959  -0.05923
C     3.05901   0.99186   0.97128
C     3.80443   2.16218   1.10454
C     3.62257   3.21678   0.20148
C     2.69578   3.07258  -0.83078
C     1.95339   1.89094  -0.95936
H     0.19115  -0.87179  -3.91040
H     1.75086  -0.65027  -3.09544
H     0.70760   0.76084  -3.43222
H    -0.17250  -1.55097  -1.57500
H    -0.84731   1.30368  -1.73347
H    -2.77411  -0.92246   2.00621
H    -4.10973  -2.97708   2.21783
H    -4.56914  -4.40291   0.21285
H    -3.68262  -3.68902  -2.01568
H    -2.38631  -1.60905  -2.23530
H    -0.38670   2.54410  -0.17030
H    -1.16187   4.67059   0.75909
H    -3.38712   4.82470   1.89930
H    -4.83176   2.78548   2.02040
H    -4.08870   0.66780   1.03934
H    -0.69584   0.34446   2.55287
H     1.05661   0.26168   2.80991
H     0.38849   1.44166   1.67600
H    -0.57040  -2.60827   0.76159
H     0.90956  -2.58783   1.73239
H    -0.59989  -1.91978   2.38265
H     0.66212  -3.17666  -0.58050
H     2.05701  -4.95392  -1.46722
H     4.43654  -4.51655  -2.11797
H     5.35017  -2.19857  -1.84790
H     3.95967  -0.41031  -0.94141
H     3.21384   0.17459   1.67915
H     4.53051   2.25356   1.91640
H     4.20095   4.13826   0.30262
H     2.54216   3.88212  -1.54868
H     1.24571   1.81870  -1.77940
