23
Generated by autodE on: 2022-06-17. E = -351.521385 Ha
C     3.33006  -0.88156   1.55986
C     2.45909  -0.21401   0.77147
C     2.91200   0.92252  -0.10913
C     1.04684  -0.59044   0.76181
C     0.07623  -0.00059   0.01964
C    -1.31205  -0.41364   0.04812
C    -2.33830   0.12031  -0.66133
C    -2.19977   1.26396  -1.62572
C    -3.73313  -0.42067  -0.52102
H     2.99816  -1.70642   2.19795
H     4.39182  -0.62110   1.58643
H     2.38112   1.85582   0.14210
H     3.99164   1.10068  -0.00566
H     2.69529   0.71387  -1.17002
H     0.76889  -1.42382   1.41831
H     0.34573   0.83099  -0.63705
H    -1.54335  -1.24900   0.72011
H    -2.85137   2.10183  -1.32065
H    -2.54386   0.95971  -2.63008
H    -1.17424   1.64427  -1.71675
H    -4.42771   0.37037  -0.18540
H    -4.11763  -0.76993  -1.49622
H    -3.78573  -1.25568   0.19296
