11
Generated by autodE on: 2022-06-17. E = -393.762424 Ha
C    -3.12934  -0.30854   0.08741
C    -1.94830   0.40829  -0.47877
O    -1.97397   1.31793  -1.28395
C    -0.64248  -0.05570   0.00644
N     0.41914  -0.38084   0.35842
N     1.49405  -0.84971   0.83742
C     2.64191  -0.31394   0.43805
N     3.71761   0.06300   0.17443
H    -3.05071  -1.38500  -0.13751
H    -4.04985   0.10783  -0.34182
H    -3.13331  -0.20207   1.18486
