52
Generated by autodE on: 2022-06-23. E = -1188.695170 Ha
C     0.17114  -2.86518   4.01344
N     0.60705  -1.90688   3.01621
C    -0.21509  -1.46470   2.06117
O    -1.38021  -1.84780   1.92699
C     0.36960  -0.41591   1.10140
C     0.39986  -1.01641  -0.31704
O     0.22642  -2.19222  -0.56096
O     0.75766  -0.11454  -1.21937
C     1.04688  -0.57921  -2.54598
O     1.73541  -0.18199   1.47296
N     2.12069   1.12394   1.05089
C     3.11131   1.09034   0.05238
C     3.83467  -0.08146  -0.23307
C     4.82970  -0.06512  -1.21164
C     5.13300   1.10761  -1.91121
C     4.42338   2.27517  -1.61315
C     3.42156   2.27556  -0.64072
C     0.89953   1.90776   0.81903
C    -0.28339   0.99701   1.24310
C    -0.63577   1.26752   2.72019
C    -1.48678   1.27024   0.37651
C    -2.30700   0.35838  -0.17689
C    -3.44674   0.69017  -1.01505
C    -4.24110  -0.19359  -1.66557
C    -4.05213  -1.68509  -1.62864
C    -5.40035   0.27664  -2.49844
H     1.03439  -3.16261   4.62058
H    -0.25428  -3.75902   3.53335
H    -0.59841  -2.43454   4.67451
H     1.53249  -1.49313   3.07365
H     0.14247  -1.00307  -3.00472
H     1.84124  -1.33802  -2.51521
H     1.38304   0.30210  -3.10319
H     3.59964  -1.00181   0.29866
H     5.37273  -0.98824  -1.42996
H     5.91305   1.11232  -2.67542
H     4.64785   3.20396  -2.14363
H     2.88594   3.19865  -0.41492
H     0.90786   2.82726   1.41938
H     0.82280   2.18001  -0.24127
H    -1.45056   0.61162   3.05539
H    -0.96961   2.30959   2.82820
H     0.23851   1.11718   3.37080
H    -1.68940   2.33666   0.22006
H    -2.12464  -0.69900   0.02226
H    -3.66622   1.75857  -1.12876
H    -3.14980  -2.00292  -1.09018
H    -3.99473  -2.08508  -2.65601
H    -4.92484  -2.17253  -1.15864
H    -5.28794  -0.05045  -3.54768
H    -5.50552   1.37148  -2.48425
H    -6.34535  -0.16925  -2.13943
