23
Generated by autodE on: 2022-06-23. E = -351.521382 Ha
C     3.00191   0.37020  -2.26973
C     2.27396   0.47696  -1.13635
C     2.84703   1.10955   0.10609
C     0.90233  -0.02657  -1.09963
C     0.07192   0.01773  -0.02752
C    -1.28160  -0.49851  -0.04522
C    -2.17296  -0.49244   0.97806
C    -1.89642   0.07175   2.34272
C    -3.54844  -1.07124   0.80205
H     2.58299  -0.08974  -3.17011
H     4.03023   0.73816  -2.32491
H     2.24778   1.97986   0.42143
H     3.88132   1.44343  -0.05775
H     2.84132   0.40148   0.95142
H     0.53211  -0.47597  -2.02899
H     0.43433   0.46404   0.90247
H    -1.60685  -0.93985  -0.99514
H    -2.03221  -0.70781   3.11312
H    -0.88727   0.48894   2.45296
H    -2.62485   0.86684   2.58140
H    -3.70402  -1.47360  -0.20972
H    -4.32265  -0.30745   0.99726
H    -3.72867  -1.88104   1.53183
