29
Generated by autodE on: 2022-07-27. E = -837.074854 Ha
C    -2.09086  -2.41659   3.77143
N    -1.37641  -1.55806   2.85084
C    -1.58244  -1.57240   1.51695
O    -2.35426  -2.35164   0.94136
C    -0.81608  -0.57261   0.73430
O    -0.18565   0.32940   1.45678
N     0.68481   1.28602   1.19073
C     1.37083   1.25657  -0.02209
C     1.85943   0.08287  -0.64196
C     2.67137   0.18537  -1.76645
C     2.98887   1.43839  -2.31009
C     2.51767   2.60068  -1.69136
C     1.73018   2.51491  -0.54531
C    -0.93528  -0.52402  -0.74053
O    -0.95765  -1.49987  -1.46267
O    -1.04230   0.73409  -1.16972
C    -1.01415   0.94658  -2.59082
H    -1.38839  -3.00469   4.38217
H    -2.72377  -3.10453   3.19931
H    -2.73000  -1.82850   4.44976
H    -0.72398  -0.87949   3.22983
H     1.62858  -0.90329  -0.23815
H     3.05652  -0.72492  -2.23111
H     3.60677   1.50433  -3.20793
H     2.76834   3.58131  -2.10176
H     1.36512   3.41343  -0.04486
H    -1.89119   0.48237  -3.06308
H    -0.09395   0.52088  -3.01604
H    -1.03290   2.03265  -2.73146
