29
Generated by autodE on: 2022-06-23. E = -837.095516 Ha
C    -1.85936  -3.64006   1.04351
N    -1.25539  -2.39788   0.61225
C    -1.27367  -2.04238  -0.68954
O    -1.79993  -2.74874  -1.56166
C    -0.62404  -0.75208  -1.03398
O    -0.01405   0.04165  -0.17816
N     0.11264  -0.15708   1.10861
C     0.81082   0.87748   1.70447
C     1.33353   2.00049   1.02172
C     2.01788   2.97522   1.73834
C     2.19331   2.85463   3.12541
C     1.67626   1.74264   3.80061
C     0.98829   0.75614   3.10024
C    -0.58675  -0.21243  -2.40816
O    -1.12027  -0.72541  -3.37441
O     0.11136   0.93279  -2.48176
C     0.20008   1.53895  -3.77750
H    -2.93490  -3.66555   0.80472
H    -1.73335  -3.73630   2.12860
H    -1.38912  -4.50637   0.55056
H    -0.79365  -1.77500   1.27661
H     1.19729   2.09308  -0.05542
H     2.42233   3.84297   1.21244
H     2.73284   3.62788   3.67630
H     1.81086   1.64506   4.87993
H     0.57820  -0.11708   3.61096
H    -0.80082   1.79515  -4.15446
H     0.79823   2.44742  -3.64304
H     0.69393   0.86064  -4.48856
