52
Generated by autodE on: 2022-06-23. E = -1188.594983 Ha. Imaginary frequency = -265.7 cm-1
C    -0.07204  -2.76398   3.95521
N     0.70816  -2.09906   2.93256
C     0.18690  -1.85044   1.71151
O    -0.91555  -2.29618   1.35896
C     0.98206  -0.95613   0.83169
C     0.70072  -0.91230  -0.61464
O     0.03023  -1.74972  -1.19766
O     1.20821   0.15480  -1.22475
C     1.05084   0.24823  -2.64250
O     1.98074  -0.37077   1.49040
N     2.62109   0.79285   1.28094
C     3.36204   0.91418   0.11008
C     3.86293  -0.18666  -0.61853
C     4.70177   0.02255  -1.70963
C     5.05538   1.31889  -2.10380
C     4.57945   2.41160  -1.36757
C     3.75496   2.21746  -0.26223
C     0.69363   2.14198   1.17945
C    -0.45386   1.36879   1.23772
C    -0.98010   0.92064   2.57771
C    -1.26255   1.20351   0.04314
C    -2.41187   0.48261  -0.04927
C    -3.14543   0.32889  -1.28370
C    -4.27535  -0.40161  -1.47250
C    -4.96504  -1.18752  -0.39507
C    -4.92448  -0.47503  -2.82440
H     0.58436  -3.01726   4.79708
H    -0.51609  -3.68895   3.56041
H    -0.89207  -2.12515   4.32705
H     1.55717  -1.61321   3.19935
H    -0.01458   0.31546  -2.90594
H     1.49776  -0.62581  -3.13744
H     1.57710   1.16271  -2.93905
H     3.59762  -1.20250  -0.32261
H     5.08070  -0.84035  -2.26271
H     5.70269   1.47566  -2.96911
H     4.85700   3.42822  -1.65628
H     3.39216   3.06864   0.31626
H     1.13764   2.53381   2.09328
H     0.99225   2.60718   0.23909
H    -1.50526  -0.04150   2.52402
H    -1.70504   1.66075   2.95931
H    -0.16701   0.83587   3.31144
H    -0.88439   1.69099  -0.86042
H    -2.79761  -0.01750   0.84170
H    -2.72922   0.85307  -2.15222
H    -4.45296  -1.15193   0.57478
H    -5.05556  -2.24581  -0.69668
H    -5.99718  -0.82014  -0.25535
H    -4.97459  -1.52101  -3.17669
H    -4.38810   0.12119  -3.57694
H    -5.96960  -0.12001  -2.77529
