33
Generated by autodE on: 2022-10-21. E = -3392.982096 Ha
C     3.75944  -1.46626   0.69707
O     2.50355  -1.44403   1.38284
C     1.59523  -0.52915   1.04931
C     1.50534   0.51190   0.19480
Br    2.66815   1.23357  -1.10080
C     0.05457   0.97273   0.29100
O    -0.25995   0.69534   1.66286
C     0.19528  -0.66499   1.64344
C    -0.68831  -1.30287   0.52890
C    -0.81523  -0.08942  -0.44394
C    -2.36023   0.23733  -0.43525
C    -2.63638   1.68011  -0.31607
N    -2.85106   2.81369  -0.20903
C    -2.96699  -0.19302  -1.71737
N    -3.43761  -0.52539  -2.72298
N    -2.96993  -0.48309   0.69073
C    -2.13948  -1.69427   0.93451
C    -2.29469  -2.09419   2.39857
C    -2.61052  -2.84387   0.03576
H     4.32588  -2.30170   1.12657
H     3.61264  -1.63497  -0.37996
H     4.30995  -0.52783   0.85913
H    -0.13575   2.02027   0.03514
H     0.15568  -1.12919   2.63292
H    -0.16965  -2.15912   0.08139
H    -0.46293  -0.26783  -1.46521
H    -2.87689   0.12378   1.50636
H    -1.62657  -2.93393   2.63887
H    -3.32953  -2.41179   2.59629
H    -2.05968  -1.25840   3.07487
H    -2.44543  -2.63183  -1.03078
H    -2.04965  -3.75864   0.27958
H    -3.68247  -3.03660   0.18955
