16
Generated by autodE on: 2022-10-26. E = -397.240624 Ha
C     0.23521  -2.27314   2.04672
C     0.34722  -1.44721   0.81544
C     0.93660  -2.03040  -0.41712
N    -0.08404  -0.21625   0.84642
C    -0.17795   0.74833  -0.18026
C    -0.21536   2.09738   0.20438
N    -0.24790   3.22555   0.52220
C    -0.37514   0.40010  -1.52417
N    -0.56127   0.14317  -2.65289
H    -0.40071  -3.15118   1.84069
H    -0.18796  -1.71396   2.89258
H     1.23012  -2.66166   2.31931
H     1.59839  -1.30415  -0.91447
H     1.50196  -2.93730  -0.16766
H     0.14899  -2.30527  -1.13871
H    -0.42236   0.11469   1.75425
