16
Generated by autodE on: 2022-10-21. E = -397.239552 Ha
C    -1.89948  -1.32651  -0.23633
C    -1.63213   0.10648  -0.53581
C    -2.71698   0.95594  -1.09900
N    -0.46768   0.65246  -0.31995
C     0.74464   0.15151   0.19040
C     0.95287  -1.17635   0.59436
N     1.21139  -2.26241   0.95179
C     1.81151   1.05866   0.29616
N     2.70961   1.80654   0.38907
H    -1.72997  -1.54287   0.83051
H    -1.22947  -1.98037  -0.81711
H    -2.93805  -1.57466  -0.48626
H    -3.06647   0.52348  -2.05178
H    -2.39387   1.99285  -1.26747
H    -3.58161   0.95011  -0.41404
H    -0.40420   1.64342  -0.56430
