23
Generated by autodE on: 2022-06-17. E = -351.521385 Ha
C     3.11126  -1.22158   1.76901
C     2.16727  -0.34153   1.36877
C     2.21566   1.10493   1.79010
C     1.07090  -0.78629   0.51071
C     0.06548  -0.00407   0.04367
C    -0.99957  -0.49603  -0.80623
C    -2.03604   0.21802  -1.31370
C    -3.06813  -0.43917  -2.18587
C    -2.25703   1.68400  -1.07016
H     3.07306  -2.27123   1.46166
H     3.94199  -0.91551   2.41099
H     1.30605   1.38740   2.34582
H     3.08700   1.30469   2.42955
H     2.26838   1.77262   0.91411
H     1.08046  -1.84698   0.23215
H     0.04958   1.05430   0.31759
H    -0.94950  -1.56228  -1.05828
H    -4.07666  -0.33250  -1.74730
H    -3.11336   0.05023  -3.17546
H    -2.86525  -1.50971  -2.33592
H    -2.27870   2.23136  -2.02912
H    -1.49419   2.14584  -0.43028
H    -3.24375   1.84886  -0.60232
