38
Generated by autodE on: 2022-06-17. E = -801.878261 Ha. Imaginary frequency = -426.2 cm-1
C     0.82132  -2.01962  -0.62363
C     0.02471  -1.19898  -1.60392
O     0.53703  -0.74542  -2.63519
N    -1.29862  -1.10058  -1.28717
N    -2.08553  -0.26881  -1.97905
C    -3.48382  -0.68314  -2.04508
N    -1.94458   1.04916  -1.87873
C    -0.78702   1.64550  -2.16919
N     0.10298   2.36559  -2.40654
C    -2.12694   1.46701   0.08324
C    -1.34772   0.53881   0.81385
C    -2.02729  -0.55436   1.59841
C     0.03957   0.84361   1.03295
C     0.87582   0.14825   1.86004
C     2.26006   0.48546   2.04332
C     3.15471  -0.17783   2.82843
C     2.82723  -1.38977   3.64797
C     4.57853   0.28361   2.91674
H     1.10611  -2.96653  -1.11152
H     1.74797  -1.48524  -0.37092
H     0.25791  -2.24468   0.28989
H    -4.00429  -0.05940  -2.78055
H    -3.95703  -0.56617  -1.05566
H    -3.51724  -1.73716  -2.34184
H    -1.74204   2.48084  -0.04119
H    -3.21419   1.37824   0.12734
H    -2.16134  -0.21550   2.64128
H    -1.44203  -1.48183   1.63195
H    -3.01789  -0.78110   1.18394
H     0.44512   1.70235   0.48845
H     0.47969  -0.71017   2.40676
H     2.62119   1.35646   1.48503
H     3.05293  -1.19824   4.71157
H     1.78137  -1.71137   3.56901
H     3.47268  -2.23310   3.34611
H     4.84527   0.51538   3.96332
H     4.76814   1.17331   2.29954
H     5.26570  -0.52064   2.59873
