35
Generated by autodE on: 2022-07-27. E = -916.564699 Ha
C    -3.91855  -2.77229   2.68477
N    -3.27490  -1.67027   2.00390
C    -2.01983  -1.74412   1.48936
O    -1.32719  -2.77629   1.54775
C    -1.51699  -0.52968   0.84504
C    -2.17462   0.70261   0.85993
N    -2.79104   1.69903   0.92591
O    -0.25753  -0.69121   0.36348
C     0.58375   0.05536  -0.26920
C     0.19244   1.35178  -0.83907
C     0.91595   2.51758  -0.53066
C     0.53986   3.73776  -1.09131
C    -0.53928   3.79937  -1.97936
C    -1.25025   2.63866  -2.30258
C    -0.89573   1.41911  -1.72946
C     1.91591  -0.51328  -0.39209
C     2.87910   0.07351  -1.24178
C     4.15037  -0.48619  -1.35137
C     4.47923  -1.63635  -0.62664
C     3.52620  -2.23307   0.21061
C     2.25655  -1.68084   0.33169
H    -4.14882  -2.51928   3.73276
H    -4.85937  -3.05547   2.18553
H    -3.24344  -3.63584   2.67409
H    -3.78843  -0.79935   1.91770
H     1.75794   2.46438   0.16147
H     1.09273   4.64423  -0.83591
H    -0.82672   4.75564  -2.42224
H    -2.08834   2.68493  -3.00106
H    -1.45255   0.51295  -1.97604
H     2.62591   0.95721  -1.82729
H     4.88724  -0.02565  -2.01266
H     5.47725  -2.07135  -0.71512
H     3.78082  -3.13288   0.77470
H     1.51151  -2.14254   0.98040
