72
Generated by autodE on: 2022-07-04. E = -2226.525967 Ha. Imaginary frequency = -180.1 cm-1
C    -8.90770   6.70754  13.78557
N    -8.23794   7.81822  13.13840
C    -7.27154   7.61529  12.21962
O    -6.75610   6.50692  12.01833
C    -6.81384   8.80271  11.44562
C    -7.31273  10.10378  11.70177
N    -7.81151  11.12356  11.97615
O    -5.55919   8.60137  11.02114
C    -4.79054   9.30812  10.23861
C    -4.99419  10.78310  10.14620
C    -4.36526  11.54508  11.14974
C    -4.55513  12.92511  11.20969
C    -5.36447  13.56224  10.26419
C    -5.97743  12.81211   9.25782
C    -5.79726  11.42940   9.19697
C    -3.48650   8.68122  10.02964
C    -2.36626   9.45090   9.66871
C    -1.10833   8.85571   9.58247
C    -0.95445   7.49107   9.83598
C    -2.07115   6.71219  10.17110
C    -3.32691   7.29817  10.27139
C    -6.42620   8.42633   8.40411
C    -7.50624   8.45063   9.00830
C    -8.97219   8.33927   8.78807
C    -9.46096   9.71756   8.25762
F   -10.77090   9.70715   7.97186
F    -9.24688  10.69899   9.14637
F    -8.81310  10.05806   7.13631
C    -9.82249   7.95280  10.02172
F    -9.82182   8.89348  10.97658
F    -9.37693   6.81167  10.56871
F   -11.10555   7.74782   9.68902
C    -9.17658   7.24517   7.68943
C    -8.34143   5.95658   7.87972
C    -7.17016   5.75303   6.90282
C    -5.80161   6.39430   7.17345
C    -5.70794   7.95630   7.17143
C    -6.46686   8.44572   5.99796
N    -7.03257   8.79531   5.04713
C    -4.27375   8.48516   6.94475
C    -3.16166   7.63792   6.89849
C    -1.90054   8.14830   6.57768
C    -1.73298   9.50662   6.30381
C    -2.83693  10.36112   6.36628
C    -4.09713   9.85096   6.67912
H    -9.58283   6.17878  13.09138
H    -8.17056   5.98617  14.16406
H    -9.49636   7.08809  14.62970
H    -8.68265   8.72879  13.18745
H    -3.74021  11.04670  11.89311
H    -4.07079  13.50307  11.99979
H    -5.51620  14.64296  10.31229
H    -6.61195  13.30166   8.51596
H    -6.30422  10.85556   8.42719
H    -2.47864  10.51409   9.46093
H    -0.24470   9.46237   9.30367
H     0.03234   7.02870   9.76223
H    -1.95642   5.64222  10.35761
H    -4.19732   6.70127  10.54536
H   -10.24755   7.00723   7.64895
H    -8.93159   7.70765   6.72552
H    -9.02730   5.10983   7.72931
H    -7.98159   5.86643   8.91456
H    -6.96629   4.67095   6.86456
H    -7.50066   6.02287   5.88556
H    -5.39418   6.05628   8.13785
H    -5.12686   6.03094   6.38671
H    -3.25723   6.57608   7.11656
H    -1.04227   7.47382   6.55300
H    -0.74517   9.89955   6.05283
H    -2.72180  11.42796   6.16159
H    -4.95680  10.52167   6.69355
