60
Generated by autodE on: 2022-06-07. E = -1550.549816 Ha
C    -0.03611   3.08571  -6.77155
N     1.14621   3.49986  -6.04542
C     1.12055   3.68372  -4.72081
O     0.07645   3.63630  -4.05785
C     2.45194   4.12087  -4.04675
C     3.72177   3.50011  -4.68859
O     3.83859   3.40408  -5.91910
N     4.72420   3.18625  -3.85629
C     5.95753   2.59127  -4.33359
C     2.56345   5.65374  -4.32168
C     1.48528   6.53830  -3.66526
C     2.02323   7.49560  -2.59927
C     2.33878   6.91097  -1.22182
C     3.35203   5.74948  -1.18126
F     4.39207   6.00389  -2.09471
C     4.03144   5.73593   0.21508
C     5.52200   5.59316   0.24696
O     3.34746   5.84338   1.21391
C     2.74323   4.38876  -1.44786
C     2.37413   3.75033  -2.58257
N     1.89628   2.44749  -2.22682
C     1.96700   1.28397  -2.94442
C     1.63367   0.01951  -2.19929
O     2.28136   1.28007  -4.13519
N     1.58865   2.41517  -0.84236
C     0.17762   2.76736  -0.63385
C     2.49565   3.42509  -0.28700
C     3.77572   2.72923   0.19182
O     4.05119   2.52476   1.35287
O     4.53874   2.34547  -0.83363
C     5.75447   1.64220  -0.52884
H    -0.87594   3.76773  -6.57140
H    -0.35293   2.06736  -6.48754
H     0.18155   3.09892  -7.84699
H     2.07588   3.44534  -6.46792
H     4.56970   3.21833  -2.85180
H     5.81494   1.53283  -4.60926
H     6.71207   2.65225  -3.53938
H     6.32617   3.12954  -5.21800
H     3.56285   5.98383  -4.02173
H     2.52521   5.75556  -5.41347
H     0.67901   5.92044  -3.24161
H     1.01297   7.14410  -4.45340
H     2.92134   8.00179  -2.99019
H     1.27787   8.28929  -2.42865
H     1.42135   6.54812  -0.73489
H     2.72964   7.72368  -0.59071
H     5.97984   6.50447  -0.17071
H     5.84446   4.75760  -0.39262
H     5.85459   5.44559   1.28184
H     0.62219   0.05604  -1.77021
H     2.34152  -0.12729  -1.37037
H     1.70539  -0.81736  -2.90475
H    -0.45375   2.03057  -1.14726
H    -0.06676   3.77633  -1.01041
H    -0.03326   2.72211   0.44318
H     2.03573   3.89428   0.58744
H     6.20955   1.39962  -1.49540
H     5.53089   0.72414   0.03206
H     6.42275   2.28537   0.06073
