21
Generated by autodE on: 2022-06-07. E = -570.064055 Ha
C     3.21795   0.99155  -0.35103
O     2.31108   0.16227   0.39436
C     1.23903  -0.27760  -0.25988
O     1.02455  -0.09282  -1.44009
C     0.41691  -1.14251   0.62161
N    -0.88168  -1.22290   0.55961
C    -1.57652  -2.27829   1.31471
N    -1.72910  -0.43155  -0.12802
C    -1.44365   0.89586  -0.14601
C    -2.43742   1.71655  -0.92698
O    -0.48658   1.44936   0.42770
H     3.62647   0.43867  -1.20893
H     4.01953   1.26298   0.34481
H     2.69716   1.89228  -0.70623
H     0.93296  -1.82949   1.29425
H    -0.84776  -2.94100   1.79301
H    -2.19954  -2.83967   0.60714
H    -2.22141  -1.79861   2.06247
H    -2.75583   2.57966  -0.32258
H    -3.31037   1.12909  -1.23744
H    -1.92953   2.11401  -1.82162
