60
Generated by autodE on: 2022-06-07. E = -1550.453695 Ha. Imaginary frequency = -200.9 cm-1
C    -0.35768   3.19832  -6.17006
N     0.95011   3.66689  -5.75800
C     1.22619   3.88951  -4.46589
O     0.36025   3.90396  -3.58515
C     2.70578   4.23944  -4.13846
C     3.69659   3.31757  -4.88825
O     3.62698   3.21761  -6.12154
N     4.67387   2.75589  -4.16546
C     5.59095   1.80090  -4.75647
C     3.02225   5.68553  -4.66223
C     2.22689   6.83807  -4.03236
C     2.86130   7.56226  -2.82432
C     2.38008   7.17779  -1.42056
C     3.09812   5.99543  -0.75133
F     4.45482   6.32843  -0.60404
C     2.47978   5.81670   0.65079
C     3.33940   6.14200   1.82848
O     1.32647   5.43751   0.73471
C     3.01161   4.76674  -1.56743
C     2.86967   4.24519  -2.68009
N     2.61983   2.01203  -2.15404
C     2.09904   1.00591  -2.91217
C     1.69900  -0.30358  -2.26093
O     2.04933   1.12027  -4.14156
N     2.31430   2.18037  -0.87866
C     0.88831   2.24476  -0.49882
C     3.16280   2.87904  -0.12830
C     4.63902   2.87049  -0.21113
O     5.30757   3.50981   0.58308
O     5.16913   2.09949  -1.15959
C     6.60572   2.04149  -1.20404
H    -0.40609   3.18508  -7.26626
H    -0.55748   2.18040  -5.79265
H    -1.14539   3.86338  -5.78820
H     1.76163   3.51442  -6.36027
H     4.52733   2.68925  -3.15871
H     5.15038   0.78957  -4.78774
H     6.51708   1.76648  -4.16912
H     5.83276   2.10407  -5.78272
H     2.84923   5.66223  -5.74619
H     4.10087   5.85559  -4.51724
H     1.20649   6.50633  -3.77773
H     2.10266   7.58899  -4.82749
H     3.96031   7.48503  -2.86958
H     2.63677   8.63447  -2.93209
H     1.30548   6.94193  -1.42891
H     2.51531   8.03552  -0.74121
H     3.74852   7.15980   1.73388
H     4.19788   5.45150   1.83660
H     2.75871   6.04183   2.75420
H     0.60655  -0.42141  -2.33740
H     2.00217  -0.39062  -1.21067
H     2.15542  -1.11637  -2.84453
H     0.36562   1.35863  -0.87037
H     0.46081   3.14707  -0.95892
H     0.80503   2.29357   0.59185
H     2.78067   3.21976   0.83037
H     6.84905   1.27355  -1.94572
H     7.00802   1.76486  -0.21999
H     7.01345   3.01533  -1.51059
