20
Generated by autodE on: 2022-06-19. E = -457.715337 Ha
C    -3.17639   0.08256  -0.08938
N    -1.79538  -0.35935   0.01583
C    -1.50961  -1.73043   0.03020
C    -0.25575  -2.20953   0.04701
C     0.96554  -1.32356   0.05070
C     0.55903   0.14025   0.00952
C     1.56763   1.21150  -0.00836
N     2.86296   0.80798   0.01336
O     1.28245   2.42605  -0.04146
C    -0.75109   0.51549  -0.00846
H    -3.61490  -0.19335  -1.06330
H    -3.21761   1.17392   0.01622
H    -3.78959  -0.36922   0.70583
H    -2.38528  -2.38201   0.02950
H    -0.11344  -3.29252   0.06313
H     1.58754  -1.53650   0.94438
H     1.62117  -1.57676  -0.80745
H     3.59199   1.51252  -0.00319
H     3.13114  -0.16755   0.03509
H    -1.01390   1.57412  -0.03988
