40
Generated by autodE on: 2022-06-19. E = -1010.548456 Ha. Imaginary frequency = -460.7 cm-1
C    -1.20265   2.86354   1.30078
C    -1.54654   2.21262  -0.00719
O    -1.95804   2.83326  -0.97802
C    -1.33575   0.73796  -0.11120
O    -0.86924   0.11891   1.02817
C    -1.10004  -1.25008   0.87729
O    -0.58360  -2.06188   1.63534
C    -1.97031  -1.36871  -0.24907
C    -2.63873  -2.60504  -0.72222
C     0.26844  -0.96122  -1.45836
C     0.18953   0.44165  -1.35599
C     1.38290   1.18326  -0.76498
C     2.17594   0.29913   0.17579
C     3.10708   0.84656   1.17294
N     3.19334   2.19997   1.24504
O     3.79230   0.13099   1.93149
C     2.08870  -1.05597   0.07291
N     1.26108  -1.68958  -0.81334
C     1.17308  -3.14232  -0.85032
N    -2.31471  -0.09566  -0.63448
C    -3.05834   0.18615  -1.84863
H    -0.18191   2.59694   1.61540
H    -1.30060   3.95234   1.20541
H    -1.88386   2.49038   2.08344
H    -2.21148  -3.46952  -0.19671
H    -2.50654  -2.75392  -1.80576
H    -3.72285  -2.57993  -0.51779
H    -0.27739  -1.50755  -2.22563
H    -0.28200   0.94193  -2.20725
H     2.02989   1.54245  -1.58951
H     1.04270   2.09889  -0.25670
H     2.66019   2.81787   0.64700
H     3.82114   2.60788   1.92885
H     2.70270  -1.70238   0.70054
H     2.07934  -3.57400  -0.40811
H     1.09282  -3.48500  -1.89278
H     0.29447  -3.50058  -0.29244
H    -2.40330   0.10790  -2.73295
H    -3.87335  -0.54096  -1.94245
H    -3.47502   1.19696  -1.80547
