26
Generated by autodE on: 2022-06-27. E = -689.456480 Ha
C     2.67973  -2.11032   0.54824
O     2.01639  -1.30987  -0.44018
C     0.86324  -0.67126  -0.15487
C     0.65531   0.56775  -0.68578
O     1.61198   1.10614  -1.47226
C     1.93871   2.49869  -1.36104
C    -0.65034   1.25195  -0.51137
O    -0.87479   2.31076  -1.09066
C    -1.67620   0.63205   0.37888
C    -2.93172   1.40708   0.63079
C    -1.46998  -0.59833   0.90946
C    -2.48408  -1.26668   1.78466
C    -0.21666  -1.35127   0.60757
O    -0.07287  -2.51127   0.98126
H     3.74928  -2.06973   0.29889
H     2.52889  -1.70252   1.55869
H     2.33329  -3.15156   0.51455
H     3.00064   2.58360  -1.63129
H     1.79936   2.85812  -0.33059
H     1.33478   3.10546  -2.04861
H    -2.92342   2.36173   0.09183
H    -3.05445   1.60797   1.70810
H    -3.81706   0.83008   0.31645
H    -3.44243  -1.38439   1.25212
H    -2.69362  -0.65244   2.67585
H    -2.13945  -2.25550   2.10904
