55
Generated by autodE on: 2022-06-27. E = -1435.334929 Ha. Imaginary frequency = -425.8 cm-1
C    -1.76469   4.92469  -0.06143
O    -0.78139   3.89855   0.15465
C    -0.76603   2.89586  -0.71394
O    -1.46589   2.82842  -1.70830
C     0.17937   1.81763  -0.30778
N     0.45480   0.93950  -1.31508
C     1.25894  -0.13772  -1.21641
C     0.90896  -1.17249  -2.23216
C     1.63274  -2.47928  -2.26439
O    -0.01933  -0.93060  -3.00734
C     2.52745  -0.08072  -0.47841
C     3.05634  -1.19998   0.19363
C     4.27150  -1.11306   0.87292
C     4.98697   0.08684   0.89400
C     4.47526   1.20584   0.22712
C     3.25999   1.12585  -0.44966
C     0.00466  -0.45328   1.27280
O     1.03703  -0.42956   2.13428
C     1.28284  -1.51352   3.04060
C    -0.41223  -1.65141   0.57560
O     0.15197  -2.75367   0.73581
C    -1.61391  -1.54175  -0.31997
C    -1.97703  -2.76046  -1.11099
C    -2.34472  -0.39605  -0.40934
C    -3.52520  -0.24636  -1.32151
C    -2.06827   0.71501   0.51928
O    -2.89587   1.59022   0.75700
C    -0.70085   0.78467   1.13421
O    -0.54270   1.71993   2.13939
C    -1.15805   1.38645   3.38485
H    -1.60185   5.41358  -1.03222
H    -1.63220   5.64325   0.75488
H    -2.77295   4.48865  -0.02877
H     1.00029   2.12059   0.34142
H    -0.26116   0.84912  -2.04767
H     1.33900  -3.02983  -3.16689
H     1.33754  -3.06322  -1.37512
H     2.72294  -2.34978  -2.23051
H     2.49679  -2.13112   0.22019
H     4.65581  -1.99105   1.39680
H     5.93899   0.15151   1.42564
H     5.03124   2.14611   0.22580
H     2.88818   2.00150  -0.98416
H     1.89545  -1.08884   3.84691
H     1.82401  -2.33422   2.55624
H     0.33755  -1.88918   3.45912
H    -1.41037  -3.63272  -0.76616
H    -1.75635  -2.60303  -2.17943
H    -3.05350  -2.97514  -1.03119
H    -4.42263  -0.73681  -0.90532
H    -3.76441   0.81479  -1.47156
H    -3.32366  -0.70674  -2.29922
H    -0.94459   2.21866   4.06893
H    -2.24842   1.28065   3.27417
H    -0.74148   0.45764   3.80528
