36
Generated by autodE on: 2022-06-18. E = -1099.462960 Ha
C     4.74547   1.39335  -0.62998
N     3.59089   0.54954  -0.37873
C     2.35266   1.04976  -0.36358
O     2.06943   2.23321  -0.56302
C     1.23944   0.06102  -0.09373
O     1.68757  -1.27936   0.18611
C     0.41787  -1.79107   0.49596
C     0.49591  -3.15586   1.00770
N     0.55010  -4.24897   1.38454
O    -0.07852  -0.90175   1.51908
C     0.41614   0.33176   1.17465
O     0.19099   1.33396   1.78408
C    -0.41996  -1.53017  -0.81735
C     0.23888  -0.18968  -1.26913
C    -0.72518   0.95842  -1.56994
C    -1.92859   0.93816  -0.66291
C    -2.63901   2.14944  -0.22286
N    -2.23247   3.32719  -0.75754
O    -3.57140   2.11862   0.60392
C    -2.42331  -0.26661  -0.27535
N    -1.84520  -1.46796  -0.58406
C    -2.47688  -2.69121  -0.10496
H     4.64518   1.91501  -1.59361
H     5.64313   0.76497  -0.65512
H     4.86159   2.15226   0.15966
H     3.72314  -0.43651  -0.17558
H    -0.19104  -2.34258  -1.51850
H     0.87193  -0.38894  -2.14190
H    -1.03986   0.87019  -2.62437
H    -0.15928   1.89535  -1.48477
H    -2.71861   4.17331  -0.48149
H    -1.53158   3.38939  -1.48468
H    -3.35236  -0.31997   0.29607
H    -2.08115  -3.55100  -0.66359
H    -3.56014  -2.63750  -0.27569
H    -2.30263  -2.86026   0.97227
