36
Generated by autodE on: 2022-06-18. E = -1099.399058 Ha. Imaginary frequency = -324.9 cm-1
C     4.71848   1.37704  -1.02127
N     3.67320   0.52535  -0.48620
C     2.51970   1.04026  -0.02842
O     2.25271   2.24991  -0.03053
C     1.51660   0.07842   0.45350
O     1.78173  -1.25433   0.49572
C     0.63310  -1.82918   0.88581
C     0.60918  -3.21067   1.18503
N     0.54265  -4.36103   1.35366
O    -0.10839  -0.94984   1.59569
C     0.38547   0.34558   1.30481
O    -0.15612   1.33922   1.72080
C    -0.52263  -1.44073  -1.12314
C     0.11593  -0.23978  -1.43354
C    -0.64017   1.05980  -1.52810
C    -1.97115   0.95982  -0.81430
C    -2.76488   2.15521  -0.46668
N    -2.25004   3.34803  -0.84682
O    -3.85311   2.09144   0.13459
C    -2.48254  -0.24971  -0.47787
N    -1.85399  -1.44755  -0.72650
C    -2.43874  -2.68015  -0.21645
H     4.33908   1.98814  -1.85457
H     5.53589   0.74454  -1.38663
H     5.11284   2.05892  -0.25112
H     3.82180  -0.47773  -0.43764
H    -0.12316  -2.39272  -1.47082
H     1.06187  -0.31349  -1.96873
H    -0.78169   1.31270  -2.59881
H    -0.02184   1.87763  -1.12089
H    -2.75567   4.19325  -0.60439
H    -1.35937   3.43665  -1.31880
H    -3.45255  -0.31961   0.01566
H    -1.99377  -3.53920  -0.73519
H    -3.52165  -2.68036  -0.39783
H    -2.26265  -2.79042   0.86687
