40
Generated by autodE on: 2022-06-02. E = -1051.525707 Ha
C     2.65813   3.52957   1.55642
O     1.52876   2.69093   1.27265
C     1.78978   1.42642   0.93203
O     2.92077   0.96655   0.87327
C     0.60103   0.62259   0.62161
C    -0.68348   1.00714   0.46050
C    -1.29068   2.36145   0.61842
C    -1.52153  -0.20354   0.06976
C    -2.08676  -0.13320  -1.38638
C    -1.40177   0.75836  -2.37299
O    -2.99725  -0.87999  -1.69389
C    -2.71023  -0.30239   1.06266
C    -2.53035  -1.17338   2.26681
O    -3.71066   0.36138   0.86306
N    -0.58351  -1.30949   0.18949
C    -0.82835  -2.59294  -0.42896
C     0.78192  -0.85189   0.38167
C     1.68822  -1.12071  -0.82908
O     1.60446  -0.55153  -1.89910
O     2.55732  -2.09978  -0.58481
C     3.43570  -2.46943  -1.65987
H     2.24662   4.51616   1.79807
H     3.22537   3.13363   2.41104
H     3.31807   3.59576   0.67949
H    -2.30438   2.39202   0.20054
H    -0.67120   3.13060   0.13900
H    -1.36022   2.62135   1.68755
H    -1.54385   1.81252  -2.08654
H    -1.80986   0.58771  -3.37771
H    -0.32004   0.55974  -2.35379
H    -2.48423  -2.22969   1.95738
H    -3.36825  -1.02540   2.96023
H    -1.57282  -0.94617   2.76006
H    -0.18624  -3.35031   0.04674
H    -0.62669  -2.61213  -1.51843
H    -1.87478  -2.89139  -0.27664
H     1.25665  -1.35336   1.24364
H     4.06544  -1.61497  -1.94654
H     2.85411  -2.80497  -2.53034
H     4.05568  -3.28774  -1.27658
