13
Generated by autodE on: 2022-06-02. E = -344.695465 Ha
C     3.43133   0.47679  -0.33605
C     2.01419   0.20031  -0.19007
C     0.82705  -0.02857  -0.06779
C    -0.56959  -0.36517   0.07532
O    -0.99303  -1.50120   0.18088
O    -1.34788   0.72400   0.07670
C    -2.76060   0.49941   0.20882
H     3.84974  -0.09025  -1.18331
H     3.97638   0.17709   0.57386
H     3.60997   1.54935  -0.51082
H    -3.22471   1.49211   0.19231
H    -3.13279  -0.10959  -0.62772
H    -2.98221  -0.00928   1.15821
