27
Generated by autodE on: 2022-06-02. E = -706.741632 Ha
C     3.90352  -0.77882   0.82934
O     2.99031   0.29284   0.54540
C     1.86636  -0.03813  -0.08725
O     1.60728  -1.15070  -0.49624
C     1.04766   1.17802  -0.32713
N    -0.23399   1.16269  -0.56126
C    -0.83826   2.40410  -1.09842
C    -1.07218   0.11942  -0.10314
C    -0.79272  -0.32628   1.24644
C    -1.80213  -1.17711   1.98023
O     0.25492  -0.00710   1.84221
C    -2.15014  -0.36508  -0.93618
C    -2.17221   0.01579  -2.40706
O    -3.03142  -1.13341  -0.51777
H     4.75018  -0.32236   1.35399
H     3.41687  -1.52986   1.46819
H     4.24153  -1.25218  -0.10357
H     1.57743   2.12827  -0.42213
H    -0.70541   2.43821  -2.18661
H    -1.90110   2.42741  -0.84132
H    -0.33106   3.26548  -0.64601
H    -2.81397  -0.75415   1.93792
H    -1.46687  -1.27935   3.02110
H    -1.85671  -2.17311   1.51443
H    -1.17328   0.18213  -2.83221
H    -2.67316  -0.79428  -2.95463
H    -2.76716   0.93166  -2.55119
