40
Generated by autodE on: 2022-06-02. E = -1051.421844 Ha. Imaginary frequency = -335.3 cm-1
C     3.90871   1.84613   0.22680
O     2.52913   1.54748  -0.03418
C     1.73909   1.37912   1.03702
O     2.14264   1.43679   2.18409
C     0.36536   1.09776   0.65957
C    -0.83065   1.46783   0.68194
C    -1.94206   2.36500   0.99300
C    -1.84053  -0.37673  -0.43350
C    -2.71058   0.45581  -1.31655
C    -4.19880   0.51708  -1.08044
O    -2.21919   1.11392  -2.23076
C    -2.41556  -1.01726   0.77323
C    -1.93663  -2.37866   1.23763
O    -3.34222  -0.48274   1.38268
N    -0.63362  -0.83888  -0.94771
C    -0.36352  -0.87107  -2.39717
C     0.37826  -0.94896  -0.06606
C     1.76490  -1.34608  -0.41856
O     2.26082  -1.44253  -1.52337
O     2.45027  -1.53614   0.71680
C     3.84500  -1.84622   0.58534
H     4.35359   1.08514   0.88188
H     4.00221   2.83482   0.69956
H     4.40572   1.84547  -0.74998
H    -2.37199   2.80225   0.07898
H    -2.74013   1.81973   1.51929
H    -1.58999   3.18520   1.64031
H    -4.62591  -0.46503  -0.83715
H    -4.42427   1.18825  -0.23920
H    -4.66123   0.92492  -1.98937
H    -1.34353  -2.27019   2.15986
H    -2.83412  -2.95755   1.50029
H    -1.34595  -2.93024   0.49650
H     0.16545   0.03459  -2.72039
H     0.25524  -1.74702  -2.60877
H    -1.30882  -0.96135  -2.93474
H     0.12594  -1.16177   0.96601
H     3.96944  -2.84249   0.13649
H     4.25260  -1.83354   1.60223
H     4.34985  -1.09788  -0.04017
