43
Generated by autodE on: 2022-06-09. E = -3963.005477 Ha
C    -0.01304   3.07675   2.43244
O    -0.03509   2.21106   1.28887
C     1.12569   1.77677   0.82559
O     2.20246   2.14576   1.23099
C     0.89900   0.75067  -0.32841
C     2.20756   0.46203  -1.04650
C     2.29717   0.58216  -2.43745
C     3.48205   0.25273  -3.10328
C     4.58746  -0.20692  -2.38494
C     4.50105  -0.33750  -0.99453
C     3.32072  -0.00562  -0.32872
N    -0.07294   1.39853  -1.20603
C    -1.21200   0.83246  -1.14524
C    -2.34525   1.36112  -2.00094
C    -2.40048   2.84364  -2.19030
O    -3.13834   0.58485  -2.50185
C    -1.30675  -0.42628  -0.29340
C    -2.44022  -0.33763   0.73178
F    -3.63191  -0.35851   0.10255
F    -2.44981  -1.35430   1.60165
F    -2.39247   0.79870   1.44205
C    -1.42455  -1.69167  -1.25461
C    -1.39262  -2.94945  -0.40886
C    -0.12569  -3.06396   0.00387
C     0.60472  -1.87528  -0.59861
O    -0.11130  -1.66377  -1.81871
C     0.18961  -0.57556   0.19233
Br    0.53965  -0.86291   2.11092
H     0.47295   2.57040   3.27900
H     0.52573   4.00566   2.19875
H    -1.06195   3.28917   2.66647
H     1.43583   0.93228  -3.00530
H     3.53583   0.35458  -4.18963
H     5.51289  -0.46597  -2.90460
H     5.35787  -0.70154  -0.42299
H     3.26639  -0.12364   0.75309
H    -1.45161   3.20309  -2.61617
H    -2.51000   3.32814  -1.20578
H    -3.24169   3.10781  -2.84315
H    -2.20169  -1.58421  -2.01417
H    -2.26006  -3.55578  -0.15354
H     0.31384  -3.79600   0.67891
H     1.67845  -1.97495  -0.76816
