27
Generated by autodE on: 2022-06-09. E = -744.616205 Ha
C     0.52238   4.00157   0.48973
O     0.61198   2.57639   0.38095
C    -0.54267   1.91373   0.17995
O    -1.62278   2.47868   0.10543
C    -0.32427   0.46416   0.06361
N     0.92655   0.06554   0.12442
C     2.04431  -0.35700   0.18505
C     3.34512  -0.92965   0.05854
C     4.50530   0.01285   0.20117
O     3.44896  -2.14193  -0.13472
C    -1.36762  -0.55648  -0.12801
C    -0.99469  -1.89927  -0.36356
C    -1.95996  -2.88932  -0.53608
C    -3.32124  -2.57067  -0.48015
C    -3.70165  -1.24602  -0.24793
C    -2.74286  -0.24663  -0.07289
H     1.55167   4.35976   0.60814
H     0.07293   4.43339  -0.41639
H    -0.07992   4.28635   1.36510
H     5.18850  -0.13641  -0.64928
H     4.18608   1.06330   0.24807
H     5.05266  -0.24204   1.12375
H     0.06043  -2.17492  -0.41346
H    -1.64411  -3.91941  -0.71743
H    -4.07659  -3.34791  -0.61608
H    -4.76081  -0.98161  -0.19912
H    -3.05490   0.77891   0.10767
