16
Generated by autodE on: 2022-06-09. E = -3218.295011 Ha
F     2.26837  -0.71416   1.74932
C     1.67491  -0.73562   0.53752
F     2.30433   0.16350  -0.23079
F     1.92203  -1.95829   0.01518
C     0.21592  -0.49985   0.64079
C    -0.61061   0.35249   0.02433
Br   -0.30208   1.69765  -1.23129
C    -2.04053  -0.07803   0.45437
C    -2.30866  -1.43471  -0.23573
C    -1.49004  -2.29335   0.37788
C    -0.73699  -1.44407   1.42587
O    -1.76055  -0.50444   1.79316
H    -2.81746   0.69157   0.40627
H    -2.98688  -1.58514  -1.07441
H    -1.30891  -3.34985   0.18538
H    -0.30378  -1.95616   2.29105
