43
Generated by autodE on: 2022-06-09. E = -3962.917141 Ha. Imaginary frequency = -263.1 cm-1
C    -0.07932   3.21750   2.23471
O     0.05974   2.53427   0.98451
C     1.25234   1.99297   0.71503
O     2.21958   2.10317   1.44414
C     1.22165   1.21090  -0.54884
C     2.39754   0.56013  -1.13771
C     2.41535   0.27535  -2.51829
C     3.48532  -0.41018  -3.08875
C     4.56051  -0.82602  -2.29554
C     4.55176  -0.54908  -0.92511
C     3.48398   0.13712  -0.34507
N     0.12444   1.35310  -1.26728
C    -1.02523   1.06539  -1.46689
C    -2.15895   1.49366  -2.30302
C    -2.94724   2.65386  -1.78047
O    -2.39764   0.87512  -3.32707
C    -1.27946  -0.73532  -0.07466
C    -2.55473  -0.34307   0.58836
F    -2.44497   0.78926   1.30637
F    -2.99490  -1.30270   1.43337
F    -3.54851  -0.15369  -0.30890
C    -1.25022  -1.81964  -1.19373
C    -1.29927  -3.19353  -0.49676
C    -0.11039  -3.32237   0.10217
C     0.64747  -2.02156  -0.23990
O     0.13740  -1.74700  -1.55016
C    -0.06177  -0.89870   0.55120
Br    0.32590  -0.67407   2.38528
H     0.14512   2.53986   3.07045
H     0.59386   4.08607   2.27727
H    -1.12414   3.54427   2.28355
H     1.58300   0.59890  -3.14572
H     3.48158  -0.61813  -4.16117
H     5.40006  -1.36190  -2.74402
H     5.38306  -0.87496  -0.29561
H     3.48111   0.33313   0.72463
H    -2.37660   3.57593  -1.98664
H    -3.07499   2.58538  -0.69043
H    -3.91987   2.70148  -2.28840
H    -1.90639  -1.64906  -2.05272
H    -2.16582  -3.85299  -0.47656
H     0.26258  -4.11460   0.75004
H     1.74141  -2.03353  -0.21144
