52
Generated by autodE on: 2022-06-06. E = -1404.795510 Ha
C     3.11409   3.09012  -0.54434
C     3.01582   1.72145  -1.13177
O     3.95399   1.09059  -1.56926
C     1.61195   1.09981  -1.18327
O     1.50389   0.18278  -2.29000
C     0.18901   0.20630  -2.64215
O    -0.26210  -0.39676  -3.57332
C    -0.47995   1.14902  -1.62450
C    -1.72840   1.79133  -2.16235
O     0.62468   2.06114  -1.43616
C    -0.50989   0.34238  -0.24765
C    -1.19207  -1.00556  -0.54143
C    -2.60028  -1.02024  -0.59073
C    -3.30464  -2.16704  -0.95567
C    -2.61863  -3.33845  -1.28999
C    -1.22443  -3.33377  -1.27164
C    -0.52054  -2.17995  -0.91094
C    -1.23062   1.09737   0.88135
C    -1.78416   0.37600   1.95141
C    -2.39452   1.02825   3.02536
C    -2.46629   2.42291   3.05273
C    -1.90282   3.15399   2.00389
C    -1.28193   2.49930   0.93740
C     1.07575   0.37420   0.09151
F     1.27386   1.30720   1.12012
C     1.75928  -0.88737   0.55779
C     1.34357  -1.42848   1.78537
C     1.92626  -2.59511   2.27857
C     2.94032  -3.23309   1.55626
C     3.37359  -2.68641   0.34662
C     2.79090  -1.51724  -0.15168
H     2.51618   3.78820  -1.15198
H     2.67857   3.09374   0.46596
H     4.16319   3.40900  -0.51871
H    -1.45932   2.44715  -3.00259
H    -2.39427   1.00525  -2.54197
H    -2.26242   2.37343  -1.40451
H    -3.16026  -0.11976  -0.33955
H    -4.39655  -2.14164  -0.97926
H    -3.16701  -4.24058  -1.57082
H    -0.66621  -4.23178  -1.54601
H     0.56332  -2.21546  -0.94233
H    -1.74307  -0.71298   1.95062
H    -2.81722   0.43826   3.84195
H    -2.94967   2.93579   3.88745
H    -1.93499   4.24599   2.01577
H    -0.81514   3.09888   0.15861
H     0.55598  -0.93578   2.35546
H     1.58620  -3.00854   3.23069
H     3.39472  -4.14966   1.93934
H     4.17245  -3.17009  -0.21986
H     3.13991  -1.11465  -1.09968
