16
Generated by autodE on: 2022-06-06. E = -533.353428 Ha
C    -2.78161   1.15752  -0.29861
C    -2.03698  -0.13985  -0.40000
O    -2.54224  -1.21703  -0.68505
C    -0.59320  -0.09092  -0.12909
O     0.21242  -1.11639  -0.15712
C     1.55876  -0.65500   0.17446
O     2.48699  -1.43976   0.21096
C     1.36751   0.72318   0.37844
C     2.31222   1.79821   0.73393
O     0.04699   1.00388   0.18126
H    -2.68463   1.57149   0.71805
H    -2.35601   1.89789  -0.99470
H    -3.83908   0.98482  -0.53332
H     2.03838   2.28260   1.68610
H     2.35173   2.57758  -0.04546
H     3.31403   1.36034   0.84049
