36
Generated by autodE on: 2022-06-06. E = -871.401295 Ha
F     1.63181   1.79139  -0.51434
C     1.06427   0.58150  -0.25807
C    -0.27878   0.52447  -0.09303
C    -0.92878  -0.72469   0.39267
C    -1.98571  -1.30030  -0.33287
C    -2.59701  -2.47411   0.11244
C    -2.17023  -3.08303   1.29764
C    -1.13332  -2.50567   2.03782
C    -0.51932  -1.33417   1.59026
C    -1.15736   1.69857  -0.32831
C    -2.27646   1.90833   0.50134
C    -3.12734   2.99600   0.29833
C    -2.88695   3.89229  -0.74778
C    -1.78719   3.68889  -1.58819
C    -0.93100   2.60630  -1.38210
C     2.07309  -0.48660  -0.19009
C     3.36556  -0.18177   0.27775
C     4.34649  -1.17216   0.34628
C     4.05811  -2.47753  -0.06298
C     2.78272  -2.78383  -0.55194
C     1.79821  -1.79930  -0.61955
H    -2.32060  -0.82690  -1.25852
H    -3.40974  -2.91652  -0.46866
H    -2.64977  -4.00045   1.64700
H    -0.80343  -2.96774   2.97142
H     0.28844  -0.88335   2.17018
H    -2.47525   1.21319   1.31915
H    -3.98384   3.14294   0.96074
H    -3.55546   4.74085  -0.91107
H    -1.59707   4.37579  -2.41652
H    -0.08465   2.45507  -2.05251
H     3.59589   0.83605   0.59626
H     5.34161  -0.92200   0.72140
H     4.82633  -3.25249  -0.01007
H     2.55546  -3.79678  -0.89216
H     0.81444  -2.04528  -1.01870
