52
Generated by autodE on: 2022-06-06. E = -1404.745032 Ha. Imaginary frequency = -374.4 cm-1
C     2.99365   3.06988   0.24496
C     2.94039   1.78293  -0.51825
O     3.90375   1.06822  -0.74066
C     1.60229   1.31692  -0.96925
O     1.52394   0.49273  -2.04018
C     0.20346   0.54756  -2.51123
O    -0.19529  -0.19422  -3.38573
C    -0.40528   1.59206  -1.73520
C    -1.69231   2.27389  -1.94728
O     0.57742   2.19403  -1.02457
C    -0.49377   0.02232   0.33999
C    -1.13296  -1.26228  -0.09192
C    -2.00268  -1.35216  -1.18847
C    -2.64292  -2.55546  -1.49585
C    -2.43559  -3.68694  -0.70305
C    -1.59451  -3.60226   0.41142
C    -0.95222  -2.40184   0.71400
C    -1.38918   1.00260   0.99849
C    -2.75887   0.68716   1.16795
C    -3.65127   1.58565   1.75212
C    -3.21267   2.83934   2.18370
C    -1.86492   3.17547   2.02502
C    -0.96642   2.27835   1.45114
C     0.92123   0.04937   0.56396
F     1.31996   0.82790   1.62767
C     1.83809  -1.11539   0.40710
C     2.84987  -1.31106   1.36448
C     3.74197  -2.38005   1.25333
C     3.64956  -3.26605   0.17845
C     2.65488  -3.07199  -0.78617
C     1.75815  -2.01081  -0.67747
H     2.52082   3.88042  -0.33023
H     2.42703   2.96033   1.18331
H     4.03882   3.31532   0.47025
H    -1.52732   3.32922  -2.21805
H    -2.23722   1.77605  -2.76010
H    -2.31220   2.25428  -1.03527
H    -2.19257  -0.47671  -1.80525
H    -3.30956  -2.60441  -2.35992
H    -2.93488  -4.62798  -0.94545
H    -1.44055  -4.47397   1.05175
H    -0.30739  -2.34116   1.59195
H    -3.13351  -0.28324   0.84830
H    -4.69867   1.29821   1.86956
H    -3.91050   3.54539   2.63941
H    -1.50179   4.15187   2.35436
H     0.06644   2.58912   1.34441
H     2.93511  -0.62556   2.20650
H     4.51459  -2.51546   2.01372
H     4.34770  -4.10156   0.08953
H     2.57291  -3.75524  -1.63451
H     0.99505  -1.89133  -1.44266
