55
Generated by autodE on: 2022-06-03. E = -1303.085180 Ha
C    -3.36226   1.95096   5.55829
O    -2.84199   0.83716   4.80975
C    -1.61585   0.96366   4.32512
O    -0.92818   1.95187   4.43614
C    -1.20887  -0.26911   3.46237
C    -1.79935   0.17155   2.17991
N    -2.38234   0.55356   1.25282
C    -1.95192  -1.61552   3.79150
C    -2.00769  -2.10342   5.23910
C    -0.68060  -2.15521   5.99024
C    -0.16799  -0.76396   6.41534
C     1.21805  -0.36645   5.86896
C     1.56216   1.05467   6.36349
C     2.23064  -1.36210   6.49214
C     1.26785  -0.39757   4.34579
C     0.31266  -0.40743   3.38131
C     1.06974  -0.41104   2.03343
C     0.47590  -0.79332   0.70623
N     2.25467  -1.13044   2.37480
C     2.61625  -0.30467   3.53904
C     3.95285  -0.66560   4.13245
C     4.78376   0.27982   4.75175
C     6.00146  -0.11039   5.31556
C     6.40963  -1.44585   5.26353
C     5.59481  -2.38981   4.63075
C     4.37863  -2.00136   4.06730
C     2.49307   1.12948   2.90717
O     3.05734   2.15925   3.19489
O     1.57922   1.03713   1.93258
H    -3.38459   2.85133   4.92883
H    -2.73822   2.13142   6.44487
H    -4.37634   1.66284   5.85569
H    -2.98346  -1.52125   3.42461
H    -1.45908  -2.37064   3.16041
H    -2.44208  -3.11563   5.19299
H    -2.72215  -1.48978   5.80931
H     0.06867  -2.67294   5.37019
H    -0.81365  -2.78298   6.88439
H    -0.91053   0.00748   6.18091
H    -0.08540  -0.71955   7.51165
H     2.55166   1.37397   6.00931
H     0.81883   1.78465   6.01775
H     1.57752   1.06447   7.46499
H     1.97351  -1.49502   7.55406
H     3.26079  -0.99722   6.44709
H     2.19673  -2.34859   6.00934
H     1.29664  -1.02499   0.01139
H    -0.15486  -1.68641   0.81340
H    -0.11794   0.01788   0.27714
H     2.95198  -1.03145   1.63097
H     4.47734   1.32238   4.79677
H     6.63408   0.63759   5.79936
H     7.36033  -1.74903   5.70849
H     5.90552  -3.43597   4.57804
H     3.74104  -2.74358   3.58740
