33
Generated by autodE on: 2022-06-03. E = -711.073583 Ha
C     3.01796  -1.87456  -2.92256
O     1.72684  -1.44868  -2.44863
C     1.65059  -1.04781  -1.18744
O     2.57324  -1.01853  -0.40751
C     0.23878  -0.53875  -0.84305
C    -0.78642  -1.33937  -1.53353
N    -1.62453  -1.93950  -2.06519
C    -0.02823  -0.52477   0.59744
C    -0.48361  -0.05812   1.61967
C    -1.09588   0.85985   2.58384
C    -0.00371   1.53534   3.43400
C    -2.10862   0.15298   3.49780
C    -1.83113   1.90830   1.68626
C    -1.05239   2.48990   0.48793
C    -1.10411   1.73146  -0.86874
C     0.14704   0.96108  -1.32962
H     3.37355  -2.72976  -2.33117
H     2.87139  -2.16576  -3.96838
H     3.73763  -1.04712  -2.85054
H    -0.46821   2.25106   4.13009
H     0.55026   0.78884   4.02319
H     0.71709   2.07871   2.80544
H    -1.60673  -0.57950   4.14847
H    -2.61249   0.89386   4.13800
H    -2.87498  -0.37289   2.90839
H    -2.13226   2.73204   2.35476
H    -2.76291   1.44925   1.31627
H    -0.00195   2.67065   0.77136
H    -1.47717   3.48935   0.30636
H    -1.28256   2.48232  -1.65364
H    -1.98374   1.06591  -0.90003
H     0.20211   0.94063  -2.42782
H     1.05730   1.45803  -0.96124
