22
Generated by autodE on: 2022-06-03. E = -591.970292 Ha
C    -3.97890   0.73057  -0.58609
C    -2.65082   0.20706  -0.22111
N    -1.47254   0.72356  -0.48524
C    -0.44305  -0.07614   0.03245
C     0.96881   0.22201  -0.09507
C     1.93393  -0.66517   0.43769
C     3.29590  -0.39299   0.32014
C     3.74162   0.76533  -0.32766
C     2.79754   1.65120  -0.85736
C     1.43167   1.38831  -0.74519
C    -1.07335  -1.16219   0.65910
O    -0.73291  -2.16851   1.27446
O    -2.49720  -0.91747   0.45943
H    -4.52121  -0.00964  -1.19575
H    -3.87457   1.66463  -1.15291
H    -4.57255   0.91845   0.32293
H    -1.34896   1.59084  -1.00416
H     1.59899  -1.57059   0.94398
H     4.01921  -1.09672   0.74025
H     4.80986   0.97462  -0.41786
H     3.12580   2.56144  -1.36562
H     0.72431   2.10488  -1.16926
