23
Generated by autodE on: 2022-06-22. E = -351.521385 Ha
C    -2.69716   0.12262   2.64808
C    -1.55549  -0.27887   2.04710
C    -0.66681  -1.32405   2.67147
C    -1.16112   0.30287   0.76562
C    -0.04328  -0.01326   0.06466
C     0.30180   0.59461  -1.20418
C     1.39586   0.33518  -1.96408
C     1.61544   1.05359  -3.26543
C     2.46497  -0.65688  -1.60352
H    -3.01559  -0.29583   3.60693
H    -3.34007   0.88167   2.19178
H    -1.07723  -1.67620   3.62831
H     0.34573  -0.92729   2.85391
H    -0.54769  -2.19396   2.00436
H    -1.84111   1.05785   0.35288
H     0.63898  -0.76514   0.47036
H    -0.40685   1.34344  -1.57832
H     2.57473   1.60169  -3.25315
H     1.68592   0.33529  -4.10205
H     0.80923   1.76809  -3.48726
H     2.56144  -1.41926  -2.39668
H     3.44656  -0.15445  -1.54220
H     2.28625  -1.17428  -0.65216
