26
Generated by autodE on: 2022-06-22. E = -669.357221 Ha
C     4.34377  -0.80360  -0.25435
C     2.98464  -1.33354  -0.59944
O     2.70706  -2.51498  -0.76694
C     1.95066  -0.33474  -0.81424
N     1.02407   0.22182  -0.31267
C    -0.04468   0.80998   0.15393
C     0.16596   2.14168   0.76084
C     1.57642   2.68309   0.75188
O    -0.75666   2.78343   1.25787
C    -1.32260   0.07507   0.05555
C    -2.56642   0.69944   0.28011
C    -3.75373  -0.02570   0.16068
C    -3.73269  -1.37996  -0.18354
C    -2.50354  -2.00929  -0.40924
C    -1.31319  -1.29449  -0.28962
H     4.27384   0.01037   0.48386
H     4.96528  -1.62443   0.12843
H     4.80773  -0.38984  -1.16559
H     1.57611   3.68190   1.20555
H     1.96751   2.74383  -0.27640
H     2.25219   2.02231   1.31805
H    -2.59576   1.75251   0.54683
H    -4.70668   0.47927   0.33676
H    -4.66505  -1.94195  -0.27377
H    -2.46923  -3.06840  -0.67528
H    -0.36523  -1.80927  -0.45923
