49
Generated by autodE on: 2022-06-22. E = -1020.881218 Ha. Imaginary frequency = -341.7 cm-1
C    -2.98013  -3.77599   1.17705
C    -2.02779  -2.71615   1.62847
O    -1.55440  -2.61643   2.74978
C    -1.56761  -1.77325   0.59225
N    -1.78748  -0.63589   0.27461
C    -1.56121   0.42314  -0.50452
C    -2.24833   0.43138  -1.79293
C    -3.29871  -0.63208  -2.03064
O    -1.99491   1.26368  -2.67476
C    -0.69486   1.46480   0.04704
C    -0.19799   2.53306  -0.73170
C     0.67520   3.46832  -0.17613
C     1.07003   3.37506   1.16277
C     0.58221   2.32406   1.94561
C    -0.27754   1.37634   1.39596
C     0.36064  -1.78234  -1.63520
C    -0.20882  -1.87296  -3.03023
C     1.37291  -0.76887  -1.42203
C     2.01510  -0.46854  -0.25776
C     2.99721   0.58293  -0.15629
C     3.65241   0.98822   0.96299
C     4.63267   2.12473   0.91160
C     3.46586   0.37266   2.31949
C    -0.01820  -2.69326  -0.66389
H    -3.37434  -4.31816   2.04668
H    -2.44072  -4.47713   0.51731
H    -3.79646  -3.33371   0.58458
H    -3.69711  -0.51276  -3.04600
H    -2.88635  -1.64525  -1.91846
H    -4.11842  -0.53435  -1.30058
H    -0.49374   2.60921  -1.77463
H     1.05544   4.27969  -0.80173
H     1.75277   4.11233   1.59083
H     0.88193   2.23421   2.99189
H    -0.64234   0.56066   2.02287
H    -0.51728  -0.88845  -3.41643
H    -1.06903  -2.55500  -3.07786
H     0.56015  -2.25504  -3.72558
H     1.62005  -0.16047  -2.30016
H     1.77134  -1.03468   0.64562
H     3.21096   1.12045  -1.08783
H     4.31877   2.94040   1.58729
H     5.62976   1.80287   1.26335
H     4.73796   2.53676  -0.10277
H     4.40657  -0.09651   2.66038
H     3.22544   1.15205   3.06248
H     2.67401  -0.38645   2.35325
H    -0.65269  -3.53902  -0.94175
H     0.58749  -2.82742   0.23570
