51
Generated by autodE on: 2022-10-22. E = -1374.877640 Ha. Imaginary frequency = -391.7 cm-1
C     2.06618   3.77263   1.48047
N     1.00398   3.14252   0.72407
C     0.04816   2.41426   1.33577
O    -0.07541   2.35876   2.56915
C    -0.78149   1.61081   0.41934
C    -0.65877   1.56767  -1.01912
O     0.04508   2.18420  -1.80111
O    -1.55127   0.60660  -1.43931
C    -2.06546  -0.00841  -0.29300
C    -3.34219  -0.75292  -0.48448
C    -3.83610  -0.90034  -1.89171
O    -3.91565  -1.21969   0.48929
N    -1.89901   0.89404   0.74500
C    -2.67245   0.96440   1.97941
C    -0.54520  -1.35828  -0.08314
O    -0.55872  -2.04020  -1.27408
C    -1.32036  -3.24436  -1.34000
C    -0.79749  -2.11931   1.25401
C     0.43567  -3.00738   1.50465
C     1.41774  -2.15413   1.81980
C     0.77122  -0.75742   1.74531
O    -0.56396  -1.05397   2.17134
C     0.56873  -0.50425   0.23515
C     1.68685  -0.11639  -0.60473
C     2.81830   0.49607  -0.01136
C     3.90567   0.90068  -0.78180
C     3.89865   0.71069  -2.16873
C     2.78602   0.11742  -2.77350
C     1.69144  -0.28531  -2.00942
H     2.61825   3.03623   2.08731
H     1.66822   4.54096   2.16129
H     2.76338   4.24834   0.78036
H     1.08625   3.06023  -0.28881
H    -4.16404   0.08957  -2.25227
H    -4.67654  -1.60485  -1.91997
H    -3.02734  -1.22684  -2.56172
H    -3.74047   0.94282   1.73216
H    -2.42988   1.90990   2.47166
H    -2.42962   0.13288   2.64922
H    -1.35195  -3.53499  -2.39772
H    -0.83994  -4.04871  -0.76122
H    -2.34902  -3.10968  -0.97526
H    -1.78850  -2.56306   1.38548
H     0.46766  -4.08981   1.38772
H     2.47187  -2.34874   2.01383
H     1.21057   0.04236   2.34720
H     2.84152   0.66565   1.06544
H     4.76400   1.37146  -0.29660
H     4.75163   1.02813  -2.77298
H     2.76599  -0.02832  -3.85634
H     0.82760  -0.73169  -2.49596
