84
Generated by autodE on: 2022-07-05. E = -1920.575485 Ha
C   -23.67956 -11.47855 -10.38090
N   -22.25045 -11.72738 -10.36327
C   -21.37062 -10.77800 -10.68510
O   -21.73505  -9.65245 -11.06392
C   -19.85598 -11.14811 -10.71999
C   -19.58329 -12.62761 -10.44294
O   -19.52725 -10.91650 -12.09738
C   -18.42714 -10.02723 -12.23783
C   -17.30335 -11.00037 -12.73928
C   -16.96899 -11.10003 -14.19442
O   -16.82283 -11.76835 -11.92558
C   -18.86650  -8.93422 -13.25741
O   -18.11251  -8.49297 -14.12754
N   -20.12839  -8.51938 -13.08230
C   -20.71029  -7.42326 -13.82568
C   -18.16522  -9.48366 -10.81880
C   -18.98498 -10.13329  -9.95112
C   -19.16479  -9.94409  -8.42393
C   -20.52443 -10.51032  -7.90428
C   -20.62073 -11.81776  -7.39573
C   -21.82577 -12.32887  -6.90891
C   -22.97142 -11.53082  -6.88464
C   -22.88799 -10.21796  -7.35102
C   -21.68448  -9.71859  -7.85480
C   -18.07617 -10.68926  -7.61897
C   -17.28624 -11.70491  -8.16917
C   -16.37094 -12.41360  -7.38707
C   -16.22185 -12.11672  -6.02985
C   -17.00065 -11.10097  -5.46788
C   -17.91948 -10.40124  -6.25411
C   -19.10997  -8.42247  -8.07906
C   -19.83111  -7.45141  -9.03771
C   -18.88530  -6.44958  -9.69039
C   -17.97875  -6.94786 -10.82291
C   -17.18526  -8.28335 -10.67684
C   -16.27041  -8.28099  -9.42942
C   -15.64071  -6.97004  -9.02323
O   -15.94987  -9.31178  -8.86861
C   -16.05435  -8.34723 -11.76453
C   -15.10778  -9.38498 -11.71775
C   -14.06501  -9.46402 -12.64197
C   -13.92770  -8.48486 -13.62815
C   -14.84266  -7.43019 -13.67052
C   -15.89060  -7.36146 -12.74989
H   -24.18983 -12.30527  -9.87316
H   -23.91700 -10.53901  -9.86332
H   -24.05425 -11.40680 -11.41492
H   -21.91742 -12.60084  -9.97159
H   -19.82923 -12.92426  -9.41881
H   -20.17488 -13.23526 -11.14248
H   -18.52663 -12.84099 -10.63027
H   -17.88708 -11.12404 -14.80055
H   -16.37010 -12.00485 -14.36094
H   -16.40535 -10.20953 -14.50478
H   -20.68543  -8.94454 -12.32930
H   -21.56694  -7.76044 -14.43190
H   -19.95600  -6.99246 -14.49496
H   -21.06549  -6.63918 -13.13813
H   -19.73922 -12.45585  -7.36945
H   -21.86068 -13.35471  -6.53434
H   -23.91460 -11.92417  -6.49852
H   -23.76796  -9.57083  -7.33192
H   -21.67403  -8.69783  -8.22459
H   -17.34758 -11.92267  -9.23166
H   -15.76443 -13.19736  -7.84789
H   -15.50473 -12.66822  -5.41706
H   -16.89848 -10.85253  -4.40849
H   -18.53372  -9.63255  -5.78381
H   -19.51576  -8.30118  -7.06728
H   -18.05816  -8.13155  -7.98726
H   -20.57941  -6.88060  -8.46659
H   -20.38885  -7.99368  -9.81228
H   -19.47901  -5.62769 -10.12345
H   -18.27779  -5.98406  -8.89809
H   -17.25767  -6.14478 -11.01522
H   -18.58001  -7.02580 -11.73626
H   -15.32965  -6.37920  -9.89534
H   -14.77448  -7.18361  -8.38412
H   -16.35906  -6.36461  -8.45119
H   -15.18691 -10.14755 -10.94655
H   -13.35656 -10.29338 -12.58307
H   -13.11095  -8.53793 -14.35186
H   -14.74965  -6.65297 -14.43274
H   -16.59423  -6.53798 -12.83691
