29
Generated by autodE on: 2022-07-27. E = -762.132522 Ha
C    -0.72134   3.29143  -2.15694
N    -0.42319   2.08275  -1.41907
C     0.77476   1.45970  -1.54829
O     1.63164   1.86724  -2.35322
C     0.98289   0.26925  -0.70893
O    -0.09270   0.03304   0.10634
C    -0.52853  -1.07133   0.59161
C    -0.02030  -2.37762   0.16839
C    -1.72516  -0.82379   1.47101
O    -2.27627   0.28138   1.48007
N    -2.12808  -1.86166   2.22052
C    -3.26459  -1.74051   3.11331
C     2.23618  -0.35838  -0.39697
C     3.43270  -0.10383  -1.28384
O     2.35908  -1.06412   0.62471
H    -1.75750   3.58611  -1.94940
H    -0.61175   3.13249  -3.24118
H    -0.05597   4.12451  -1.87309
H    -1.08152   1.75311  -0.72187
H    -0.75585  -3.17236   0.33900
H     0.23166  -2.30865  -0.90744
H     0.93542  -2.61364   0.67124
H    -1.60986  -2.73417   2.20478
H    -3.42231  -2.70031   3.61834
H    -3.09135  -0.95924   3.87040
H    -4.17480  -1.47417   2.55394
H     3.20386  -0.30307  -2.33998
H     4.25191  -0.75157  -0.94292
H     3.74709   0.94862  -1.21870
