39
Generated by autodE on: 2022-06-17. E = -843.953587 Ha
C     5.11563  -1.14398  -1.99007
C     4.31083  -0.44832  -1.16155
C     4.83168   0.67664  -0.30676
C     2.88563  -0.78748  -1.08125
C     1.98026  -0.16782  -0.30152
C     0.53720  -0.54323  -0.25563
C    -0.01332  -0.96015   1.14747
C     0.20213  -2.44509   1.44598
C     0.59207  -0.16906   2.23528
N     1.07511   0.44129   3.09602
N    -1.45906  -0.62623   1.11663
C    -1.67518   0.14077   0.11690
C    -3.05563   0.67300  -0.15341
O    -3.26056   1.67293  -0.81286
O    -4.01256  -0.06309   0.40058
C    -5.36351   0.38703   0.20571
C    -0.47904   0.54420  -0.73348
C    -0.72801   0.42453  -2.23985
C    -0.05353   1.98124  -0.37577
H     6.18223  -0.91729  -2.07371
H     4.72434  -1.95922  -2.60633
H     4.31536   1.62284  -0.53963
H     5.91038   0.82456  -0.45653
H     4.65273   0.47669   0.76283
H     2.55310  -1.61625  -1.71712
H     2.29393   0.65986   0.33994
H     0.38007  -1.42621  -0.89245
H    -0.31469  -3.04139   0.68064
H    -0.19323  -2.70984   2.43678
H     1.27633  -2.67827   1.41279
H    -5.60355   0.42047  -0.86669
H    -6.00026  -0.34355   0.71697
H    -5.49936   1.38651   0.64309
H     0.22947   0.52924  -2.77408
H    -1.15715  -0.55640  -2.49644
H    -1.40882   1.20893  -2.59796
H    -0.86256   2.68416  -0.61654
H     0.18632   2.08623   0.69263
H     0.83569   2.26372  -0.95880
