45
Generated by autodE on: 2022-05-30. E = -1130.265490 Ha
C     0.97276   4.06196   1.12650
N     0.38746   3.01050   0.31411
C     0.40371   1.73259   0.70902
O     0.92604   1.37406   1.77158
C    -0.24649   0.66713  -0.20525
C    -0.66303   1.12041  -1.63642
C    -0.93782  -0.12181  -2.50112
C    -2.23599  -0.70645  -1.87307
C    -2.60655   0.31884  -0.77953
C    -2.10002   1.63744  -1.39530
C    -1.63102   0.19733   0.39635
F    -2.04400   1.06428   1.41084
N    -1.33145  -1.09359   0.94859
C    -2.23138  -2.11896   1.11745
C    -1.64953  -3.46509   1.44902
O    -3.43551  -1.90769   1.01560
N     0.05640  -1.30669   1.01784
N     0.52886  -0.57619  -0.11265
C     1.89577  -0.65761  -0.37590
C     2.66610  -1.70773   0.16483
C     4.02275  -1.81476  -0.14254
C     4.64700  -0.88575  -0.98122
C     3.88518   0.15988  -1.51136
C     2.52647   0.28172  -1.21637
H     0.82939   5.02269   0.61807
H     2.05053   3.89187   1.27478
H     0.49508   4.10569   2.11751
H    -0.03678   3.25848  -0.57197
H     0.03498   1.82993  -2.09619
H    -0.10125  -0.83026  -2.49633
H    -1.10707   0.19761  -3.53912
H    -3.05086  -0.75601  -2.60834
H    -2.09404  -1.71979  -1.47587
H    -3.64949   0.28980  -0.44984
H    -2.16984   2.48933  -0.70571
H    -2.61334   1.89581  -2.33202
H    -1.07036  -3.42189   2.38311
H    -0.96282  -3.78855   0.65285
H    -2.47203  -4.18303   1.55390
H     0.39566  -0.80303   1.84997
H     2.19355  -2.43653   0.82180
H     4.59896  -2.63800   0.28752
H     5.71032  -0.97249  -1.21398
H     4.35092   0.90055  -2.16624
H     1.96285   1.10642  -1.64763
