21
Generated by autodE on: 2022-05-30. E = -549.949899 Ha
C     3.61982   1.56211  -0.36395
C     2.96815   0.21149  -0.39254
O     3.59506  -0.83573  -0.57406
N     1.59151   0.25439  -0.19574
N     1.08878  -0.95672  -0.23416
N    -0.10296  -1.35782  -0.10537
C    -1.18164  -0.50136   0.11997
C    -2.41463  -1.18639   0.22376
C    -3.59859  -0.49388   0.44797
C    -3.57723   0.90101   0.57412
C    -2.36403   1.58915   0.47394
C    -1.16766   0.90729   0.24868
H     4.70189   1.46534  -0.51578
H     3.41763   2.05446   0.60045
H     3.18646   2.20123  -1.14967
H     1.78670  -1.70995  -0.39855
H    -2.40938  -2.27300   0.12259
H    -4.54164  -1.03918   0.52516
H    -4.50519   1.44965   0.75057
H    -2.34554   2.67699   0.57243
H    -0.22973   1.44663   0.17172
