45
Generated by autodE on: 2022-05-30. E = -1130.189646 Ha. Imaginary frequency = -393.3 cm-1
C     2.13065   2.87606   1.10956
N     0.94417   2.51222   0.36284
C     0.18400   1.44132   0.72959
O     0.39934   0.84636   1.81265
C    -0.84326   0.99795  -0.18840
C    -1.30870   1.62999  -1.50326
C    -1.32640   0.57732  -2.64150
C    -2.45100  -0.39638  -2.18524
C    -2.97162   0.24093  -0.87244
C    -2.82756   1.74954  -1.20595
C    -1.89791   0.13387   0.20098
F    -2.35013   0.13921   1.48934
N    -1.18358  -1.67500   0.25618
C    -1.66998  -2.45864   1.30218
C    -3.16306  -2.60226   1.36325
O    -0.91888  -3.02747   2.08989
N     0.14029  -1.52268   0.30271
N     0.66735  -0.90157  -0.68086
C     2.00706  -0.52455  -0.56161
C     2.88822  -1.00035   0.43043
C     4.20294  -0.54001   0.46352
C     4.65143   0.39856  -0.47334
C     3.78048   0.86430  -1.46563
C     2.46937   0.40048  -1.51780
H     2.52886   3.81788   0.71034
H     1.88702   3.02313   2.17177
H     2.92080   2.10861   1.04701
H     0.89031   2.81740  -0.60199
H    -0.78993   2.56041  -1.76579
H    -0.35822   0.07842  -2.75269
H    -1.58111   1.06508  -3.59455
H    -2.08676  -1.41668  -2.01915
H    -3.27216  -0.43610  -2.91517
H    -3.95339  -0.11569  -0.53872
H    -3.04997   2.40323  -0.34984
H    -3.43084   2.05529  -2.07599
H    -3.40147  -3.66899   1.48758
H    -3.66363  -2.21172   0.47002
H    -3.53829  -2.07103   2.25114
H     0.57611  -1.54038   1.24156
H     2.56823  -1.74956   1.15600
H     4.88522  -0.91943   1.22726
H     5.68148   0.75930  -0.43480
H     4.12675   1.59287  -2.20162
H     1.77591   0.75966  -2.27903
