16
Generated by autodE on: 2022-06-19. E = -641.680266 Ha
C    -3.95111   0.87985  -0.24750
N    -2.65561   0.30354   0.04763
C    -1.49694   0.80551  -0.43238
O    -1.40324   1.79612  -1.16542
C    -0.30041   0.06866  -0.01071
O     0.91814   0.50751  -0.46839
C     1.83790  -0.26968   0.00593
C     3.20812  -0.08139  -0.28951
N     4.33696   0.06264  -0.52516
O     1.37694  -1.21718   0.75718
C    -0.10872  -1.05993   0.80303
O    -0.77914  -1.82736   1.44472
H    -3.81315   1.74971  -0.89987
H    -4.45763   1.20448   0.67515
H    -4.59863   0.15105  -0.76003
H    -2.61830  -0.52056   0.64234
