36
Generated by autodE on: 2022-06-19. E = -1099.410299 Ha. Imaginary frequency = -195.6 cm-1
C     4.27010  -1.04517  -2.12279
N     3.15002  -1.17608  -1.21497
C     2.69966  -0.12216  -0.49263
O     3.20881   1.00775  -0.55271
C     1.55434  -0.40940   0.35617
O     1.02089   0.61720   1.12505
C    -0.18313   0.19252   1.50781
C    -0.80696   0.85024   2.61604
N    -1.38154   1.39087   3.46769
O    -0.27722  -1.14272   1.42039
C     0.79468  -1.57024   0.54648
O     0.84122  -2.72255   0.15436
C    -1.45671   0.90516  -0.17487
C    -0.86929   2.27971  -0.24785
N    -1.51371   3.24213   0.44140
O     0.16576   2.50768  -0.88756
C    -2.88813   0.70445   0.30371
C    -3.32721  -0.72074   0.11411
C    -2.67489  -1.56585  -0.69157
N    -1.52391  -1.16189  -1.40725
C    -0.98359  -2.06684  -2.41986
C    -0.96389   0.01997  -1.16033
H     4.07521  -0.28615  -2.89754
H     5.19042  -0.75283  -1.59109
H     4.44171  -2.01070  -2.61398
H     2.68295  -2.07323  -1.11491
H    -1.11582   4.17606   0.45693
H    -2.32552   3.05404   1.01740
H    -3.00236   0.99106   1.36297
H    -3.57126   1.38288  -0.24567
H    -4.22308  -1.06838   0.63167
H    -2.97867  -2.59820  -0.86328
H    -0.88164  -3.07290  -1.99367
H    -1.65935  -2.11007  -3.28790
H     0.00133  -1.70795  -2.73821
H    -0.10634   0.30618  -1.76804
