20
Generated by autodE on: 2022-06-22. E = -457.715322 Ha
C    -3.11106  -0.58510   0.26585
N    -1.82562   0.07535   0.10931
C    -1.78370   1.42373  -0.26722
C    -0.63374   2.07372  -0.50635
C     0.72200   1.42119  -0.39167
C     0.57550  -0.04382  -0.01273
C     1.75039  -0.91646   0.14377
N     2.95826  -0.33408  -0.06331
O     1.67464  -2.12467   0.44749
C    -0.64832  -0.60394   0.20262
H    -3.75168  -0.02478   0.96433
H    -2.95399  -1.59317   0.66968
H    -3.64151  -0.67079  -0.69767
H    -2.75853   1.90769  -0.35033
H    -0.68205   3.12724  -0.79120
H     1.34249   1.96296   0.35183
H     1.27827   1.52998  -1.34514
H     3.79336  -0.90099   0.03417
H     3.06141   0.64199  -0.30918
H    -0.72464  -1.65847   0.47236
