26
Generated by autodE on: 2022-06-22. E = -681.857656 Ha
C    -1.10821   3.12392  -0.77722
N    -0.75076   1.71946  -0.81813
C     0.23815   1.21680  -0.04997
O     1.03206   1.96771   0.55156
C     0.39808  -0.24723  -0.02056
N    -0.59559  -1.15629  -0.09508
C    -1.91797  -1.18224   0.05483
C    -2.66762  -2.46440  -0.16018
C    -2.63624  -0.04255   0.48462
N    -3.28559   0.84673   0.87426
C     1.72054  -0.90695  -0.02531
O     1.79002  -2.14404  -0.19612
N     2.80684  -0.13628   0.14974
C     4.13989  -0.69831   0.19077
H    -1.43202   3.42302   0.23318
H    -1.93384   3.29767  -1.47768
H    -0.25755   3.75962  -1.06618
H    -1.35022   1.09283  -1.34246
H    -0.15850  -2.08518  -0.25178
H    -1.96445  -3.29297  -0.32967
H    -3.33122  -2.39099  -1.03788
H    -3.29496  -2.70427   0.71273
H     2.63913   0.84029   0.38915
H     4.35329  -1.27823  -0.72035
H     4.86729   0.11943   0.26481
H     4.27603  -1.36971   1.05558
