46
Generated by autodE on: 2022-06-22. E = -1139.547937 Ha. Imaginary frequency = -361.6 cm-1
C     2.65612   3.04405   1.68322
N     2.31846   1.88877   0.87853
C     1.61668   0.86488   1.38020
O     1.30197   0.77478   2.58001
C     1.16159  -0.18694   0.40795
C     2.08762  -0.47394  -0.73233
O     2.51464   0.43118  -1.46671
N     2.51704  -1.74264  -0.85702
C     3.37450  -2.14531  -1.95431
N     0.44468  -1.16472   1.03191
C    -0.56813  -1.90650   0.44460
C    -0.34143  -2.78943  -0.76054
C    -1.47713  -2.43344   1.41834
N    -2.27567  -2.80607   2.18029
C    -1.69094  -0.31567  -0.55577
N    -2.96274  -0.26163   0.03420
C    -3.93125  -1.26280  -0.39087
C    -3.43916   0.95774   0.51152
C    -2.61590   1.98508   0.78268
C    -1.12905   1.75840   0.69574
C    -0.81511   0.80884  -0.44588
C    -0.18878   1.40277  -1.65605
N    -0.15766   0.66879  -2.80203
O     0.25871   2.56056  -1.64527
H     1.75545   3.61247   1.97113
H     3.17537   2.74115   2.60454
H     3.31656   3.70048   1.10347
H     2.45797   1.89640  -0.13179
H     2.20446  -2.44268  -0.19503
H     3.57326  -3.22044  -1.86980
H     4.33259  -1.60255  -1.93272
H     2.89219  -1.94605  -2.92463
H     0.25685  -0.87474   1.99914
H    -1.30416  -3.21220  -1.07786
H     0.08112  -2.23195  -1.60426
H     0.33611  -3.62518  -0.51781
H    -1.70180  -0.87810  -1.49036
H    -4.36461  -1.02088  -1.37934
H    -3.45169  -2.24727  -0.45794
H    -4.74499  -1.33164   0.34356
H    -4.52402   1.01260   0.62624
H    -3.01774   2.94306   1.11736
H    -0.78501   1.31963   1.64860
H    -0.57440   2.69402   0.56127
H     0.48711   0.99733  -3.51406
H    -0.31946  -0.33096  -2.78222
