42
Generated by autodE on: 2022-06-18. E = -866.280532 Ha
C    -5.73606  -0.32635   0.97420
C    -4.76579   0.11466   0.14782
C    -5.04582   1.12417  -0.93401
C    -3.39714  -0.39253   0.29826
C    -2.34078  -0.03684  -0.45625
C    -0.95713  -0.56195  -0.24802
C    -0.25920  -1.00942  -1.53246
O     1.14917  -0.88600  -1.28457
C     1.40008  -0.29723  -0.01366
C     1.79402  -1.40014   1.00122
C     1.80261  -2.81444   0.49629
O     2.10759  -1.11366   2.14137
C     2.59295   0.67315  -0.12080
O     2.98592   1.31573   0.85740
N     3.15043   0.75014  -1.33486
C     4.23499   1.66539  -1.62539
C     0.06413   0.45812   0.35051
C     0.01436   1.80457  -0.39034
C    -0.17929   0.69365   1.83722
H    -5.52221  -1.05951   1.75802
H    -6.76532   0.03367   0.88998
H    -6.10406   1.42106  -0.93792
H    -4.79504   0.71928  -1.92861
H    -4.43106   2.02978  -0.79971
H    -3.24506  -1.12278   1.10194
H    -2.46920   0.68609  -1.26757
H    -1.00143  -1.41214   0.45102
H    -0.48696  -2.05419  -1.79314
H    -0.52944  -0.36913  -2.38828
H     2.46615  -2.89703  -0.37788
H     2.13732  -3.48531   1.29789
H     0.79573  -3.10590   0.15780
H     2.70719   0.21553  -2.07575
H     3.89391   2.71419  -1.62152
H     4.64466   1.43213  -2.61580
H     5.03406   1.56652  -0.87603
H     0.20604   1.69844  -1.46749
H     0.75788   2.49942   0.02446
H    -0.97526   2.26598  -0.26336
H    -0.26260  -0.24571   2.39984
H    -1.12417   1.24504   1.96084
H     0.62953   1.29328   2.27795
