19
Generated by autodE on: 2022-06-18. E = -514.664045 Ha
C    -0.71764   2.61356   0.11381
O    -0.01340   1.56025   0.03484
C    -0.30767   0.22670   0.02685
C    -1.67117  -0.19724   0.12281
C    -2.00284  -1.67141   0.11984
O    -2.59433   0.64034   0.20968
C     0.89354  -0.61094  -0.08360
O     0.83180  -1.85389  -0.11344
N     2.08723   0.02833  -0.15279
C     3.32576  -0.71233  -0.26520
H    -0.13978   3.54144   0.09118
H    -1.80188   2.54678   0.19594
H    -1.65259  -2.15504  -0.80344
H    -1.51012  -2.19095   0.95426
H    -3.09333  -1.77295   0.20613
H     2.11638   1.03995  -0.12568
H     3.48186  -1.37819   0.59940
H     4.15967  -0.00103  -0.31294
H     3.34490  -1.33654  -1.17355
