42
Generated by autodE on: 2022-06-18. E = -866.198478 Ha. Imaginary frequency = -182.9 cm-1
C    -5.00409   0.87712  -1.50631
C    -3.70414   1.10162  -1.22048
C    -2.84671   1.99264  -2.08067
C    -3.09507   0.45737  -0.05640
C    -1.81678   0.62514   0.34885
C    -1.24035  -0.06915   1.49887
C    -0.53088  -1.91421   0.60217
O     0.22785  -1.51189  -0.37512
C     1.49270  -0.96059  -0.20430
C     2.37529  -1.47966   0.77774
C     3.75240  -0.87254   0.94591
O     2.04924  -2.43047   1.53738
C     1.75905   0.10699  -1.16415
O     2.78718   0.81084  -1.12031
N     0.81075   0.32238  -2.12321
C     0.85136   1.51151  -2.94848
C    -0.07763   0.33154   2.14890
C     0.73013   1.52841   1.75363
C     0.35670  -0.37318   3.38880
H    -5.61645   0.22187  -0.87931
H    -5.48683   1.34110  -2.37092
H    -3.42623   2.42658  -2.90746
H    -2.00225   1.42832  -2.50766
H    -2.40841   2.81616  -1.49326
H    -3.74553  -0.21241   0.51873
H    -1.15491   1.28292  -0.21742
H    -1.92331  -0.70470   2.07398
H    -1.51589  -2.24984   0.26971
H    -0.06369  -2.33875   1.48935
H     4.29516  -0.79047  -0.00457
H     3.67587   0.14747   1.35536
H     4.31155  -1.50263   1.65169
H    -0.08691  -0.13297  -2.00219
H     1.85899   1.65407  -3.36233
H     0.58402   2.42503  -2.38707
H     0.14541   1.39794  -3.78149
H     1.80370   1.36162   1.92351
H     0.57721   1.84959   0.71736
H     0.43454   2.36711   2.41295
H     1.24764  -0.99223   3.17131
H    -0.42425  -1.03537   3.78820
H     0.65622   0.35170   4.16309
