59
Generated by autodE on: 2022-10-23. E = -1512.760398 Ha
C     2.36442   3.07735  -2.12706
O     1.92446   2.27745  -1.01988
C     1.42160   1.08213  -1.30414
O     1.41591   0.62411  -2.42871
C     0.92972   0.34445  -0.02735
C     2.14520   0.17035   0.89546
C     3.42066  -0.06839   0.36384
C     4.51310  -0.28582   1.20624
C     4.34725  -0.26200   2.59448
C     3.08011  -0.01758   3.13098
C     1.98732   0.19746   2.28698
N    -0.14064   1.07114   0.65774
C     0.05644   2.46597   1.02455
C    -1.46526   0.68356   0.23521
C    -2.47931   0.70678   1.40920
C    -1.97555   0.69640   2.82593
O    -3.67382   0.64260   1.17567
C    -1.91928   1.55957  -0.99470
C    -3.33886   1.97334  -1.24637
O    -1.03215   1.96116  -1.72548
C    -1.30957  -0.81169  -0.30149
O    -2.00436  -0.96490  -1.50694
C    -3.35191  -1.43146  -1.47755
C    -1.65733  -1.90897   0.78862
C    -1.44579  -3.28130   0.16828
C    -0.11916  -3.43696   0.10813
C     0.45854  -2.14828   0.67486
O    -0.52177  -1.78842   1.64703
C     0.25624  -1.02950  -0.43197
C     0.87866  -1.64336  -1.71091
C     0.12056  -1.86672  -2.98794
O     2.01079  -2.09225  -1.58248
H     3.18140   2.57321  -2.66247
H     1.52827   3.26023  -2.81674
H     2.71652   4.02106  -1.69547
H     3.56824  -0.10184  -0.71650
H     5.49903  -0.47243   0.77407
H     5.20221  -0.42960   3.25375
H     2.93785   0.00643   4.21406
H     0.99948   0.38283   2.70563
H    -0.73212   2.77844   1.72083
H     0.03498   3.15926   0.16938
H     1.01975   2.58729   1.53610
H    -2.82668   0.51589   3.49492
H    -1.50754   1.65447   3.09192
H    -1.21163  -0.08126   2.95064
H    -3.67219   2.63075  -0.42811
H    -4.03157   1.12584  -1.27124
H    -3.36924   2.52562  -2.19504
H    -3.92906  -0.97780  -0.66052
H    -3.80044  -1.14163  -2.43720
H    -3.39558  -2.52790  -1.39097
H    -2.59399  -1.75740   1.33080
H    -2.23184  -3.94763  -0.18251
H     0.45995  -4.25374  -0.31955
H     1.46120  -2.19150   1.10216
H    -0.44217  -0.98281  -3.29925
H     0.84164  -2.17042  -3.75914
H    -0.60290  -2.68164  -2.82996
