37
Generated by autodE on: 2022-10-26. E = -937.905769 Ha
C     1.43113  -1.06526  -3.24326
O     1.37438  -0.56536  -1.89731
C     0.25077  -0.78486  -1.22970
O    -0.69762  -1.40414  -1.66043
C     0.33856  -0.25532   0.18436
C     1.64158  -0.31899   0.86150
C     2.14347   0.79103   1.56532
C     3.39342   0.72071   2.17838
C     4.14637  -0.45615   2.10814
C     3.65483  -1.56114   1.40443
C     2.41598  -1.49110   0.77013
N    -0.76759   0.12313   0.78186
C    -0.82155   0.33391   2.23864
C    -1.87252   0.61671   0.02933
C    -3.19221   0.09100   0.25533
C    -3.33657  -1.20013   1.04675
O    -4.22252   0.59954  -0.22356
C    -1.51719   1.58863  -0.97516
C    -2.59733   2.41091  -1.63678
O    -0.32953   1.77110  -1.31659
H     0.65456  -0.58472  -3.85531
H     2.42783  -0.80661  -3.61698
H     1.28762  -2.15484  -3.25125
H     1.56722   1.71603   1.60341
H     3.78333   1.59092   2.71057
H     5.12248  -0.50969   2.59545
H     4.24237  -2.47961   1.34449
H     2.03722  -2.35161   0.21489
H    -1.84293   0.13468   2.57641
H    -0.12372  -0.34032   2.74671
H    -0.58102   1.37953   2.47156
H    -4.09656  -1.81405   0.54157
H    -2.40735  -1.77753   1.13670
H    -3.71883  -0.97961   2.05699
H    -2.11475   3.18842  -2.24437
H    -3.20556   1.76442  -2.28885
H    -3.28606   2.85819  -0.90867
