37
Generated by autodE on: 2022-10-23. E = -937.905773 Ha
C     1.94835  -3.04608  -0.81204
O     1.63902  -1.75114  -0.27124
C     0.57288  -1.13957  -0.76710
O    -0.11668  -1.57384  -1.66400
C     0.38388   0.22524  -0.14337
C     1.58520   0.98503   0.23255
C     2.66979   1.06966  -0.66079
C     3.81203   1.78513  -0.30593
C     3.89622   2.39593   0.95011
C     2.83190   2.29195   1.85185
C     1.67729   1.59652   1.49614
N    -0.83095   0.71719  -0.06694
C    -1.06620   2.14346   0.21681
C    -1.96320  -0.14230   0.03383
C    -1.81666  -1.20218   1.00114
C    -3.02851  -1.99196   1.43523
O    -0.70563  -1.48646   1.49618
C    -3.09408   0.04804  -0.83440
C    -2.93274   0.93749  -2.05768
O    -4.18301  -0.53440  -0.67736
H     1.11602  -3.73943  -0.62506
H     2.13479  -2.97316  -1.89271
H     2.85071  -3.38097  -0.28893
H     2.60986   0.58912  -1.63939
H     4.64295   1.86150  -1.01033
H     4.79690   2.94716   1.22964
H     2.90239   2.75192   2.83977
H     0.85621   1.49950   2.20733
H    -0.24874   2.75144  -0.18517
H    -1.15903   2.29566   1.30011
H    -2.01054   2.43548  -0.25230
H    -3.38499  -2.61346   0.59892
H    -3.86598  -1.34350   1.72330
H    -2.73508  -2.64057   2.27174
H    -3.45487   1.89481  -1.89574
H    -3.43380   0.43582  -2.89861
H    -1.88949   1.14229  -2.33016
