59
Generated by autodE on: 2022-10-23. E = -1512.689749 Ha. Imaginary frequency = -184.3 cm-1
C     2.35767   2.82350  -2.68929
O     2.08758   2.22517  -1.41208
C     1.27657   1.16931  -1.41002
O     0.84642   0.64534  -2.40927
C     1.02894   0.75494   0.05082
C     2.23573   0.47243   0.86026
C     3.52347   0.39382   0.29071
C     4.62892   0.06164   1.07225
C     4.47612  -0.21341   2.43362
C     3.20156  -0.16728   3.00868
C     2.09543   0.16418   2.23150
N    -0.02030   1.39308   0.66891
C     0.26017   2.40010   1.71916
C    -1.34135   1.41204   0.10272
C    -2.45100   1.02735   0.94468
C    -2.24571   0.79610   2.43165
O    -3.62108   0.91678   0.51580
C    -1.53017   2.24417  -1.06661
C    -2.86168   2.34308  -1.77323
O    -0.59109   2.94645  -1.49597
C    -1.02728  -1.30636  -0.68040
O    -1.61545  -1.13364  -1.82112
C    -3.04690  -1.33611  -1.92807
C    -1.67439  -1.95148   0.56301
C    -1.37473  -3.45188   0.36516
C    -0.05755  -3.56031   0.57821
C     0.42752  -2.13044   0.88589
O    -0.71756  -1.59687   1.55791
C     0.37705  -1.34108  -0.45599
C     1.36304  -1.82381  -1.46565
C     0.92310  -2.22629  -2.84800
O     2.51161  -2.04443  -1.09073
H     2.84403   2.09711  -3.35571
H     3.02810   3.66708  -2.48997
H     1.41887   3.17359  -3.13899
H     3.67393   0.59330  -0.76778
H     5.61728   0.01409   0.61030
H     5.34501  -0.47271   3.04276
H     3.06625  -0.40058   4.06682
H     1.10704   0.15983   2.68669
H    -0.36541   3.27595   1.50051
H     0.03657   2.05559   2.73548
H     1.31052   2.70996   1.67520
H    -2.37914   1.76095   2.94913
H    -3.02933   0.11396   2.78995
H    -1.26360   0.39440   2.69020
H    -2.76668   3.09655  -2.56752
H    -3.14365   1.38002  -2.22174
H    -3.67073   2.61587  -1.08261
H    -3.56302  -0.69280  -1.20719
H    -3.30622  -1.05804  -2.95459
H    -3.27644  -2.39636  -1.75441
H    -2.69407  -1.65693   0.81993
H    -2.10371  -4.20056   0.05956
H     0.58457  -4.43727   0.50565
H     1.34188  -2.02799   1.47332
H     0.25094  -1.50186  -3.31379
H     1.80949  -2.39812  -3.47296
H     0.37208  -3.17853  -2.74697
