48
Generated by autodE on: 2022-06-06. E = -3705.703263 Ha
C    -2.58208   4.19861  -0.39783
O    -2.27991   2.84224  -0.74897
C    -1.55442   2.14149   0.12309
O    -1.23112   2.57630   1.21066
C    -1.22489   0.72518  -0.42230
C    -2.54346  -0.03224  -0.60225
C    -2.69241  -0.98544  -1.61716
C    -3.86754  -1.73520  -1.72035
C    -4.90775  -1.54719  -0.80571
C    -4.76293  -0.60267   0.21532
C    -3.58942   0.14856   0.31454
C    -0.28561   0.01291   0.59251
C    -0.46430  -1.52983   0.73919
C     0.45461  -1.95388   1.88096
C     1.67786  -1.89241   1.34561
Br    3.35934  -2.06939   2.16550
C     1.49946  -1.43568  -0.10013
O     0.23692  -2.02746  -0.41727
C     1.14661   0.08110  -0.01589
C     0.99711   0.81820  -1.38019
C     1.79308   0.17621  -2.52650
C     1.51354   2.26083  -1.14192
C     3.00010   2.49851  -1.15022
O     0.73128   3.17575  -0.94770
N    -0.43485   0.77405  -1.64751
C    -0.93522   1.42051  -2.84401
H    -3.17159   4.23545   0.52958
H    -3.16359   4.60561  -1.23312
H    -1.65324   4.77189  -0.26578
H    -1.87620  -1.14713  -2.32025
H    -3.96822  -2.47336  -2.51987
H    -5.82597  -2.13367  -0.88674
H    -5.56652  -0.44917   0.93955
H    -3.48728   0.87332   1.12605
H    -0.36722   0.50244   1.56599
H    -1.49206  -1.90046   0.77089
H     0.15416  -2.13677   2.91141
H     2.27849  -1.72804  -0.80900
H     1.86389   0.59715   0.63329
H     1.35762  -0.79950  -2.77964
H     2.84369   0.02635  -2.24619
H     1.77212   0.80790  -3.42601
H     3.55316   1.67979  -0.66840
H     3.22367   3.45584  -0.66101
H     3.34074   2.54892  -2.19788
H    -2.01931   1.27181  -2.92059
H    -0.74363   2.50764  -2.88233
H    -0.47947   0.96168  -3.73524
