13
Generated by autodE on: 2022-06-06. E = -2881.097880 Ha
Br    1.46746   0.79420  -0.67065
C     0.12372  -0.24635   0.12203
C    -0.12771  -1.55302   0.01560
C    -1.45597  -1.72739   0.79114
C    -2.56767  -1.03250  -0.03245
C    -2.30602   0.27363   0.06605
C    -1.03993   0.35311   0.95235
O    -1.27328  -0.75059   1.84112
H     0.39251  -2.32647  -0.54615
H    -1.66928  -2.72542   1.18878
H    -3.33904  -1.54884  -0.60291
H    -2.80064   1.12564  -0.39873
H    -0.84048   1.28957   1.48399
