35
Generated by autodE on: 2022-07-27. E = -824.512212 Ha
C     0.19066   3.64921   0.41752
O     0.22766   2.36565  -0.20868
C    -0.47061   1.38541   0.38976
O    -1.25606   1.61142   1.29792
C    -0.30052   0.06486  -0.23957
C    -1.36192  -0.93395  -0.05796
C    -1.03262  -2.28938   0.15776
C    -2.02818  -3.24851   0.34051
C    -3.37660  -2.87663   0.32360
C    -3.71832  -1.53442   0.12207
C    -2.72598  -0.57350  -0.06682
N     0.79811  -0.22256  -0.98470
C     0.65015  -1.12097  -2.15056
C     2.05773   0.25026  -0.72898
C     3.08425   0.20359  -1.82167
C     2.43125   0.54354   0.63446
C     3.91248   0.60478   0.95232
O     1.61087   0.68033   1.56398
H    -0.82748   4.06575   0.40480
H     0.86500   4.29014  -0.16320
H     0.54166   3.57927   1.45765
H     0.01672  -2.58790   0.19698
H    -1.74865  -4.29126   0.50894
H    -4.15672  -3.62721   0.47009
H    -4.76880  -1.23442   0.10398
H    -3.00766   0.46643  -0.23560
H    -0.39129  -1.43348  -2.24469
H     0.92965  -0.56416  -3.05409
H     1.30373  -1.99631  -2.05156
H     2.66904   0.56715  -2.77343
H     3.93619   0.84765  -1.57540
H     3.47811  -0.81244  -2.00442
H     4.47764  -0.23485   0.52142
H     4.03261   0.61000   2.04359
H     4.34683   1.53517   0.54931
