34
Generated by autodE on: 2022-10-21. E = -3451.981140 Ha
C     0.63407  -1.35660  -2.39560
O     0.02220  -0.12368  -2.01199
C     0.56321   0.59984  -1.03499
C     1.68457   0.55327  -0.28240
Br    3.06856  -0.71386  -0.10428
C     1.60879   1.77105   0.63098
O     0.90975   2.71192  -0.19892
C    -0.18120   1.84070  -0.53863
C    -0.77394   1.61759   0.89738
C     0.52393   1.51700   1.73752
C     0.44500   0.13286   2.29739
N    -0.60988  -0.54189   2.04400
C    -1.54848   0.30537   1.26052
C    -2.64693   0.65173   2.18416
N    -3.51134   0.92401   2.90926
C    -2.16343  -0.44059   0.07672
C    -1.90540  -1.79656  -0.13958
C    -2.45237  -2.44365  -1.25185
C    -3.26170  -1.74156  -2.14786
C    -3.53699  -0.38827  -1.92019
C    -2.99550   0.25838  -0.80896
H     0.00046  -1.77642  -3.18568
H     1.64745  -1.18219  -2.78695
H     0.67109  -2.05448  -1.54749
H     2.56377   2.17166   0.98623
H    -0.86068   2.29808  -1.26429
H    -1.36476   2.50550   1.14403
H     0.61160   2.27510   2.52905
H     1.25057  -0.31105   2.89416
H    -1.26352  -2.33863   0.55336
H    -2.23532  -3.50079  -1.42130
H    -3.68207  -2.24675  -3.02052
H    -4.17496   0.16608  -2.61235
H    -3.21244   1.31488  -0.63445
