26
Generated by autodE on: 2022-06-05. E = -738.705293 Ha
C    -4.01992   0.53502  -1.57029
O    -2.74415   0.61468  -0.91352
C    -1.73590   1.12903  -1.61616
O    -1.83821   1.51948  -2.76002
C    -0.44154   1.19983  -0.82378
C    -0.38755   0.40527   0.39207
C     0.05143  -0.27458   1.29495
C     1.11995  -1.07595   1.89215
F     1.16108  -0.96210   3.25835
F     0.88963  -2.41215   1.64637
C     2.46298  -0.66492   1.29890
C     2.52021  -0.61044  -0.24014
C     2.12865   0.71627  -0.95229
C     0.77849   0.78119  -1.69371
H    -3.95182  -0.10709  -2.46003
H    -4.70858   0.09874  -0.83791
H    -4.36091   1.53766  -1.86537
H    -0.32530   2.26474  -0.54894
H     2.71954   0.31462   1.73128
H     3.19279  -1.39625   1.68207
H     1.93638  -1.44960  -0.65434
H     3.56570  -0.82458  -0.50709
H     2.20360   1.55999  -0.24493
H     2.89798   0.90564  -1.71627
H     0.84240   1.50913  -2.51532
H     0.55858  -0.19784  -2.14955
