20
Generated by autodE on: 2022-06-05. E = -644.893750 Ha
N     4.55173   0.09355   1.65367
C     3.53432  -0.03162   1.09594
C     2.31419  -0.18277   0.42516
N     1.11193   0.23763   0.81315
C     0.15581  -0.08935  -0.10473
C    -1.25633   0.22928   0.00929
C    -1.75584   1.00417   1.07787
C    -3.11666   1.29207   1.16777
C    -4.00814   0.81945   0.19810
C    -3.52212   0.05429  -0.86693
C    -2.16289  -0.24050  -0.96574
C     0.83755  -0.78019  -1.15886
O     0.50569  -1.29246  -2.21210
O     2.20290  -0.80152  -0.75665
H     0.94985   0.73465   1.69037
H    -1.08435   1.39460   1.84569
H    -3.48331   1.89380   2.00255
H    -5.07369   1.04768   0.27228
H    -4.20829  -0.31994  -1.63031
H    -1.79128  -0.83840  -1.79713
