41
Generated by autodE on: 2022-06-05. E = -4599.440239 Ha
C    -3.89434  -1.98522   0.33898
O    -2.66823  -1.45289   0.87177
C    -2.50544  -0.14354   0.81894
O    -3.32149   0.65276   0.40862
C    -1.12240   0.28868   1.32531
O    -0.67199  -0.56475   2.36263
C     0.44178  -1.31423   1.94283
C     1.48960  -1.14693   2.98225
N     2.24934  -0.92849   3.82869
C     0.04244  -2.74422   1.82843
N    -0.36283  -3.82646   1.75261
C     0.86099  -0.71366   0.58213
C    -0.04116   0.23089   0.24658
C    -0.19798   1.14514  -0.96128
Br   -0.50913   3.00730  -0.25020
C    -1.42481   0.65220  -1.75867
O    -1.64605  -0.53715  -1.85634
O    -2.10031   1.60187  -2.36580
C    -3.23176   1.18777  -3.15537
C     0.92746   1.25374  -2.00408
C     2.26992   1.84493  -1.57557
C     2.86770   1.35123  -0.26357
C     3.25289  -0.12317  -0.15101
C     2.13248  -1.18186  -0.10022
Cl    2.84503  -2.62408   0.79332
Cl    1.73059  -1.88804  -1.73684
H    -3.84858  -3.06595   0.51179
H    -4.75770  -1.54706   0.85814
H    -3.95322  -1.76923  -0.73700
H    -1.23540   1.30298   1.72857
H    -3.63930   2.10486  -3.59422
H    -3.97688   0.70776  -2.50564
H    -2.91288   0.49036  -3.94199
H     0.52382   1.86450  -2.82446
H     1.06005   0.24982  -2.41940
H     2.97797   1.65304  -2.39847
H     2.16823   2.93843  -1.50462
H     3.80244   1.90889  -0.09531
H     2.21575   1.62391   0.58101
H     3.78730  -0.23277   0.80287
H     3.95160  -0.42073  -0.94675
