15
Generated by autodE on: 2022-06-05. E = -566.354265 Ha
C    -3.75276   0.12110  -0.15854
O    -2.31619   0.14446  -0.11238
C    -1.70714  -1.03357  -0.01906
O    -2.26217  -2.11609   0.02416
C    -0.24293  -0.92944   0.03614
O     0.28836   0.23313  -0.01499
C     1.58182   0.57659   0.03072
C     1.85528   1.95394  -0.05720
N     2.10715   3.09138  -0.12899
C     2.57948  -0.40554   0.16484
N     3.38359  -1.24460   0.27721
H    -4.15516  -0.34255   0.75364
H    -4.09622  -0.43983  -1.03960
H    -4.06718   1.16839  -0.22562
H     0.37538  -1.82716   0.12691
