15
Generated by autodE on: 2022-07-27. E = -566.344199 Ha
C    -2.58979  -0.93803  -1.23361
O    -1.50481  -0.31319  -0.53230
C    -1.72173   0.85907   0.04187
O    -2.77811   1.46329   0.04999
C    -0.53166   1.39832   0.71451
O     0.64496   0.89398   0.74722
C     1.37193  -0.12592   0.30982
C     2.71535  -0.09595   0.75520
N     3.82625  -0.09554   1.11124
C     0.96894  -1.17886  -0.54229
N     0.80588  -2.09981  -1.24025
H    -2.18094  -1.86962  -1.64032
H    -3.41601  -1.14844  -0.53970
H    -2.94115  -0.28444  -2.04469
H    -0.62364   2.33307   1.27032
