23
Generated by autodE on: 2022-06-16. E = -476.141909 Ha
C     2.63601   0.15535  -0.45317
C     1.58592   0.36866   0.61129
O     1.83043   0.96836   1.66943
N     0.34879  -0.10177   0.34722
N    -0.71456   0.20179   1.28984
N    -1.91149  -0.20489   0.65555
C    -1.67013  -0.10650  -0.79834
C    -1.88866   1.31152  -1.30582
C    -0.20266  -0.57459  -0.93506
C    -0.06980  -2.08338  -1.11171
H     3.61895   0.38057  -0.02040
H     2.45675   0.84111  -1.29757
H     2.63202  -0.87000  -0.84742
H    -0.72856   1.22468   1.35753
H    -2.04289  -1.19003   0.89124
H    -2.34894  -0.80148  -1.31094
H    -1.69374   1.36760  -2.38747
H    -2.92513   1.63103  -1.11989
H    -1.21442   2.02513  -0.80527
H     0.29882  -0.05087  -1.76003
H     0.98211  -2.40074  -1.05957
H    -0.47105  -2.38261  -2.09223
H    -0.62900  -2.61884  -0.32791
