12
Generated by autodE on: 2022-06-16. E = -157.300302 Ha
C     1.95667  -0.11993   0.12269
C     0.49912   0.00866   0.44656
C    -0.49912  -0.00853  -0.44657
C    -1.95667   0.11984  -0.12268
H     2.52384   0.76061   0.47338
H     2.12629  -0.22787  -0.96021
H     2.40356  -0.99406   0.62905
H     0.24729   0.12493   1.51009
H    -0.24728  -0.12474  -1.51011
H    -2.40411   0.99294  -0.63031
H    -2.12618   0.22928   0.96009
H    -2.52344  -0.76155  -0.47193
