11
Generated by autodE on: 2022-07-27. E = -318.793456 Ha
C     2.27163  -0.31333  -0.17422
C     0.88339   0.25187  -0.18752
O     0.63065   1.41238  -0.51691
N    -0.09140  -0.65980   0.21428
N    -1.27506  -0.11101   0.18819
N    -2.37390  -0.63659   0.48660
H     2.98801   0.42816  -0.54858
H     2.53985  -0.60611   0.85383
H     2.31202  -1.22546  -0.78994
H    -1.29598   0.88614  -0.12019
H    -2.17261  -1.61163   0.76546
