23
Generated by autodE on: 2022-06-16. E = -476.067970 Ha. Imaginary frequency = -468.2 cm-1
C     2.77214  -0.03218  -0.11062
C     1.61272   0.52715   0.66791
O     1.65057   1.65387   1.17755
N     0.52344  -0.31417   0.75852
N    -0.55177   0.28615   1.27912
N    -1.71616  -0.24755   1.03206
C    -1.72101  -0.24422  -0.96908
C    -2.05239   1.19623  -1.25506
C    -0.44962  -0.74496  -1.27819
C    -0.17108  -2.20794  -1.39725
H     3.66617  -0.03977   0.53317
H     2.98808   0.63554  -0.95966
H     2.57828  -1.04715  -0.47813
H    -0.53044   1.31522   1.29930
H    -1.57954  -1.26475   1.05259
H    -2.54930  -0.96024  -1.00456
H    -2.16481   1.37395  -2.33811
H    -2.98717   1.50109  -0.76224
H    -1.24471   1.85925  -0.90095
H     0.27995  -0.06122  -1.72159
H     0.87847  -2.44472  -1.16931
H    -0.36591  -2.54975  -2.43067
H    -0.81712  -2.79577  -0.72600
