35
Generated by autodE on: 2022-05-30. E = -1325.837824 Ha
C     4.80526   1.47270   1.63324
N     3.68215   1.15292   0.77185
C     3.12770  -0.06109   0.74169
O     3.46910  -1.03131   1.41667
C     1.93819  -0.20947  -0.19448
O     2.22952  -1.24466  -1.19087
C     1.41478  -0.97563  -2.23681
O     1.33221  -1.62192  -3.23943
C     0.64106   0.29054  -1.78343
C     0.14213   1.14380  -2.84317
N    -0.28240   1.80931  -3.69088
O     1.66403   0.91472  -0.99560
C    -0.38475  -0.23577  -0.73318
C    -1.26501   0.85059  -0.04465
O    -0.32980   1.51058   0.80891
C     0.06617   0.35386   1.54965
C    -1.27777  -0.24509   1.97740
C    -1.42103  -1.08380   3.19230
C    -2.11209   0.08812   0.97500
C    -3.51333  -0.31599   0.70654
F    -4.12909  -0.84810   1.77554
F    -4.26333   0.73106   0.29881
F    -3.58428  -1.23512  -0.28723
C     0.58894  -0.59954   0.43311
H     4.72986   0.89742   2.56529
H     4.78860   2.54475   1.86621
H     5.76590   1.22935   1.15081
H     3.33233   1.85841   0.12967
H    -0.97383  -1.06319  -1.14116
H    -1.77779   1.55008  -0.71349
H     0.77532   0.59974   2.34742
H    -0.69050  -1.91011   3.15158
H    -2.42697  -1.50390   3.30257
H    -1.17266  -0.49285   4.08976
H     0.59746  -1.65138   0.73473
