19
Generated by autodE on: 2022-05-30. E = -684.055143 Ha
C    -0.06342   2.49765   0.69809
C     0.33397   1.27312  -0.03696
C    -0.18615   0.04209  -0.15239
C    -1.36189  -0.59287   0.47583
F    -2.12808   0.25994   1.17947
F    -2.16963  -1.18229  -0.43641
F    -0.98633  -1.57993   1.32726
C     0.84806  -0.77234  -0.97350
C     2.09480  -0.94222  -0.07737
C     2.61361   0.28577   0.01978
C     1.67411   1.17502  -0.82254
O     1.30234   0.25784  -1.86537
H    -1.01105   2.38124   1.23669
H    -0.14466   3.35021   0.00280
H     0.72918   2.76155   1.42061
H     0.47466  -1.65437  -1.50454
H     2.40178  -1.87205   0.40010
H     3.46295   0.64336   0.60066
H     2.07446   2.11654  -1.21397
