16
Generated by autodE on: 2022-05-30. E = -641.693429 Ha
C    -3.98681   0.95382   0.09816
N    -2.54357   0.82886  -0.00117
C    -1.93587  -0.32705   0.28032
O    -2.47677  -1.36814   0.63707
C    -0.43854  -0.30402   0.13430
O     0.28908  -1.32467   0.39181
C     1.74133  -0.93932   0.13449
O     2.60447  -1.74943   0.31367
C     1.58300   0.39059  -0.27669
C     2.52614   1.34262  -0.66676
N     3.33241   2.12315  -0.98914
O     0.22567   0.72990  -0.25844
H    -4.32821   0.70613   1.11473
H    -4.26704   1.98670  -0.13585
H    -4.48738   0.27330  -0.60789
H    -1.99124   1.63297  -0.28851
