35
Generated by autodE on: 2022-05-30. E = -1325.752258 Ha. Imaginary frequency = -273.4 cm-1
C     4.28125   1.26702   2.18117
N     3.44006   1.09252   1.01039
C     3.29908  -0.10846   0.43576
O     3.88159  -1.13768   0.76835
C     2.29640  -0.15879  -0.67648
O     2.31307  -1.15806  -1.55155
C     1.42614  -0.81193  -2.62437
O     1.16164  -1.59430  -3.50135
C     1.04883   0.52265  -2.28976
C     0.23438   1.43124  -2.97477
N    -0.47333   2.16398  -3.54273
O     1.78868   0.93516  -1.20876
C    -0.48310  -0.70829  -0.52256
C    -1.32891   0.50417  -0.10612
O    -0.33776   1.31006   0.54216
C     0.10642   0.29743   1.45302
C    -1.23815  -0.11523   2.11568
C    -1.30703  -0.61851   3.50723
C    -2.13673   0.03109   1.12830
C    -3.56879  -0.32871   1.04102
F    -4.10642  -0.68094   2.22158
F    -4.31503   0.68874   0.55573
F    -3.76098  -1.36795   0.19273
C     0.46580  -0.83335   0.46404
H     3.90886   0.66502   3.02538
H     4.27444   2.32581   2.46386
H     5.31519   0.95828   1.96698
H     2.86778   1.86842   0.68822
H    -0.78418  -1.44251  -1.26783
H    -1.87162   1.04679  -0.88660
H     0.88976   0.65602   2.12827
H    -0.63833  -1.49142   3.60914
H    -2.32137  -0.90812   3.80447
H    -0.92688   0.14591   4.20561
H     0.99568  -1.74480   0.73943
