27
Generated by autodE on: 2022-07-27. E = -798.050699 Ha
C    -3.72900   1.40422   2.13953
N    -2.44548   1.07418   1.55953
C    -1.28658   1.64232   1.94924
O    -1.17181   2.50276   2.83298
C    -0.07367   1.17754   1.24327
O    -0.23857   0.28714   0.34525
C     0.46431  -0.42563  -0.52643
C    -0.41658  -1.32737  -1.30350
O    -1.64128  -1.34712  -1.08886
N     0.19321  -2.09610  -2.22909
C    -0.51411  -3.02781  -3.07910
C     1.90032  -0.29609  -0.65567
O     2.58531  -0.93535  -1.45173
O     2.42375   0.60381   0.19065
C     3.84395   0.79938   0.13251
H    -4.41802   1.79578   1.37454
H    -4.19316   0.51788   2.60045
H    -3.58413   2.16973   2.91080
H    -2.40648   0.37633   0.82007
H     0.90983   1.58026   1.48430
H     1.20360  -1.99241  -2.31585
H    -0.37635  -2.77605  -4.14308
H    -1.58411  -2.98809  -2.84432
H    -0.15643  -4.05842  -2.92289
H     4.07195   1.55918   0.88861
H     4.37065  -0.13783   0.36258
H     4.14258   1.15218  -0.86502
