27
Generated by autodE on: 2022-06-13. E = -798.052641 Ha
C     4.28450   1.37760   0.40703
N     2.98067   0.76088   0.28965
C     2.79931  -0.57034   0.18075
O     3.70441  -1.41663   0.18792
C     1.40229  -1.03278   0.04999
O     0.48793  -0.13963   0.02696
C    -0.84074  -0.12353  -0.06972
C    -1.57850  -1.38815  -0.18206
O    -0.96220  -2.47176  -0.18823
N    -2.92243  -1.29335  -0.27359
C    -3.79266  -2.44254  -0.38699
C    -1.40824   1.21292  -0.05236
O    -2.61288   1.44853  -0.12582
O    -0.48901   2.18694   0.05168
C    -0.98299   3.53215   0.07435
H     4.55439   1.92491  -0.51121
H     5.03393   0.59682   0.58262
H     4.30051   2.08607   1.24877
H     2.16002   1.35934   0.25139
H     1.15435  -2.09016  -0.02435
H    -3.31471  -0.35255  -0.25977
H    -3.18677  -3.35601  -0.37804
H    -4.37059  -2.41242  -1.32487
H    -4.50534  -2.48432   0.45254
H    -1.52916   3.76062  -0.85249
H    -0.09889   4.17450   0.15944
H    -1.64821   3.68707   0.93632
