40
Generated by autodE on: 2022-06-13. E = -1258.018520 Ha
C    -1.82101  -1.41294   4.78792
O    -1.21434  -1.66202   3.50823
C    -0.69962  -0.61781   2.87456
O    -0.72593   0.51890   3.29351
C    -0.05943  -1.01098   1.53451
C     1.29441  -1.69185   1.84031
O     1.40495  -2.61270   2.61830
O     2.29566  -1.18386   1.13466
C     3.58939  -1.78927   1.31097
C     0.08521   0.14516   0.65721
C     0.10666   0.76260  -0.38185
C     0.02187   1.03719  -1.81125
C     1.33708   1.61236  -2.40823
C     2.60202   1.30632  -1.66627
O     1.30874   2.23985  -3.44669
C    -1.14412   2.00283  -2.08979
F    -1.43879   2.10256  -3.39127
F    -2.26983   1.60810  -1.46507
F    -0.86104   3.23887  -1.64038
C    -0.20143  -0.35731  -2.50758
C    -1.14457  -1.35498  -1.80550
C    -0.54638  -2.28612  -0.71355
C    -0.95077  -2.04240   0.75314
H    -2.65845  -0.70921   4.68103
H    -1.07864  -1.00102   5.48602
H    -2.18119  -2.38493   5.14276
H     3.54976  -2.85210   1.03463
H     3.91437  -1.68888   2.35590
H     4.26644  -1.24427   0.64411
H     3.46894   1.55183  -2.29248
H     2.63401   0.25502  -1.34460
H     2.62372   1.91798  -0.74864
H    -0.55916  -0.14639  -3.52537
H     0.79043  -0.82223  -2.61530
H    -1.52128  -2.00259  -2.61193
H    -2.02909  -0.83091  -1.41327
H     0.55252  -2.31440  -0.80272
H    -0.88176  -3.30903  -0.94263
H    -0.91059  -2.98490   1.31585
H    -1.98881  -1.68024   0.80015
