67
Generated by autodE on: 2022-06-13. E = -2056.082957 Ha. Imaginary frequency = -203.3 cm-1
C   -29.12108  -5.27862  11.03654
N   -27.91564  -5.73184  10.37365
C   -26.69763  -5.33733  10.77475
O   -26.49111  -4.47644  11.64647
C   -25.53770  -6.00334  10.13996
O   -25.82348  -6.84630   9.20147
C   -25.07946  -7.72490   8.54077
C   -25.95721  -8.58189   7.69243
O   -27.18338  -8.59383   7.87544
N   -25.35397  -9.30250   6.72788
C   -26.07328 -10.34675   6.02933
C   -23.63223  -7.59163   8.37397
O   -22.94490  -8.39480   7.75044
O   -23.12357  -6.50564   8.96010
C   -21.69673  -6.35368   8.95213
C   -24.51432  -8.59483  11.15192
C   -24.69871  -7.51720  11.72162
C   -24.68372  -6.70702  12.96601
C   -26.11903  -6.65403  13.52599
O   -27.05139  -7.23081  13.00745
O   -26.20682  -5.99828  14.67302
C   -27.51316  -5.90496  15.26494
C   -24.00001  -5.34382  12.73622
O   -23.19441  -5.16840  11.84471
O   -24.27572  -4.44116  13.66130
C   -23.65430  -3.15443  13.51118
C   -23.75995  -7.41043  14.02421
C   -24.19223  -8.80122  14.50417
C   -23.62279 -10.02956  13.77602
C   -24.38845 -10.60067  12.57729
C   -24.07887 -10.00337  11.15908
C   -22.53875 -10.07217  10.89978
C   -21.90857 -11.41124  10.65038
O   -21.88451  -9.05192  10.95206
C   -24.84164 -10.85649  10.12265
F   -24.76940 -12.17305  10.37998
F   -26.14378 -10.53625  10.08652
F   -24.34707 -10.68976   8.88341
H   -29.06538  -4.19800  11.22622
H   -29.26314  -5.79165  12.00276
H   -29.98629  -5.48503  10.39441
H   -27.96959  -6.51075   9.72215
H   -24.55182  -5.55800  10.20957
H   -24.33615  -9.33480   6.76148
H   -25.42324 -10.77030   5.25358
H   -26.97916  -9.94680   5.55124
H   -26.38010 -11.15538   6.71579
H   -21.49473  -5.43783   9.51825
H   -21.22298  -7.21525   9.44059
H   -21.32657  -6.25718   7.92169
H   -27.37782  -5.35519  16.20298
H   -27.91847  -6.90732  15.46114
H   -28.18826  -5.35577  14.59294
H   -22.55983  -3.25174  13.51952
H   -23.98018  -2.69225  12.56852
H   -23.99289  -2.55818  14.36578
H   -23.71925  -6.72782  14.88388
H   -22.75044  -7.45205  13.58905
H   -25.29172  -8.87693  14.55202
H   -23.85008  -8.87204  15.54804
H   -23.60475 -10.84647  14.51379
H   -22.56628  -9.84996  13.51668
H   -24.17836 -11.67581  12.52083
H   -25.47240 -10.49575  12.73777
H   -22.15634 -11.74615   9.63041
H   -20.81928 -11.31137  10.73603
H   -22.27964 -12.17474  11.34791
