39
Generated by autodE on: 2022-10-12. E = -843.945629 Ha
C     0.64206  -0.14933   2.55258
C     0.49248  -1.18034   1.70915
C     0.81094  -2.59576   2.10128
C     0.02873  -0.99635   0.27264
C    -1.10951   0.04155   0.08668
C    -2.30548  -0.46477  -0.68293
C    -3.58189  -0.06609  -0.52927
C    -4.03672   0.96468   0.46737
C    -4.67335  -0.63187  -1.39695
C    -0.39955   1.11876  -0.70711
C    -1.06618   2.36131  -1.00617
N    -1.64040   3.34913  -1.21462
N     0.77724   0.87513  -1.13771
C     1.16265  -0.47861  -0.71726
C     1.26796  -1.36595  -1.95955
C     2.51818  -0.44714  -0.01023
O     3.20806  -1.43470   0.14482
O     2.84926   0.75878   0.44110
C     4.04966   0.84886   1.22393
H     1.00445  -0.30434   3.57304
H     0.41887   0.87995   2.25880
H     1.19085  -2.66096   3.13115
H     1.56436  -3.02526   1.42103
H    -0.08862  -3.23008   2.01617
H    -0.30695  -1.97222  -0.09920
H    -1.42847   0.45903   1.05116
H    -2.07367  -1.19102  -1.46964
H    -4.39504   1.86545  -0.06058
H    -3.24834   1.27960   1.16378
H    -4.89098   0.58459   1.05294
H    -4.28902  -1.36281  -2.12338
H    -5.18635   0.17448  -1.95006
H    -5.44590  -1.12323  -0.77980
H     0.28587  -1.43507  -2.44864
H     1.59206  -2.37362  -1.66647
H     1.99373  -0.95288  -2.67541
H     3.95948   0.22338   2.12398
H     4.91935   0.52532   0.63487
H     4.14918   1.90414   1.50224
