23
Generated by autodE on: 2022-10-12. E = -351.521383 Ha
C     1.17782  -1.39946  -3.30962
C     0.80904  -0.45812  -2.41316
C     0.80492   1.00607  -2.77148
C     0.40518  -0.85246  -1.06499
C     0.02003  -0.00744  -0.07583
C    -0.36945  -0.45179   1.24690
C    -0.75890   0.32610   2.28848
C    -1.13315  -0.28727   3.60813
C    -0.85330   1.82474   2.24032
H     1.48479  -1.13222  -4.32464
H     1.17985  -2.46175  -3.04646
H     1.12864   1.16283  -3.81009
H    -0.20121   1.44147  -2.65270
H     1.47521   1.57914  -2.10944
H     0.42303  -1.92877  -0.85522
H     0.00054   1.06700  -0.27732
H    -0.34036  -1.53604   1.40963
H    -0.49109   0.10404   4.41778
H    -2.16886  -0.01957   3.88470
H    -1.04851  -1.38383   3.59623
H    -0.19761   2.27328   3.00756
H    -0.58290   2.25368   1.26692
H    -1.87912   2.15103   2.48696
