16
Generated by autodE on: 2022-10-12. E = -492.341342 Ha
C    -2.89596   0.98257   0.27418
O    -1.53307   0.58604   0.05682
C    -1.30660  -0.71944  -0.09446
O    -2.16595  -1.57929  -0.05653
C     0.12713  -1.03756  -0.32302
C     0.53205  -2.46631  -0.51575
N     0.96966  -0.07653  -0.34528
C     1.72310   0.87041  -0.49592
C     2.51434   1.58064   0.40608
N     3.22316   2.26356   1.03782
H    -2.87773   2.07260   0.38525
H    -3.29047   0.51233   1.18646
H    -3.51928   0.69680  -0.58545
H    -0.00855  -2.89456  -1.37480
H     1.61237  -2.54536  -0.69024
H     0.26416  -3.05751   0.37432
