39
Generated by autodE on: 2022-10-12. E = -843.860928 Ha. Imaginary frequency = -367.9 cm-1
C     1.40975  -2.21775   2.21140
C     0.60770  -1.16650   1.92782
C     0.61417   0.07417   2.78583
C    -0.28757  -1.20910   0.77508
C    -1.30605  -0.28298   0.54805
C    -2.37945  -0.57385  -0.40737
C    -3.55728   0.07947  -0.53661
C    -3.97190   1.25111   0.30897
C    -4.56275  -0.34276  -1.57091
C    -0.32116   1.23833  -0.70561
C    -0.90113   2.50082  -0.87661
N    -1.48480   3.51178  -0.89901
N     0.62908   0.66397  -1.22520
C     1.26596  -0.49459  -1.18303
C     0.99131  -1.53293  -2.22577
C     2.49380  -0.58827  -0.38024
O     3.18594  -1.59267  -0.33247
O     2.74022   0.51754   0.33442
C     3.86972   0.47968   1.21575
H     2.08421  -2.20408   3.07166
H     1.40492  -3.11726   1.58947
H     0.77956   0.97669   2.17731
H     1.40133   0.02253   3.55100
H    -0.35314   0.20846   3.29849
H    -0.29220  -2.13377   0.19298
H    -1.50614   0.46108   1.32054
H    -2.18121  -1.41029  -1.08724
H    -3.21918   1.54661   1.05079
H    -4.18288   2.12680  -0.32826
H    -4.91171   1.02305   0.84255
H    -4.78187   0.48930  -2.26401
H    -4.21553  -1.20390  -2.16072
H    -5.52522  -0.60824  -1.09801
H     1.59393  -1.35524  -3.13364
H    -0.07085  -1.52995  -2.50547
H     1.26500  -2.52001  -1.82968
H     3.87172   1.44016   1.74364
H     3.77417  -0.34742   1.93229
H     4.80053   0.36188   0.64149
