20
Generated by autodE on: 2022-10-22. E = -982.155648 Ha
C    -2.75102   0.59721  -0.13698
O    -1.59619   0.43639   0.70653
C    -0.39048   0.53784   0.10122
C     0.39062  -0.53785  -0.10115
O     1.59636  -0.43652  -0.70642
C     2.75115  -0.59694   0.13727
C    -0.06259  -1.92495   0.33409
F     0.74227  -2.86321  -0.18450
F    -0.03687  -2.06555   1.67157
F    -1.31388  -2.20510  -0.06752
C     0.06255   1.92493  -0.33414
F    -0.74216   2.86316   0.18469
F     1.31397   2.20509   0.06704
F     0.03635   2.06550  -1.67164
H    -3.62469   0.41810   0.50179
H    -2.80269   1.61490  -0.55266
H    -2.72745  -0.13968  -0.95407
H     3.62484  -0.41757  -0.50139
H     2.72722   0.13998   0.95431
H     2.80308  -1.61459   0.55299
