30
Generated by autodE on: 2022-10-26. E = -655.490055 Ha
C    -1.73088   1.46872   1.86476
C    -1.37965   0.58648   0.73022
O    -0.09659   0.38764   0.49541
C     0.95135   0.87592   1.13913
C     2.25562   0.50506   0.69788
C     2.48349  -0.37575  -0.39386
C     3.77916  -0.70288  -0.78261
C     4.88922  -0.17303  -0.10857
C     4.67952   0.69636   0.97126
C     3.38962   1.03248   1.37142
C    -2.28131  -0.09118  -0.16655
C    -1.79262  -0.88923  -1.23704
C    -2.66562  -1.54154  -2.10059
C    -4.05403  -1.42874  -1.93831
C    -4.55250  -0.64732  -0.88970
C    -3.68819   0.01128  -0.01715
H    -2.81266   1.58250   1.98664
H    -1.28630   2.47393   1.72750
H    -1.30927   1.07420   2.81005
H     0.78384   1.54401   1.98272
H     1.63096  -0.79852  -0.92867
H     3.92894  -1.38310  -1.62529
H     5.90278  -0.43503  -0.41990
H     5.53483   1.11692   1.50664
H     3.23770   1.71181   2.21433
H    -0.71633  -0.98821  -1.38253
H    -2.25927  -2.14727  -2.91468
H    -4.73543  -1.94244  -2.61995
H    -5.63159  -0.54832  -0.74717
H    -4.10937   0.61036   0.79087
