32
Generated by autodE on: 2022-05-30. E = -1454.425090 Ha
C     4.06398  -1.38666   0.23311
C     3.13787  -0.20733   0.22611
O     3.53579   0.94334   0.26241
C     1.65632  -0.50229   0.19464
N     1.23775  -1.68105   0.43997
C    -0.21478  -1.75443   0.43742
C    -0.71619  -2.73499  -0.62194
C    -0.70324  -0.24760   0.39677
C    -0.95928   0.13495   1.89138
F    -1.84475  -0.69631   2.46119
F     0.17253   0.03740   2.60856
F    -1.43648   1.37357   2.05606
C    -2.03017  -0.02039  -0.36301
F    -1.97642  -0.41530  -1.63863
F    -3.03386  -0.70684   0.20797
F    -2.38416   1.27468  -0.36475
C     0.57141   0.54015  -0.14767
C     0.76806   1.95488   0.43332
C     0.63259   0.70350  -1.69337
F    -0.29733   1.54905  -2.15575
F     0.50622  -0.45699  -2.35579
F     1.82755   1.20595  -2.05185
H     5.10167  -1.03313   0.27648
H     3.84727  -2.03843   1.09236
H     3.90624  -1.99018  -0.67489
H    -0.50983  -2.18818   1.40207
H    -0.46065  -2.42576  -1.64067
H    -0.24717  -3.70941  -0.42400
H    -1.80376  -2.86250  -0.54192
H    -0.14057   2.55124   0.28916
H     1.01091   1.91899   1.49906
H     1.59946   2.45068  -0.07484
