18
Generated by autodE on: 2022-05-30. E = -1129.534862 Ha
C    -1.96865   0.05633   1.56200
C    -1.07380   0.11884   0.35900
C     0.25277  -0.12045   0.35359
C     0.97291  -0.69167   1.56590
F     1.49973   0.26706   2.34459
F     0.17791  -1.44339   2.33759
F     1.98188  -1.49232   1.17477
C     1.18975   0.16517  -0.81255
F     2.40448   0.51747  -0.35110
F     0.77051   1.18589  -1.57101
F     1.36087  -0.89687  -1.61317
C    -1.83176   0.49731  -0.91632
F    -1.79907   1.81854  -1.14289
F    -3.12360   0.14973  -0.80409
F    -1.36494  -0.12986  -2.00544
H    -2.69284   0.88261   1.50714
H    -1.41900   0.14160   2.50243
H    -2.54831  -0.88074   1.56580
