14
Generated by autodE on: 2022-05-30. E = -324.801405 Ha
C     2.82428   1.26520   0.34133
C     2.15083  -0.06768   0.27535
N     0.89247  -0.21764   0.40765
C    -0.30766  -0.33775   0.62185
C    -1.44965  -0.35124  -0.26918
C    -2.17286   0.96508  -0.41010
O    -1.86002  -1.40054  -0.76782
H     3.59964   1.26171   1.12624
H     2.10328   2.06712   0.55337
H     3.33290   1.48694  -0.61250
H     2.74394  -0.97385   0.10151
H    -2.69549   0.98351  -1.37739
H    -2.92552   1.04908   0.39207
H    -1.48774   1.82173  -0.32437
