32
Generated by autodE on: 2022-05-30. E = -1454.340586 Ha. Imaginary frequency = -120.7 cm-1
C     4.01407  -1.15993  -0.74521
C     3.23828  -0.66024   0.43570
O     3.72211  -0.07392   1.39300
C     1.77468  -0.81850   0.35983
N     1.03919  -1.74084   0.66901
C    -0.05918  -2.37339   0.85722
C    -0.57560  -3.35969  -0.13488
C    -0.86894   0.36373   0.28326
C    -1.30460   0.65505   1.69620
F    -0.41618   0.19574   2.61460
F    -2.48688   0.09839   2.01147
F    -1.44549   1.97925   1.95629
C    -1.98759  -0.09225  -0.60998
F    -2.91882   0.89082  -0.75995
F    -1.60187  -0.43800  -1.84509
F    -2.67711  -1.15527  -0.13315
C     0.39179   0.82516  -0.11164
C     1.11275   1.88792   0.70512
C     0.78566   0.88152  -1.59304
F     0.84030  -0.31587  -2.20095
F     2.00986   1.42383  -1.75254
F    -0.06100   1.65887  -2.29614
H     3.80733  -2.23043  -0.90477
H     3.68389  -0.62526  -1.65029
H     5.08683  -0.99314  -0.57992
H    -0.49523  -2.31440   1.86115
H    -0.26024  -3.09436  -1.15384
H    -1.67114  -3.39743  -0.08143
H    -0.19359  -4.36775   0.10517
H     2.16553   1.96692   0.42008
H     0.63363   2.86363   0.52271
H     1.07305   1.68029   1.77777
