33
Generated by autodE on: 2022-10-21. E = -3396.881376 Ha
C     4.51992   1.69759   2.46624
O     3.28161   1.62996   1.74038
C     2.97394   0.45432   1.20010
O     3.67491  -0.53410   1.26554
C     1.64277   0.47881   0.51029
N     0.70769   1.29228   0.85579
C    -0.46007   1.00995   0.00167
C    -0.72984   2.27131  -0.82995
C    -1.63825   0.58936   0.89088
C    -1.47642  -0.50452   1.75652
C    -2.52532  -0.93142   2.57011
C    -3.76079  -0.27368   2.52696
C    -3.93110   0.81066   1.66546
C    -2.87531   1.24118   0.85203
C    -0.01381  -0.13819  -0.88888
Br   -1.21122  -0.87102  -2.13876
C     1.27228  -0.45152  -0.58164
O     2.17722  -1.32485  -1.03427
C     1.88428  -2.14949  -2.16315
H     5.36456   1.45882   1.80410
H     4.59949   2.72839   2.82920
H     4.50638   0.99400   3.31108
H    -1.55804   2.10172  -1.53144
H    -0.98363   3.11677  -0.17658
H     0.16921   2.52594  -1.40867
H    -0.52028  -1.03152   1.79162
H    -2.38012  -1.78290   3.23924
H    -4.58479  -0.60828   3.16159
H    -4.89086   1.33091   1.62021
H    -3.03495   2.08919   0.18653
H     2.79841  -2.72365  -2.35912
H     1.64040  -1.53815  -3.04472
H     1.05856  -2.84220  -1.94538
