33
Generated by autodE on: 2022-10-21. E = -3396.730453 Ha. Imaginary frequency = -247.7 cm-1
C     5.15759   0.93254   1.86428
O     3.92685   1.13836   1.14872
C     2.87816   0.41890   1.54858
O     2.88776  -0.39393   2.45757
C     1.71291   0.59696   0.68658
N     0.71693   1.29795   0.78845
C    -0.51808   1.55717   0.48517
C    -0.82745   2.74909  -0.36758
C    -1.57397   0.75745   1.12128
C    -1.26187  -0.29427   2.01000
C    -2.27246  -1.08121   2.55500
C    -3.61434  -0.83318   2.23584
C    -3.93423   0.21323   1.36715
C    -2.92602   1.00499   0.81395
C     0.06860  -0.53396  -1.41847
Br   -1.50560  -0.41413  -2.30998
C     1.18377  -0.80702  -0.96464
O     2.32021  -1.48572  -0.86617
C     2.41836  -2.58800  -1.78658
H     5.89320   1.59191   1.39004
H     5.03587   1.19825   2.92408
H     5.47614  -0.11655   1.78167
H    -1.44299   2.43983  -1.22760
H    -1.40122   3.50578   0.19174
H     0.09667   3.20513  -0.74430
H    -0.22235  -0.49284   2.27683
H    -2.01388  -1.89248   3.23948
H    -4.40489  -1.45038   2.66875
H    -4.97747   0.41667   1.11456
H    -3.19548   1.81300   0.13382
H     3.39212  -3.05947  -1.60273
H     2.36338  -2.22485  -2.82484
H     1.60774  -3.31102  -1.60498
