64
Generated by autodE on: 2022-06-09. E = -1661.698292 Ha
C     3.29994  -1.39231   2.73806
N     2.33675  -0.56718   2.04023
C     2.64266   0.02394   0.88928
O     3.78154   0.03998   0.40705
C     1.46247   0.76689   0.16858
C     2.20332   1.50279  -0.98104
O     2.53937   0.97281  -2.01968
O     2.48421   2.76084  -0.67240
C     3.23845   3.51154  -1.63909
N     0.76960   1.57288   1.15434
C     1.39669   2.54886   2.00765
N    -0.57758   1.78394   0.81902
C    -0.78433   2.96844  -0.03000
C    -1.01003   0.43506   0.40080
C    -1.22040  -0.27089   1.78581
O    -0.35267  -0.52598   2.59819
O    -2.49723  -0.52080   2.04433
C    -2.79987  -1.11934   3.31484
C    -2.34579   0.41121  -0.34657
C    -2.63885  -0.54299  -1.32974
C    -3.89675  -0.58825  -1.93988
C    -4.89462   0.31199  -1.56633
C    -4.62693   1.24700  -0.56125
C    -3.37265   1.28721   0.04632
C     0.26942  -0.17328  -0.39764
C     0.06123   0.14898  -1.90272
O    -0.29325   1.23313  -2.31195
O     0.26868  -0.88765  -2.70571
C     0.08294  -0.65492  -4.10948
C     0.52148  -1.67418  -0.22231
C    -0.45292  -2.55818   0.25973
C    -0.19194  -3.92791   0.38157
C     1.04776  -4.44596   0.00958
C     2.01777  -3.58136  -0.50940
C     1.75133  -2.21921  -0.63295
H     3.56885  -2.28031   2.14021
H     2.86239  -1.72493   3.68771
H     4.22381  -0.83205   2.94760
H     1.35459  -0.54849   2.33632
H     4.21524   3.03664  -1.80730
H     2.68632   3.56835  -2.58756
H     3.36653   4.51123  -1.20960
H     2.42161   2.22851   2.23778
H     0.83575   2.61118   2.95429
H     1.45892   3.56115   1.56927
H    -0.65997   3.85837   0.60447
H    -0.08340   3.02830  -0.87079
H    -1.79969   2.98891  -0.43224
H    -3.88668  -1.25774   3.32565
H    -2.28650  -2.08685   3.40697
H    -2.48788  -0.45595   4.13346
H    -1.89941  -1.27825  -1.63936
H    -4.08918  -1.33873  -2.70976
H    -5.87647   0.27966  -2.04407
H    -5.40273   1.94501  -0.23828
H    -3.19962   1.99626   0.85507
H     0.77298   0.12699  -4.45634
H     0.30401  -1.60818  -4.60248
H    -0.95400  -0.34949  -4.30947
H    -1.44685  -2.21474   0.53815
H    -0.97237  -4.58632   0.76950
H     1.25455  -5.51387   0.10985
H     2.98769  -3.96936  -0.82891
H     2.51149  -1.57271  -1.06760
