38
Generated by autodE on: 2022-06-09. E = -996.921219 Ha
C     0.61061   3.80067  -0.74189
O     0.45790   2.37476  -0.79781
C     0.95616   1.67653   0.22279
O     1.62768   2.16436   1.11061
C     0.63507   0.21106   0.13598
C    -0.64213  -0.21096  -0.06256
C    -0.94615  -1.67126  -0.24575
O    -1.81010  -2.25977   0.37418
O    -0.19339  -2.23901  -1.18823
C    -0.33172  -3.65699  -1.35958
C    -1.83484   0.66692  -0.04425
C    -2.85955   0.47896  -0.98978
C    -3.97932   1.31099  -0.99668
C    -4.10032   2.33505  -0.05124
C    -3.09717   2.51739   0.90604
C    -1.97549   1.68749   0.91337
C     1.79325  -0.68587   0.35576
C     1.69428  -1.81630   1.18684
C     2.78909  -2.66289   1.36561
C     4.00175  -2.38891   0.72510
C     4.11650  -1.25654  -0.08843
C     3.02397  -0.40751  -0.26623
H     0.08063   4.20088   0.13513
H     0.16348   4.18791  -1.66432
H     1.67358   4.07452  -0.68663
H    -0.03047  -4.17780  -0.43857
H     0.33727  -3.92749  -2.18423
H    -1.37027  -3.91764  -1.60739
H    -2.76943  -0.31371  -1.73640
H    -4.76129   1.16010  -1.74435
H    -4.97939   2.98361  -0.05489
H    -3.19273   3.30331   1.65869
H    -1.21122   1.81907   1.68172
H     0.75975  -2.02322   1.71197
H     2.69702  -3.53510   2.01679
H     4.85875  -3.05140   0.86666
H     5.06197  -1.03401  -0.58831
H     3.11945   0.47051  -0.90943
