26
Generated by autodE on: 2022-06-09. E = -664.772810 Ha
C     3.21778   1.33285   0.80068
N     1.78952   1.19158   0.65801
N     1.32825   0.03673   0.42766
C     2.21166  -1.15448   0.41549
C    -0.01853  -0.11856   0.08028
C    -0.71902  -1.26333   0.69031
O    -0.18361  -1.96032   1.57807
N    -1.97507  -1.52881   0.26395
C    -2.78046  -2.54306   0.90654
C    -0.66338   0.82226  -0.81060
O    -1.85597   0.75792  -1.13429
O     0.13848   1.75442  -1.36360
C    -0.46010   2.61682  -2.33309
H     3.75457   1.02354  -0.11347
H     3.43144   2.39032   0.99358
H     3.61256   0.73009   1.63582
H     1.63578  -2.03283   0.12982
H     2.66148  -1.29498   1.40590
H     3.00319  -0.96466  -0.32231
H    -2.39036  -0.85622  -0.37913
H    -3.75862  -2.58578   0.41079
H    -2.94015  -2.33053   1.97800
H    -2.30961  -3.53638   0.83465
H     0.33574   3.29679  -2.66104
H    -1.28599   3.19370  -1.89098
H    -0.84187   2.04449  -3.19200
