64
Generated by autodE on: 2022-06-09. E = -1661.661581 Ha. Imaginary frequency = -342.0 cm-1
C     4.52855  -1.37597  -0.54764
N     3.59842  -0.27749  -0.69797
C     2.95406   0.22375   0.37243
O     3.27000  -0.10873   1.52498
C     1.79600   1.13334   0.08597
C     1.70519   1.83428  -1.21801
O     2.25695   1.44558  -2.24017
O     1.05980   3.00223  -1.17620
C     0.94037   3.71463  -2.41535
N     0.99347   1.55090   1.10928
C     1.46131   1.85102   2.47299
N    -0.27017   1.69890   0.77220
C    -1.06658   2.59482   1.58848
C    -1.06083   0.11935   0.13743
C    -1.82434  -0.43792   1.35606
O    -2.11178   0.16330   2.36704
O    -2.21914  -1.69264   1.13173
C    -2.92944  -2.34634   2.19337
C    -2.10680   0.67924  -0.83288
C    -2.07186   1.98839  -1.33396
C    -3.03629   2.43270  -2.23962
C    -4.05870   1.57948  -2.66515
C    -4.10110   0.27273  -2.17415
C    -3.13650  -0.17224  -1.26635
C    -0.00307  -0.74339  -0.33897
C     0.39165  -0.80684  -1.75757
O     1.26721  -1.53584  -2.21269
O    -0.27984   0.03156  -2.56280
C     0.02410  -0.00117  -3.95692
C     0.56898  -1.76824   0.57205
C     0.69686  -1.51543   1.95391
C     1.18985  -2.47515   2.83804
C     1.58111  -3.73031   2.36950
C     1.45469  -4.00936   1.00440
C     0.95510  -3.05129   0.12257
H     5.37121  -1.09960   0.10428
H     4.92092  -1.64322  -1.53665
H     4.03762  -2.26113  -0.10822
H     3.23340  -0.04053  -1.61810
H     1.93244   3.98235  -2.80606
H     0.40399   3.10656  -3.15768
H     0.36725   4.61953  -2.18343
H     0.86983   1.30522   3.21875
H     2.51017   1.56760   2.54883
H     1.34735   2.93183   2.64060
H    -0.69503   3.61860   1.40926
H    -2.10456   2.54305   1.24779
H    -1.04221   2.38534   2.66534
H    -3.16329  -3.35038   1.82199
H    -2.29095  -2.40849   3.08668
H    -3.85277  -1.80127   2.43482
H    -1.26171   2.65023  -1.04393
H    -2.97911   3.45482  -2.62193
H    -4.81118   1.92879  -3.37606
H    -4.88643  -0.41302  -2.50109
H    -3.17514  -1.20083  -0.91020
H     1.07371   0.26563  -4.13673
H    -0.17816  -0.99860  -4.37451
H    -0.63796   0.74033  -4.42081
H     0.41358  -0.55125   2.36324
H     1.27588  -2.22925   3.89906
H     1.97311  -4.48364   3.05669
H     1.73664  -4.99238   0.61879
H     0.85093  -3.30763  -0.92790
