24
Generated by autodE on: 2022-07-27. E = -758.647662 Ha
C    -0.09350  -3.12410  -1.43620
N     0.34271  -2.19865  -0.40873
C     0.42005  -0.88641  -0.64578
O     0.13085  -0.33999  -1.71353
C     0.97804  -0.04558   0.46918
O     0.73738   1.21348   0.57485
N    -0.22976   1.95591   0.00143
C    -1.41983   1.27860  -0.15689
O    -1.74337   0.21711   0.36205
O    -2.24607   2.03917  -0.88405
C    -3.58432   1.55020  -1.04011
C     2.07682  -0.49029   1.39447
C     2.80758   0.56576   2.16312
O     2.30072  -1.68569   1.51060
H    -0.34717  -4.08245  -0.96744
H     0.69304  -3.29172  -2.19066
H    -0.97939  -2.72267  -1.94744
H     0.79689  -2.54797   0.43454
H    -4.09073   2.26595  -1.69812
H    -4.09641   1.50403  -0.06770
H    -3.57870   0.55066  -1.49868
H     2.11413   1.06924   2.85569
H     3.62119   0.09510   2.72819
H     3.20311   1.33583   1.48302
