14
Generated by autodE on: 2022-10-21. E = -506.330268 Ha
C     1.92618  -1.20811  -0.40470
O     1.00623  -0.93486   0.66043
C    -0.08713  -0.18640   0.36444
O    -1.28466  -0.71493   0.71333
C    -1.58631  -1.96944   0.08457
C    -0.02873   1.03210  -0.18455
F    -1.08851   1.75056  -0.52459
F     1.10331   1.68267  -0.42650
H     2.56527  -2.03261  -0.06214
H     2.55331  -0.33047  -0.62415
H     1.38568  -1.51175  -1.31525
H    -2.56964  -2.28028   0.45966
H    -1.62664  -1.85044  -1.01081
H    -0.83661  -2.73224   0.34448
