38
Generated by autodE on: 2022-05-30. E = -1118.372495 Ha
C    -4.00857   0.97389  -0.01587
C    -2.56717   0.95719  -0.39433
O    -2.10184   1.57621  -1.32717
C    -1.57313   0.12789   0.48397
C    -2.28001  -0.79611   1.36459
N    -2.87278  -1.50618   2.06332
C    -0.66588   1.15330   1.29471
C    -1.41800   2.19275   1.99192
N    -2.02769   3.00520   2.54916
N     0.26647   1.69333   0.32912
C     0.67971   0.60661  -0.56094
C     0.69764   1.10542  -1.94605
N     0.77303   1.50214  -3.03205
C     2.07762   0.05565  -0.24572
C     2.72139   0.38510   0.95057
C     3.96717  -0.17240   1.24784
C     4.57755  -1.05449   0.35160
C     3.93970  -1.37397  -0.85050
C     2.69402  -0.81929  -1.15054
C    -0.46862  -0.57053  -0.39374
C    -0.99803  -1.00759  -1.67908
N    -1.40906  -1.38674  -2.69468
C     0.14600  -1.79448   0.39022
C     0.36052  -3.07131  -0.34969
O     0.38160  -1.65372   1.56855
H    -4.42649  -0.03675  -0.15763
H    -4.54388   1.69384  -0.64634
H    -4.12812   1.22619   1.04952
H    -0.13329   0.55872   2.05111
H    -0.19060   2.42514  -0.21413
H     2.24822   1.07366   1.64977
H     4.46237   0.08651   2.18630
H     5.55179  -1.48859   0.58724
H     4.41255  -2.05512  -1.56109
H     2.20193  -1.07187  -2.09239
H     0.96853  -3.74843   0.26210
H    -0.62893  -3.52652  -0.53129
H     0.82451  -2.90388  -1.33058
