18
Generated by autodE on: 2022-05-30. E = -568.618865 Ha
C    -3.04522   0.29419  -0.96026
C    -1.97213  -0.02142   0.03165
O    -2.19626  -0.38151   1.16890
C    -0.52047   0.12240  -0.42219
C    -0.32157   0.52768  -1.77992
N    -0.34879   0.85831  -2.89504
C     0.52046  -0.12296   0.42193
C     0.32156  -0.52779   1.77982
N     0.34861  -0.85836   2.89496
C     1.97216   0.02139  -0.03158
C     3.04528  -0.29391   0.96040
O     2.19636   0.38181  -1.16874
H    -4.02675   0.14704  -0.49451
H    -2.94231   1.33442  -1.30933
H    -2.94414  -0.35394  -1.84574
H     2.94400   0.35396   1.84603
H     4.02673  -0.14624   0.49466
H     2.94266  -1.33424   1.30928
