20
Generated by autodE on: 2022-07-26. E = -549.717969 Ha
N    -3.71690   1.79145   2.38787
C    -2.77202   1.31585   1.88664
C    -1.62621   0.74073   1.31959
N    -1.42775   0.80996  -0.00341
C    -0.44168   0.32619  -0.78392
C    -0.63404   0.48735  -2.17781
N    -0.76813   0.60937  -3.33181
C     0.75894  -0.36762  -0.30050
C     1.39215  -0.03295   0.91448
C     2.55221  -0.69831   1.31313
C     3.10393  -1.70476   0.51511
C     2.49257  -2.03403  -0.69969
C     1.33602  -1.37208  -1.10644
H    -0.92068   0.20735   1.95126
H    -2.16774   1.29752  -0.51889
H     1.00643   0.77229   1.53918
H     3.03164  -0.42041   2.25449
H     4.00855  -2.22658   0.83504
H     2.91762  -2.81497  -1.33421
H     0.86501  -1.63783  -2.05525
