38
Generated by autodE on: 2022-05-30. E = -1118.352215 Ha. Imaginary frequency = -348.1 cm-1
C    -4.13977   0.89715   0.23823
C    -2.77850   0.74941  -0.36003
O    -2.44087   1.27994  -1.40291
C    -1.73615  -0.08654   0.38434
C    -2.13182  -0.54602   1.69516
N    -2.53271  -0.83449   2.74687
C    -0.47637   1.43265   0.95659
C    -1.26790   2.48602   1.51720
N    -1.95356   3.29939   1.98489
N     0.16527   1.69664  -0.23239
C     1.06990   0.87188  -0.80055
C     1.09174   0.91338  -2.22959
N     1.08460   0.91901  -3.39196
C     2.16688   0.19500  -0.11363
C     2.54526   0.52100   1.20603
C     3.61611  -0.13336   1.80764
C     4.32389  -1.12026   1.11327
C     3.96970  -1.43590  -0.20297
C     2.90795  -0.78039  -0.81652
C    -0.93171  -0.97760  -0.41747
C    -1.15717  -1.12254  -1.81054
N    -1.28921  -1.31013  -2.95466
C    -0.01318  -1.92444   0.24406
C     0.56461  -3.04614  -0.57094
O     0.26315  -1.77463   1.43365
H    -4.58871  -0.09652   0.39753
H    -4.76951   1.50277  -0.42447
H    -4.06416   1.37615   1.22753
H     0.07353   0.84459   1.69092
H    -0.37484   2.27253  -0.88535
H     2.03559   1.30998   1.75762
H     3.90317   0.13425   2.82628
H     5.15791  -1.63548   1.59430
H     4.52525  -2.19586  -0.75552
H     2.64047  -1.03157  -1.84365
H     1.35979  -3.54269  -0.00208
H     0.95396  -2.69088  -1.53464
H    -0.23700  -3.77051  -0.79532
