29
Generated by autodE on: 2022-07-02. E = -633.710929 Ha
C     3.79743  -0.21426  -0.37973
N     2.42220   0.15584  -0.12252
C     1.53577  -0.74231   0.33386
O     1.85139  -1.91090   0.62147
C     0.12419  -0.30111   0.53272
C    -0.64786   0.67542  -0.03522
C    -0.30374   1.70080  -1.03923
C    -1.43669   2.28012  -1.84070
O     0.84894   2.10566  -1.21520
C    -2.08465   0.40228   0.40750
C    -2.52948  -0.89193  -0.34863
C    -1.63863  -1.98804   0.29525
C    -0.80224  -1.18354   1.34626
C    -1.84131  -0.15342   1.82181
H     4.25847  -0.65697   0.51665
H     3.87838  -0.95391  -1.19463
H     4.36241   0.68298  -0.66185
H     2.05128   1.05274  -0.45590
H    -1.03749   2.91123  -2.64485
H    -2.07623   2.89091  -1.18209
H    -2.07370   1.48438  -2.25640
H    -2.77696   1.24534   0.30944
H    -2.38558  -0.79844  -1.43403
H    -3.59732  -1.08032  -0.16424
H    -2.24207  -2.74924   0.81115
H    -0.98644  -2.50215  -0.42410
H    -0.30070  -1.80643   2.09424
H    -2.73610  -0.61419   2.26642
H    -1.42357   0.59397   2.51249
