25
Generated by autodE on: 2022-10-07. E = -681.602924 Ha
C     4.90489   1.38287   0.20476
N     3.46066   1.30942   0.22122
C     2.76486   0.18462  -0.02269
O     3.26975  -0.91782  -0.29466
N     1.37654   0.38669   0.06069
N     0.76646  -0.73545  -0.18513
C    -0.53888  -0.98898  -0.21284
C    -0.84758  -2.34806  -0.52229
N    -1.10227  -3.45587  -0.77502
C    -1.62401  -0.03927   0.03204
C    -2.95653  -0.51015  -0.01913
C    -4.02514   0.35275   0.20244
C    -3.79382   1.70542   0.47936
C    -2.48164   2.18244   0.53268
C    -1.40147   1.32652   0.31356
H     5.30060   1.66637   1.19328
H     5.25449   2.12394  -0.53139
H     5.30917   0.40064  -0.06621
H     2.92440   2.14404   0.43691
H     1.41862  -1.52458  -0.38483
H    -3.15454  -1.56194  -0.23340
H    -5.04601  -0.03283   0.15856
H    -4.63350   2.38223   0.65244
H    -2.29123   3.23636   0.74790
H    -0.38389   1.70362   0.35732
