25
Generated by autodE on: 2022-10-13. E = -681.604825 Ha
C    -5.09595   1.36573  -0.44062
N    -3.94300   0.61328  -0.88722
C    -2.74742   0.71961  -0.28162
O    -2.52822   1.47621   0.68157
N    -1.76931  -0.10796  -0.84622
N    -0.64674   0.05295  -0.20534
C     0.50645  -0.54423  -0.46449
C     0.53421  -1.41972  -1.58769
N     0.58347  -2.14130  -2.49985
C     1.70638  -0.32236   0.34890
C     1.64458   0.31410   1.60570
C     2.80737   0.52814   2.34299
C     4.04792   0.10334   1.85337
C     4.11595  -0.54284   0.61574
C     2.95817  -0.75539  -0.13164
H    -4.88119   2.44565  -0.42380
H    -5.92759   1.18367  -1.13191
H    -5.40982   1.06765   0.57367
H    -4.03246  -0.05194  -1.64798
H    -0.69964   0.73519   0.57928
H     0.68932   0.62854   2.03090
H     2.74135   1.02170   3.31500
H     4.95524   0.26995   2.43798
H     5.07749  -0.88301   0.22525
H     3.02548  -1.25441  -1.10037
