47
Generated by autodE on: 2022-06-21. E = -1073.963081 Ha
C    -2.43374   3.45557   1.84103
N    -1.66311   2.34472   1.32592
C    -2.06602   1.55295   0.32224
O    -3.14397   1.68531  -0.27069
C    -1.08655   0.41254  -0.03946
C    -1.69676  -0.89885   0.49837
C    -3.03433  -1.23861   0.23036
C    -3.57817  -2.43540   0.69989
C    -2.80034  -3.32017   1.45339
C    -1.47385  -2.98923   1.73506
C    -0.92879  -1.79021   1.26365
N     0.20650   0.64383   0.61030
C     1.17459   0.36927  -0.18445
C     2.59041   0.45890   0.21603
C     2.93683   0.87571   1.51619
C     4.27287   0.95638   1.90006
C     5.28706   0.61886   0.99413
C     4.95497   0.20153  -0.29705
C     3.61576   0.12327  -0.68663
C     0.74416  -0.07237  -1.57376
C     0.93080  -1.55979  -1.78635
O     1.51885  -2.02379  -2.74145
C    -0.74981   0.39483  -1.60062
C    -0.74989   1.82509  -2.16704
C    -1.64077  -0.48890  -2.47069
H    -2.68441   3.30376   2.90283
H    -3.36415   3.54054   1.26713
H    -1.87263   4.39870   1.75009
H    -0.74950   2.13045   1.71822
H    -3.65586  -0.55517  -0.34400
H    -4.61972  -2.67651   0.47379
H    -3.22694  -4.25669   1.82028
H    -0.85222  -3.66450   2.32799
H     0.10774  -1.55300   1.49830
H     2.14430   1.13381   2.21933
H     4.52887   1.28188   2.91092
H     6.33477   0.68122   1.29736
H     5.74104  -0.06412  -1.00722
H     3.37527  -0.20599  -1.69787
H     1.32275   0.43009  -2.36062
H     0.48873  -2.22681  -1.01232
H    -1.76838   2.22894  -2.21891
H    -0.33043   1.81697  -3.18396
H    -0.13835   2.50394  -1.55356
H    -1.26239  -0.48375  -3.50488
H    -1.67440  -1.53184  -2.12838
H    -2.66963  -0.10319  -2.48411
