14
Generated by autodE on: 2022-06-21. E = -270.683224 Ha
C    -1.12645   1.08934  -0.26399
C    -0.77536  -0.36737  -0.16259
C    -1.89423  -1.33303  -0.39418
C     0.47716  -0.81926   0.12035
C     1.64780   0.01021   0.36406
O     1.69564   1.23813   0.34593
H    -0.87624   1.62212   0.66682
H    -0.54070   1.57931  -1.05825
H    -2.19581   1.22590  -0.47748
H    -2.70799  -1.14466   0.32819
H    -2.33278  -1.16546  -1.39374
H    -1.57488  -2.38102  -0.31171
H     0.64901  -1.89817   0.17680
H     2.57671  -0.56922   0.58629
