47
Generated by autodE on: 2022-06-21. E = -1073.884427 Ha. Imaginary frequency = -338.4 cm-1
C    -2.27089   4.01647   0.48174
N    -1.54705   2.78023   0.69222
C    -2.13414   1.57724   0.48591
O    -3.35243   1.49593   0.24416
C    -1.24035   0.39583   0.50846
C    -1.68765  -0.96868   0.84077
C    -3.05186  -1.32044   0.93790
C    -3.43561  -2.63985   1.18181
C    -2.47948  -3.64746   1.33915
C    -1.12382  -3.31212   1.26025
C    -0.73226  -1.99566   1.02044
N     0.07591   0.64667   0.67448
C     1.13686   0.53411   0.09975
C     2.54693   0.54472   0.38900
C     2.99376   0.08354   1.64663
C     4.35704   0.05248   1.92696
C     5.28029   0.48917   0.96876
C     4.84053   0.95004  -0.27677
C     3.47951   0.96769  -0.57670
C     0.45825   0.04434  -1.97635
C     1.07530  -1.27259  -1.99657
O     2.25651  -1.48543  -2.26776
C    -0.93120   0.25115  -1.99985
C    -1.40604   1.61702  -2.42147
C    -1.93385  -0.85294  -2.18994
H    -1.64729   4.85445   0.81790
H    -3.20888   4.02312   1.05651
H    -2.52390   4.17088  -0.58130
H    -0.54295   2.82091   0.82351
H    -3.80566  -0.54872   0.80789
H    -4.49970  -2.88085   1.24732
H    -2.78535  -4.67906   1.52769
H    -0.35925  -4.08182   1.39124
H     0.33286  -1.76911   0.97780
H     2.26303  -0.24829   2.38614
H     4.70294  -0.30768   2.89815
H     6.34888   0.46786   1.19444
H     5.56335   1.29016  -1.02106
H     3.13398   1.31144  -1.55139
H     1.09682   0.85832  -2.33274
H     0.41391  -2.12685  -1.73067
H    -2.43593   1.81067  -2.09217
H    -0.75242   2.41438  -2.04021
H    -1.40388   1.68152  -3.52565
H    -2.10105  -1.00584  -3.27245
H    -1.62811  -1.81353  -1.75928
H    -2.90375  -0.57520  -1.75268
