8
Generated by autodE on: 2022-05-29. E = -208.998851 Ha
C    -2.59025   0.25366  -0.12599
C    -1.15288   0.11246  -0.05635
C     0.05884  -0.00622   0.00293
C     1.42101  -0.13915   0.06917
N     2.58266  -0.25221   0.12574
H    -2.88727   1.28950   0.10501
H    -3.07915  -0.41901   0.59720
H    -2.95369   0.00365  -1.13591
