36
Generated by autodE on: 2022-05-29. E = -821.584117 Ha. Imaginary frequency = -312.4 cm-1
C     1.45365   2.58192  -2.60727
N     1.79051   1.36488  -1.89794
C     1.48772   1.21560  -0.58496
O     0.98366   2.13342   0.08261
C     1.88320  -0.07456   0.00071
C     0.36454  -1.92709  -0.97686
C     0.94622  -1.76066  -2.19541
N     1.44255  -1.58155  -3.24729
C    -0.31182  -2.22451   0.03444
C    -1.29717  -3.06072   0.73304
C     0.10867  -0.66113   1.53637
C    -1.05016   0.20365   1.23201
C    -1.91176   0.47141   2.31703
C    -3.08783   1.20462   2.15086
C    -3.44442   1.67601   0.88480
C    -2.61536   1.39816  -0.20765
C    -1.43561   0.67437  -0.04155
N     1.42054  -0.54524   1.17678
C     2.30415  -1.53760   1.81985
H     1.89470   3.45862  -2.10924
H     1.85072   2.52134  -3.62840
H     0.36302   2.74104  -2.66188
H     2.02591   0.53604  -2.43910
H     2.86129  -0.45461  -0.29669
H    -1.71424  -3.83010   0.06423
H    -0.83357  -3.55666   1.60099
H    -2.12138  -2.44032   1.11991
H     0.01043  -1.14779   2.50802
H    -1.64479   0.09899   3.30908
H    -3.72765   1.40380   3.01381
H    -4.36547   2.24708   0.74653
H    -2.89146   1.74587  -1.20602
H    -0.83948   0.44372  -0.92010
H     1.98725  -1.69263   2.85677
H     3.33531  -1.16746   1.80435
H     2.24469  -2.49016   1.27206
