40
Generated by autodE on: 2022-05-29. E = -861.990706 Ha
C     0.78123  -3.39000  -0.36918
C     0.75399  -2.21187   0.60511
N    -0.59293  -1.67469   0.82213
C    -0.87555  -0.70875  -0.22810
C    -2.07276   0.17523   0.03831
C    -2.54863   0.40812   1.33534
C    -3.62483   1.27435   1.55100
C    -4.23490   1.92263   0.47299
C    -3.76770   1.69222  -0.82551
C    -2.69805   0.82010  -1.04012
C     0.47351   0.08605  -0.36701
C     0.62061   0.49752  -1.75765
N     0.70942   0.82742  -2.86735
C     0.68175   1.27989   0.61769
C     2.00456   1.99606   0.27036
C     3.09132   0.98497   0.74281
C     2.25878  -0.18327   1.30921
C     1.06562   0.56592   1.92518
C     1.57865  -0.96340   0.13662
C     2.54576  -1.32119  -0.89347
N     3.32837  -1.59214  -1.70706
H     0.11652  -4.18277   0.00786
H     1.79168  -3.81469  -0.46108
H     0.43684  -3.09784  -1.37334
H     1.17108  -2.54670   1.56777
H    -1.28609  -2.42184   0.80984
H    -1.03998  -1.19788  -1.20653
H    -2.07105  -0.09593   2.17562
H    -3.98750   1.44405   2.56784
H    -5.07478   2.60070   0.64248
H    -4.24286   2.18839  -1.67524
H    -2.34071   0.63632  -2.05654
H    -0.19327   1.93873   0.64948
H     2.08703   2.24826  -0.79593
H     2.06364   2.93766   0.83424
H     3.71132   1.41063   1.54441
H     3.76911   0.67481  -0.06447
H     2.81381  -0.86272   1.96804
H     0.28506  -0.08854   2.32198
H     1.38627   1.27839   2.69941
