21
Generated by autodE on: 2022-07-26. E = -404.477881 Ha
C     2.65932  -2.64169  -1.43413
C     2.31516  -2.33966  -0.02619
N     1.40074  -1.42529   0.26678
C     0.65551  -0.64669  -0.55733
C    -0.30117   0.30712  -0.08307
C    -0.58294   0.55840   1.28990
C    -1.53160   1.50461   1.67300
C    -2.24407   2.24534   0.72051
C    -1.98147   2.01448  -0.63799
C    -1.03688   1.07228  -1.03259
H     1.77552  -2.98890  -2.00727
H     3.43372  -3.41855  -1.49034
H     3.02857  -1.74231  -1.96788
H     2.78163  -2.83955   0.82147
H     1.23872  -1.29383   1.26644
H     0.81294  -0.77558  -1.62648
H    -0.05537   0.00961   2.07501
H    -1.71782   1.66672   2.73852
H    -2.98585   2.98506   1.02923
H    -2.52363   2.57964  -1.40154
H    -0.84790   0.90784  -2.09718
