40
Generated by autodE on: 2022-05-29. E = -861.930087 Ha. Imaginary frequency = -77.3 cm-1
C     0.55518  -3.34894  -0.79899
C     0.34137  -2.69426   0.51812
N    -0.65602  -1.82635   0.70742
C    -1.25724  -1.05768  -0.22402
C    -2.23008  -0.03712   0.09224
C    -2.59839   0.33080   1.40726
C    -3.49834   1.37241   1.63099
C    -4.05743   2.07716   0.55867
C    -3.70699   1.72006  -0.74980
C    -2.81221   0.67836  -0.98151
C     0.92841   0.26443  -0.51128
C     0.64827   0.33378  -1.89511
N     0.39497   0.41441  -3.03298
C     0.73904   1.46039   0.42100
C     2.03840   2.31105   0.26737
C     3.12649   1.40982   0.92513
C     2.31618   0.15352   1.37500
C     0.99043   0.80983   1.79352
C     1.90528  -0.54779   0.07648
C     2.80438  -1.38179  -0.62344
N     3.57649  -2.05904  -1.18112
H    -0.28570  -4.03598  -1.01890
H     1.48091  -3.93736  -0.78856
H     0.61124  -2.63400  -1.63328
H     0.73135  -3.14716   1.43021
H    -0.82614  -1.57924   1.68188
H    -1.16534  -1.38659  -1.25522
H    -2.18646  -0.19760   2.27059
H    -3.76678   1.63588   2.65706
H    -4.76082   2.89278   0.74016
H    -4.13766   2.25885  -1.59754
H    -2.53773   0.41066  -2.00442
H    -0.19882   2.00995   0.28210
H     2.24949   2.54153  -0.78667
H     1.92633   3.26395   0.80569
H     3.57477   1.89835   1.80313
H     3.94005   1.14267   0.23558
H     2.82240  -0.48585   2.10775
H     0.22078   0.10012   2.10850
H     1.12680   1.55782   2.58801
