20
Generated by autodE on: 2022-05-30. E = -603.163302 Ha
C    -4.18524  -0.32282  -0.04129
N    -2.89333   0.33635  -0.03274
C    -1.73035  -0.33036  -0.01426
O    -1.61205  -1.56055  -0.00562
C    -0.48749   0.50446  -0.00333
C    -0.45759   1.92021  -0.00489
N    -0.47441   3.08448  -0.00620
N     0.63929  -0.17894   0.00799
N     1.84662   0.28680   0.01799
C     2.77788  -0.76398   0.02613
C     4.19887  -0.29786   0.03227
O     2.44034  -1.94491   0.02514
H    -4.76654  -0.04925   0.85257
H    -4.03198  -1.40765  -0.04929
H    -4.76039  -0.03471  -0.93431
H    -2.88058   1.35273  -0.03635
H     0.51726  -1.21822   0.00833
H     4.88169  -1.15522   0.06619
H     4.39281   0.30287  -0.87098
H     4.37096   0.36063   0.89829
