20
Generated by autodE on: 2022-07-26. E = -603.160971 Ha
C     2.70275   1.78309  -1.22847
N     1.57166   1.03113  -0.72267
C     0.80214   1.52203   0.25662
O     0.97229   2.62081   0.79895
C    -0.34023   0.66956   0.71537
C    -1.15292   1.19952   1.75626
N    -1.82001   1.62852   2.60716
N    -0.66112  -0.52270   0.24609
N    -0.05521  -1.18441  -0.69688
C    -0.68615  -2.41704  -0.92008
C    -0.04294  -3.23311  -1.99435
O    -1.67290  -2.76705  -0.27868
H     2.38258   2.75667  -1.63164
H     3.18118   1.20533  -2.02793
H     3.44064   1.97320  -0.43299
H     1.33607   0.10754  -1.09335
H    -1.48679  -1.01465   0.65657
H    -0.57765  -4.18173  -2.12272
H    -0.04391  -2.66664  -2.93920
H     1.01021  -3.42383  -1.73331
