41
Generated by autodE on: 2022-05-29. E = -1048.645184 Ha
C    -2.63876  -3.03204  -0.41226
N    -1.76117  -1.96887   0.03369
C    -1.73722  -0.76400  -0.54523
O    -2.51250  -0.39519  -1.43363
C    -0.60044   0.16976  -0.09882
C    -1.15570   1.61523  -0.11735
O    -0.63320   2.55348  -0.68110
O    -2.25178   1.72545   0.62814
C    -2.80836   3.04114   0.77945
C     0.58878   0.06008  -1.09163
C     0.76115  -1.32133  -1.80363
C     1.91685  -1.14422  -2.77901
C     3.01828  -1.12151  -2.01912
C     2.52012  -1.28242  -0.58867
O     1.36215  -2.11432  -0.76698
C     1.87550   0.08974  -0.21211
C     1.37537   0.22167   1.25346
C     2.18371  -0.57860   2.28172
C     1.46067   1.66224   1.63961
N     1.47190   2.77724   1.96321
N    -0.02837  -0.19583   1.19794
C    -0.81462  -0.02094   2.41172
H    -2.74304  -3.77709   0.38704
H    -3.62942  -2.62228  -0.65142
H    -2.24523  -3.53269  -1.31349
H    -0.98734  -2.17761   0.65983
H    -3.67518   2.92767   1.44001
H    -3.12059   3.43680  -0.19739
H    -2.06747   3.71578   1.23137
H     0.53443   0.87368  -1.81865
H    -0.14914  -1.78758  -2.19270
H     1.81393  -0.97301  -3.85066
H     4.05128  -0.92586  -2.30737
H     3.21386  -1.71091   0.13977
H     2.55416   0.91416  -0.45505
H     2.04364  -1.65266   2.10294
H     1.86231  -0.34535   3.30572
H     3.25094  -0.33111   2.19303
H    -0.86041   1.02863   2.75676
H    -0.38330  -0.63194   3.21681
H    -1.84042  -0.36671   2.24136
