13
Generated by autodE on: 2022-05-29. E = -307.512029 Ha
C     1.35449  -0.61827   0.24018
C     1.20227   0.64723   0.64066
C    -0.14710   1.09648   0.02967
C    -1.26584   0.31284   0.75787
C    -1.11356  -0.95253   0.35698
C     0.09567  -0.91925  -0.60872
O    -0.10834   0.37287  -1.21851
H     2.13502  -1.33843   0.48430
H     1.82362   1.24899   1.30346
H    -0.29984   2.17101  -0.12066
H    -1.95999   0.73630   1.48338
H    -1.64883  -1.85092   0.66341
H     0.16895  -1.72008  -1.35294
