28
Generated by autodE on: 2022-07-26. E = -741.030716 Ha
C    -1.23125  -3.59317  -1.45465
N    -0.56604  -2.43726  -0.89105
C    -1.24945  -1.29425  -0.60665
O    -2.45667  -1.19592  -0.88311
C    -0.46962  -0.21445   0.01813
C    -0.90367   1.16190  -0.09876
O    -1.76920   1.57304  -0.86386
O    -0.28507   2.00034   0.77501
C    -0.54229   3.39497   0.61474
N     0.66202  -0.54292   0.77113
C     0.56271  -1.60357   1.79656
C     1.80064   0.13102   0.69286
C     2.88934   0.01295   1.70650
C     1.98435   1.01832  -0.40608
N     2.22167   1.72387  -1.30196
H    -1.55432  -3.41988  -2.49569
H    -0.53873  -4.44453  -1.44125
H    -2.12465  -3.85381  -0.86705
H     0.44425  -2.45510  -0.81572
H    -0.26267   3.72975  -0.39551
H     0.07876   3.90555   1.36098
H    -1.60348   3.62544   0.79098
H     0.68549  -1.13625   2.78373
H    -0.42713  -2.06064   1.74059
H     1.34745  -2.35658   1.65162
H     3.27628  -1.01802   1.74659
H     3.71481   0.68906   1.45574
H     2.51009   0.26731   2.71051
