41
Generated by autodE on: 2022-05-29. E = -1048.538151 Ha. Imaginary frequency = -256.2 cm-1
C    -2.49073  -3.01008  -1.01097
N    -1.65379  -2.05812  -0.30958
C    -1.93721  -0.73572  -0.34877
O    -2.96955  -0.31558  -0.89967
C    -0.96521   0.21756   0.25506
C    -1.31705   1.63700  -0.02761
O    -1.44673   2.12862  -1.13274
O    -1.55095   2.32743   1.10329
C    -1.80474   3.73011   0.95812
C     1.02414   0.09421  -1.33212
C     0.87924  -1.35063  -1.84273
C     2.15409  -1.69880  -2.63959
C     3.12918  -1.77777  -1.72741
C     2.44162  -1.46083  -0.38204
O     1.15010  -2.06652  -0.61406
C     2.06373   0.03155  -0.43206
C     0.96424   0.57114   1.62991
C     1.85844   0.14802   2.76183
C     1.15317   1.92028   1.20313
N     1.42199   3.01370   0.90058
N    -0.19954  -0.08328   1.36324
C    -0.47563  -1.26895   2.19797
H    -2.47904  -2.84414  -2.10254
H    -2.12382  -4.02374  -0.80453
H    -3.53450  -2.93608  -0.67178
H    -0.69334  -2.32837  -0.10455
H    -0.96410   4.21994   0.44632
H    -1.90973   4.12565   1.97514
H    -2.73026   3.89690   0.38841
H     0.66737   0.96760  -1.87283
H    -0.07553  -1.64456  -2.28806
H     2.20605  -1.79405  -3.72383
H     4.19641  -1.95211  -1.86202
H     2.91004  -1.83725   0.53352
H     2.77771   0.81854  -0.20276
H     2.08413  -0.92587   2.71503
H     1.40630   0.36847   3.74447
H     2.80353   0.70259   2.69455
H    -0.31656  -0.99865   3.24767
H     0.18468  -2.10702   1.93889
H    -1.51815  -1.56321   2.07291
