17
Generated by autodE on: 2022-10-26. E = -397.474989 Ha
C    -2.55699   1.28557  -0.16415
N    -1.28846   0.65135   0.11338
C    -0.48536   0.21778  -0.88221
O    -0.78743   0.33921  -2.08912
C     0.78047  -0.41478  -0.51278
N     1.23174  -0.60152   0.72925
C     2.54953  -1.26189   0.87897
N     0.59880  -0.24193   1.80786
H    -2.43129   2.20508  -0.76018
H    -3.04069   1.54892   0.78506
H    -3.23067   0.61826  -0.72733
H    -0.93937   0.50552   1.06712
H     1.41338  -0.76384  -1.32338
H     2.41032  -2.16020   1.49474
H     2.95446  -1.53038  -0.10125
H     3.22340  -0.56362   1.39286
H     1.17887  -0.50939   2.60657
