17
Generated by autodE on: 2022-10-21. E = -397.467315 Ha
C    -3.20863   0.07736   0.44691
N    -1.89623  -0.52645   0.47359
C    -0.76458   0.11598   0.06164
O    -0.80018   1.28025  -0.38327
C     0.43513  -0.69519   0.19876
N     1.68222  -0.31844  -0.12197
C     1.95406   1.02908  -0.67047
N     2.74700  -1.04392   0.00211
H    -3.63949   0.15395   1.45919
H    -3.90708  -0.50338  -0.17794
H    -3.12282   1.08695   0.02819
H    -1.81145  -1.47140   0.83184
H     0.35603  -1.70910   0.59473
H     1.39430   1.16569  -1.60112
H     3.03208   1.07984  -0.84521
H     1.63265   1.78861   0.04938
H     2.44309  -1.94802   0.39024
