24
Generated by autodE on: 2022-10-21. E = -886.360746 Ha
C     0.96418  -3.04066  -0.09794
O    -0.15832  -2.25504  -0.48437
C    -0.00798  -0.89331  -0.42922
Cl    1.19765  -0.36505  -1.83739
C     0.55017  -0.33437   0.79648
C     0.60532   0.51462   1.66353
C     0.28845   1.68970   2.45890
C    -0.57992   2.61406   1.56697
C    -1.73309   1.92283   0.80710
C    -1.42794   1.30383  -0.58838
C    -1.35911  -0.22810  -0.72103
H     1.28588  -2.79301   0.92749
H     1.80526  -2.88000  -0.79113
H     0.64474  -4.08956  -0.14045
H     1.18758   2.21966   2.81107
H    -0.27694   1.38349   3.35567
H    -0.99381   3.39970   2.21919
H     0.07588   3.12226   0.84051
H    -2.50358   2.69381   0.65078
H    -2.20464   1.16653   1.45895
H    -0.50651   1.74260  -1.00492
H    -2.23423   1.62195  -1.26669
H    -2.07367  -0.70012  -0.02595
H    -1.64628  -0.53748  -1.73718
