41
Generated by autodE on: 2022-10-21. E = -1283.834336 Ha. Imaginary frequency = -253.6 cm-1
C    -1.51809   3.78801  -0.72886
N    -0.30617   3.02383  -0.53310
C     0.36764   2.49900  -1.57635
O     0.07111   2.73745  -2.76395
C     1.52008   1.61971  -1.29564
C    -0.00830  -0.23199  -1.11482
C    -0.09833  -0.29709   0.12093
N     1.20237   1.32078   0.94519
N     2.01296   1.31925  -0.08580
C     3.22677   0.49269  -0.02962
C    -0.58143  -0.95298   1.32390
Cl    1.00950  -1.92041   2.03834
O    -0.94382  -0.03686   2.27315
C    -1.52166  -0.50614   3.48857
C    -1.61345  -2.04761   1.04666
C    -1.32254  -3.00261  -0.12099
C    -1.80668  -2.59113  -1.53565
C    -0.73947  -2.13576  -2.54534
C    -0.35038  -0.64896  -2.48036
H    -2.35144   3.15912  -1.09051
H    -1.36128   4.58959  -1.46563
H    -1.81551   4.24209   0.22528
H    -0.07802   2.61064   0.37668
H     2.18206   1.44553  -2.14159
H     1.68639   0.88881   1.73735
H     2.92572  -0.56574  -0.01099
H     3.85764   0.69585  -0.90175
H     3.77478   0.73522   0.88999
H    -2.54214  -0.88954   3.33701
H    -0.89205  -1.29036   3.93745
H    -1.55905   0.35995   4.16196
H    -1.74684  -2.62993   1.96816
H    -2.56348  -1.51375   0.86666
H    -1.82022  -3.95027   0.13536
H    -0.24500  -3.23296  -0.13744
H    -2.59098  -1.81778  -1.45409
H    -2.30587  -3.46884  -1.97568
H    -1.10029  -2.33630  -3.56778
H     0.16712  -2.75081  -2.41133
H     0.47064  -0.44058  -3.18452
H    -1.19639  -0.02494  -2.82017
