55
Generated by autodE on: 2022-06-09. E = -2391.759404 Ha
C    -3.49835   1.22079  -2.31758
O    -2.35442   1.30559  -1.45181
C    -2.33913   0.49369  -0.40788
O    -3.26163  -0.22850  -0.09917
C    -1.05747   0.68858   0.46100
C    -1.51272   1.81132   1.49387
C    -0.52765   2.81691   2.01611
O    -2.68284   1.84902   1.80925
N     0.16360   1.00058  -0.24591
C     0.24556   2.17990  -1.08987
C     1.11771  -0.10814  -0.38376
C     1.60976  -0.43622  -1.83926
C     2.27072   0.62115  -2.67817
O     1.56733  -1.58787  -2.23067
C     2.46311   0.16777   0.33095
C     2.65613   1.34784   1.05610
C     3.88828   1.63174   1.65007
C     4.95639   0.74140   1.51525
C     4.78348  -0.42744   0.76855
C     3.55203  -0.70690   0.17281
C     0.29033  -1.33589   0.19241
Cl    1.26236  -2.58704   1.02773
C    -0.51038  -1.99849  -0.96383
O    -1.20400  -1.32170  -1.69568
O    -0.38662  -3.30424  -1.06323
C    -1.14198  -3.93163  -2.11120
C    -0.69820  -0.64535   1.19019
Cl    0.18212  -0.28373   2.74603
C    -1.88333  -1.54170   1.60163
O    -2.08427  -2.62878   1.11147
O    -2.59126  -1.00749   2.57857
C    -3.77835  -1.71306   2.97539
H    -4.41689   1.45623  -1.76221
H    -3.56992   0.20969  -2.74264
H    -3.32962   1.95816  -3.11014
H     0.36745   2.34002   2.42661
H    -0.20538   3.49166   1.20993
H    -1.02893   3.40573   2.79463
H    -0.49839   2.91398  -0.76501
H     0.03584   1.97259  -2.14950
H     1.23586   2.64956  -1.00477
H     2.67827   1.45346  -2.09588
H     3.06593   0.14063  -3.26444
H     1.52472   1.01756  -3.38518
H     1.83507   2.05001   1.15782
H     4.01057   2.55685   2.21815
H     5.92063   0.96141   1.97937
H     5.61235  -1.12771   0.64229
H     3.44784  -1.61780  -0.41564
H    -0.91613  -5.00148  -2.04216
H    -0.83383  -3.53570  -3.08931
H    -2.21633  -3.75441  -1.95988
H    -4.46583  -1.79184   2.12120
H    -3.52216  -2.71653   3.34252
H    -4.22764  -1.11440   3.77518
