18
Generated by autodE on: 2022-06-09. E = -1453.839044 Ha
C     2.51909  -2.62200  -0.42818
O     1.63915  -1.52519  -0.73660
C     1.64650  -0.50746   0.11016
O     2.38839  -0.37761   1.05603
C     0.66743   0.56479  -0.30783
Cl    1.42363   1.88847  -1.11212
C    -0.65311   0.53058  -0.03992
Cl   -1.70924   1.81746  -0.51282
C    -1.23368  -0.63722   0.69141
O    -0.53879  -1.51527   1.16737
O    -2.55430  -0.60405   0.76069
C    -3.18957  -1.68976   1.45865
H     2.39299  -3.34484  -1.24154
H     3.56050  -2.27493  -0.37879
H     2.22965  -3.07079   0.53285
H    -2.96454  -2.64330   0.96040
H    -4.26417  -1.48063   1.41957
H    -2.84157  -1.72549   2.50055
