46
Generated by autodE on: 2022-06-02. E = -1416.304876 Ha
C    -3.28941  -2.55994   1.84492
N    -2.31043  -2.18352   0.84586
C    -2.25704  -0.96436   0.30814
O    -3.05403  -0.05054   0.52713
C    -1.10236  -0.75657  -0.71410
C    -1.77475  -0.78676  -2.10620
C    -1.90514  -2.12131  -2.77527
O    -2.20982   0.22804  -2.61615
N    -0.07641  -1.80273  -0.61562
C     0.99489  -1.35768   0.27654
C     2.34740  -1.43389  -0.41827
O     2.48544  -1.56032  -1.61569
O     3.33802  -1.38033   0.46096
C     4.67309  -1.29929  -0.06568
C     0.60751   0.07023   0.74065
F    -0.19126  -0.10213   1.87086
C     1.77548   1.00739   1.06822
O     2.51940   1.40190   0.16879
N     1.93404   1.29009   2.36452
C     2.98265   2.17717   2.82927
C    -0.32827   0.55969  -0.39493
F     0.45721   0.80684  -1.51518
C    -1.03803   1.88306  -0.02157
O    -0.81150   2.41609   1.06763
N    -1.77325   2.43871  -0.98651
C    -2.48250   3.68275  -0.76544
H    -2.95045  -2.29742   2.86105
H    -4.23541  -2.03712   1.65042
H    -3.46034  -3.64334   1.79986
H    -1.54931  -2.81200   0.59467
H    -0.93138  -2.40769  -3.20867
H    -2.63858  -2.04443  -3.58763
H    -2.18990  -2.90644  -2.06168
H     0.34042  -1.96727  -1.53273
H     1.06253  -1.96449   1.19131
H     4.77995  -0.38559  -0.66727
H     5.33751  -1.26285   0.80462
H     4.89558  -2.18149  -0.68171
H     1.20509   1.00184   3.00869
H     2.72446   3.23550   2.65793
H     3.13528   2.02003   3.90421
H     3.91872   1.96049   2.29673
H    -2.01919   1.84070  -1.77865
H    -2.88433   4.04007  -1.72168
H    -3.31725   3.55226  -0.05574
H    -1.80427   4.44488  -0.35536
