26
Generated by autodE on: 2022-07-27. E = -722.835649 Ha
C    -4.32318   0.06953   0.69578
N    -3.17202   0.20050  -0.16913
C    -1.92147   0.02930   0.29942
O    -1.70160  -0.25412   1.49355
C    -0.81811   0.19692  -0.67383
N     0.46073   0.02924  -0.24709
C     1.01687  -0.27125   0.90774
C     2.47620  -0.34296   0.89799
O     3.16112  -0.14268  -0.09696
O     2.96873  -0.65176   2.09966
C     4.39629  -0.75073   2.20357
C    -0.99408   0.54082  -2.07801
C     0.23010   0.69730  -2.95847
O    -2.11894   0.71180  -2.57581
H    -5.23052   0.26504   0.11090
H    -4.39447  -0.94259   1.12736
H    -4.28402   0.78463   1.53402
H    -3.25989   0.43462  -1.15955
H     1.17646   0.16315  -0.97632
H     0.41102  -0.44847   1.78838
H     4.77660  -1.53750   1.53580
H     4.60578  -1.00618   3.24850
H     4.86829   0.20817   1.94425
H     0.89045   1.50084  -2.59318
H     0.81975  -0.23281  -3.00494
H    -0.10531   0.95117  -3.97125
