26
Generated by autodE on: 2022-06-02. E = -722.835263 Ha
C    -3.77418   1.90341  -0.78477
N    -2.98932   0.74435  -0.41692
C    -1.65524   0.79355  -0.33636
O    -0.99937   1.83209  -0.57270
C    -0.92643  -0.44701   0.05365
N     0.40476  -0.19334   0.07775
C     1.51968  -0.84066   0.32939
C     2.79925  -0.14212   0.23163
O     3.87198  -0.68340   0.44298
O     2.66805   1.14906  -0.11245
C     3.87258   1.91672  -0.23487
C    -1.55898  -1.71542   0.35970
C    -0.72065  -2.90188   0.75487
O    -2.79599  -1.83885   0.30103
H    -4.83513   1.62523  -0.79178
H    -3.63117   2.73031  -0.07039
H    -3.50013   2.27410  -1.78568
H    -3.41599  -0.15882  -0.20106
H     0.52583   0.81080  -0.18591
H     1.53788  -1.88805   0.60951
H     4.41377   1.93723   0.72218
H     3.55871   2.92875  -0.51466
H     4.52166   1.49094  -1.01384
H    -1.38790  -3.74977   0.95406
H    -0.12873  -2.68609   1.65886
H    -0.01941  -3.17523  -0.05007
