38
Generated by autodE on: 2022-05-29. E = -1013.141827 Ha
C     4.24233   0.09013   1.63958
O     3.14993   0.17858   0.70899
C     2.00057  -0.38018   1.07467
O     1.82203  -0.93856   2.13299
C     0.94006  -0.21749  -0.03075
C     1.49034  -0.96663  -1.26508
C     1.33162  -0.32361  -2.60290
O     1.99471  -2.06188  -1.09584
N     0.77064   1.22281  -0.27119
C    -0.40132   1.57500   0.10481
C    -0.85124   3.00850   0.03351
C     0.08988   4.02210  -0.54121
O    -1.96572   3.28904   0.44787
C    -1.31120   0.49416   0.61256
C    -2.50768   0.18721  -0.35800
C    -3.28633  -0.95903   0.26363
C    -2.52302  -2.05046   0.09523
C    -2.66478  -3.44222   0.59875
C    -1.28426  -1.54519  -0.64359
O    -1.81456  -0.46747  -1.43296
C    -0.43969  -0.78201   0.42619
H     4.49024  -0.96280   1.83503
H     3.98027   0.58968   2.58298
H     5.08651   0.59843   1.16049
H     0.27914  -0.03712  -2.75149
H     1.92206   0.60615  -2.62567
H     1.66691  -1.00745  -3.39296
H    -0.37081   5.01743  -0.50814
H     0.33594   3.75401  -1.58099
H     1.03698   4.02154   0.01975
H    -1.65677   0.69577   1.63434
H    -3.05953   1.06469  -0.70978
H    -4.21621  -0.86080   0.82427
H    -3.60480  -3.58133   1.15197
H    -2.62901  -4.16979  -0.23007
H    -1.82543  -3.69250   1.27145
H    -0.75010  -2.27356  -1.26321
H    -0.31070  -1.38179   1.33157
