16
Generated by autodE on: 2022-05-29. E = -346.852368 Ha
C     2.52175  -0.07573   0.40184
C     1.07514  -0.29825   0.14579
C     0.20236  -1.19391   0.62507
C    -1.16629  -0.77621   0.04271
C    -1.56175   0.56433   0.70888
C    -0.69477   1.45764   0.22199
C     0.20825   0.64520  -0.73426
O    -0.75134  -0.29575  -1.25505
H     2.68052   0.91676   0.86126
H     3.09943  -0.07885  -0.53873
H     2.94039  -0.83908   1.07403
H     0.36543  -2.00114   1.33880
H    -1.94176  -1.54693  -0.03274
H    -2.34180   0.68787   1.45993
H    -0.57025   2.51302   0.46305
H     0.72711   1.19315  -1.52950
