22
Generated by autodE on: 2022-05-29. E = -666.179218 Ha
C    -3.19943  -1.82011  -0.33467
O    -1.91411  -1.19756  -0.21753
C    -1.90657   0.13133  -0.01093
O    -2.92394   0.79805   0.07673
C    -0.54311   0.65516   0.09168
N     0.46661  -0.19414  -0.01669
C     1.46628  -0.79648  -0.08839
C     2.70362  -1.54099  -0.18859
C     3.93947  -0.70915  -0.01038
O     2.67803  -2.74403  -0.39338
C    -0.14061   2.05585   0.30491
C    -1.20781   3.10612   0.44192
O     1.05598   2.34102   0.36583
H    -3.00368  -2.88673  -0.49517
H    -3.78505  -1.67687   0.58518
H    -3.75500  -1.40474  -1.18818
H     3.71511   0.36608   0.01778
H     4.41873  -1.00547   0.93759
H     4.63814  -0.93430  -0.83072
H    -1.86505   2.87981   1.29482
H    -1.84780   3.12790  -0.45260
H    -0.72386   4.08083   0.58602
