38
Generated by autodE on: 2022-05-29. E = -1013.032191 Ha. Imaginary frequency = -309.0 cm-1
C     2.97185   0.03136   2.74356
O     2.32791   0.38949   1.51645
C     2.34089  -0.53584   0.53926
O     2.91686  -1.60458   0.64763
C     1.58391  -0.09086  -0.64208
C     1.53514  -0.83543  -1.90873
C     0.87920  -0.13533  -3.07276
O     1.96095  -1.98422  -2.00392
N     0.98081   1.09484  -0.57508
C     0.10148   1.74012  -0.08199
C    -0.38258   3.11628   0.13299
C    -0.86900   3.81701  -1.09625
O    -0.40158   3.56143   1.26567
C    -1.17185   0.25548   1.05957
C    -2.41167   0.27202   0.12500
C    -3.39682  -0.79929   0.63479
C    -2.80646  -1.97625   0.38317
C    -3.17976  -3.37457   0.71818
C    -1.46034  -1.59125  -0.28897
O    -1.85919  -0.41308  -1.01702
C    -0.59795  -0.96172   0.81665
H     4.03735  -0.18370   2.57655
H     2.48910  -0.84990   3.19145
H     2.86141   0.89800   3.40581
H    -0.18129   0.04647  -2.83742
H     1.34823   0.84215  -3.26380
H     0.95453  -0.76999  -3.96471
H    -1.22668   4.82052  -0.83090
H    -1.68196   3.22745  -1.55157
H    -0.05507   3.87685  -1.83679
H    -1.06274   0.86815   1.95537
H    -2.82081   1.25195  -0.14500
H    -4.33393  -0.59779   1.15322
H    -4.15757  -3.42790   1.21872
H    -3.20972  -4.00607  -0.18644
H    -2.42194  -3.82225   1.38601
H    -0.98879  -2.33961  -0.93592
H     0.11868  -1.50985   1.42442
