23
Generated by autodE on: 2022-06-22. E = -351.521383 Ha
C     2.98709   2.27405  -0.45066
C     2.31323   1.10918  -0.32925
C     3.02584  -0.21799  -0.38407
C     0.86399   1.12111  -0.14038
C     0.07418   0.02585  -0.00829
C    -1.36101   0.09552   0.17674
C    -2.21999  -0.94631   0.31224
C    -3.69177  -0.70958   0.50101
C    -1.81161  -2.39192   0.29018
H     4.07108   2.29488  -0.59355
H     2.46621   3.23569  -0.40994
H     2.63953  -0.84306  -1.20627
H     2.87079  -0.79063   0.54548
H     4.10688  -0.08399  -0.53078
H     0.39393   2.11140  -0.10603
H     0.53585  -0.96477  -0.04135
H    -1.78469   1.10662   0.20914
H    -4.27296  -1.19634  -0.30281
H    -3.94286   0.36120   0.51264
H    -4.04254  -1.16118   1.44647
H    -2.10013  -2.88498   1.23540
H    -0.73528  -2.54489   0.13950
H    -2.35024  -2.92852  -0.51076
