26
Generated by autodE on: 2022-06-22. E = -669.376916 Ha
C    -2.41400  -2.15156  -0.46594
C    -2.89720  -0.71497  -0.45285
O    -4.09784  -0.45522  -0.60933
C    -1.89325   0.30922  -0.25112
N    -0.60524  -0.08452  -0.09498
C     0.53394  -0.25757   0.05267
C     1.92222  -0.44483   0.23998
C     2.48540  -1.73709   0.19710
C     3.85691  -1.88027   0.38916
C     4.66103  -0.75754   0.61917
C     4.09552   0.52266   0.65867
C     2.72682   0.69208   0.47133
C    -2.06449   1.75410  -0.18481
C    -3.44877   2.33019  -0.34458
O    -1.08968   2.49736   0.00056
H    -1.92221  -2.40836   0.48629
H    -3.27143  -2.81793  -0.62519
H    -1.67386  -2.30899  -1.26708
H     1.84742  -2.60317   0.01632
H     4.30244  -2.87653   0.35885
H     5.73577  -0.88118   0.76835
H     4.72593   1.39587   0.83771
H     2.26632   1.68085   0.49850
H    -4.13170   1.92997   0.41918
H    -3.87656   2.05605  -1.32038
H    -3.38290   3.42316  -0.25679
