34
Generated by autodE on: 2022-07-27. E = -1006.166870 Ha
C    -3.88746  -0.11486   1.89472
N    -2.61179   0.52139   1.64313
C    -1.65855  -0.08927   0.92124
O    -1.82259  -1.18462   0.35532
C    -0.33874   0.57661   0.87940
O     0.60996   0.08262   0.11481
C     0.62736  -0.68259  -0.94360
C     1.96471  -1.15555  -1.36469
O     2.13398  -1.67116  -2.47826
N     2.96556  -0.98783  -0.47523
C     4.32208  -1.38471  -0.79377
C    -0.55463  -0.87973  -1.81698
O    -0.78762  -1.89308  -2.44142
O    -1.26168   0.24996  -1.91578
C    -2.50053   0.17498  -2.63566
C     0.13865   1.56156   1.87393
O    -0.64629   2.07995   2.69232
N     1.44195   1.89556   1.83042
C     1.99812   2.87097   2.74668
H    -4.57704   0.62515   2.31932
H    -4.31090  -0.50250   0.95683
H    -3.79735  -0.95904   2.59971
H    -2.29704   1.31570   2.20763
H     2.75912  -0.62859   0.45053
H     4.67022  -0.89526  -1.71645
H     4.39934  -2.47462  -0.94038
H     4.97931  -1.09216   0.03373
H    -2.31770  -0.05948  -3.69400
H    -2.96458   1.16308  -2.53990
H    -3.14744  -0.59494  -2.19174
H     2.03946   1.48801   1.12044
H     1.52204   3.85663   2.61957
H     1.85690   2.56018   3.79361
H     3.07184   2.96777   2.54711
