34
Generated by autodE on: 2022-07-02. E = -1006.168797 Ha
C     1.92298   3.81792  -0.87109
N     1.97328   2.46807  -0.34981
C     0.93709   1.62665  -0.49237
O    -0.15201   1.94980  -0.99345
C     1.18144   0.22257  -0.08267
O     0.19807  -0.63301  -0.05297
C    -1.10602  -0.56699   0.00781
C    -1.73385  -1.89080  -0.23431
O    -1.03468  -2.90124  -0.40189
N    -3.07900  -1.90891  -0.27389
C    -3.80702  -3.13171  -0.53972
C    -1.82017   0.60597   0.53952
O    -2.98414   0.86541   0.27558
O    -1.09740   1.26454   1.44240
C    -1.65742   2.47637   1.96963
C     2.51837  -0.42067  -0.04386
O     3.55921   0.26246  -0.00756
N     2.53248  -1.76458  -0.01468
C     3.77695  -2.50466   0.03531
H     1.96569   3.83645  -1.97355
H     0.98994   4.31025  -0.56105
H     2.77518   4.38460  -0.47631
H     2.86572   2.03289  -0.09895
H    -3.57258  -1.02289  -0.18728
H    -4.88186  -2.92577  -0.47176
H    -3.54741  -3.91330   0.19115
H    -3.58368  -3.52471  -1.54550
H    -1.86254   3.18181   1.15212
H    -2.58493   2.26422   2.51985
H    -0.89866   2.88717   2.64496
H     1.65094  -2.26675  -0.06819
H     4.39044  -2.32296  -0.86203
H     4.37248  -2.21640   0.91560
H     3.54798  -3.57508   0.09669
