33
Generated by autodE on: 2022-07-02. E = -1306.785689 Ha
C     1.41094  -2.97615  -3.52832
O     1.68791  -1.90110  -2.60936
C     1.20572  -0.70798  -2.91611
O     0.55535  -0.44199  -3.89582
C     1.58975   0.33473  -1.82177
C     3.05811   0.41995  -1.77866
N     4.21339   0.51574  -1.76185
C     1.02126  -0.09597  -0.54178
C     0.21783  -0.15188   0.35895
C    -0.90960   0.21683   1.20936
C    -0.38163   0.78718   2.54967
F    -1.38508   1.10155   3.37913
F     0.33415   1.90052   2.34243
F     0.41407  -0.08380   3.18422
C    -1.80686  -1.01803   1.47120
F    -2.92672  -0.68652   2.12475
F    -1.17662  -1.95664   2.18993
F    -2.16684  -1.58021   0.30897
C    -1.73996   1.30134   0.43312
C    -0.94814   2.30648  -0.42552
C    -0.53202   1.86713  -1.85801
C     0.97688   1.73861  -2.14359
H     1.83593  -2.74583  -4.51513
H     0.32578  -3.12620  -3.61413
H     1.88955  -3.86380  -3.10098
H    -2.34379   1.83951   1.17759
H    -2.44526   0.76295  -0.21538
H    -0.07123   2.67071   0.12825
H    -1.61243   3.17783  -0.52602
H    -0.90201   2.62886  -2.56033
H    -1.04753   0.93604  -2.14096
H     1.18630   1.93238  -3.20466
H     1.53278   2.48344  -1.55574
