67
Generated by autodE on: 2022-07-02. E = -2312.959238 Ha. Imaginary frequency = -206.2 cm-1
C    -2.94789  39.17202  -2.24558
N    -4.31657  39.61795  -2.08885
C    -5.05343  40.09211  -3.10506
O    -4.71031  40.08197  -4.29421
C    -6.38973  40.66223  -2.73812
C    -7.52089  40.20493  -3.64290
O    -7.58944  39.03437  -3.95734
O    -8.28837  41.16250  -4.12683
C    -9.40022  40.74502  -4.93336
O    -6.48140  40.96035  -1.47169
C    -7.38665  41.50997  -0.68683
C    -8.77248  40.99282  -0.74870
O    -9.09657  40.21033  -1.65719
N    -9.58408  41.37846   0.24788
C   -11.00252  41.10354   0.26981
C    -6.76137  42.18401   0.48220
O    -7.42128  42.50807   1.48551
N    -5.44817  42.46392   0.36042
C    -4.77027  43.27321   1.35290
C    -7.34697  43.52401  -2.52100
C    -6.39011  43.09490  -3.16598
C    -5.25212  43.33931  -4.08400
C    -5.53688  42.77468  -5.41147
N    -5.81046  42.39719  -6.47260
C    -3.92571  42.80399  -3.50578
O    -3.75034  42.62174  -2.32147
O    -3.00840  42.68635  -4.44660
C    -1.68133  42.29175  -4.05019
C    -5.03662  44.90054  -4.19680
C    -6.06657  45.66875  -5.02414
C    -7.54934  45.47680  -4.68922
C    -7.95271  45.80958  -3.23851
C    -8.35584  44.59155  -2.33740
C    -9.77640  44.10560  -2.74112
F   -10.69817  45.02620  -2.41592
F    -9.86853  43.90159  -4.06270
F   -10.12784  42.96051  -2.14752
C    -8.39053  45.08516  -0.86520
F    -7.14303  45.18340  -0.38162
F    -9.07738  44.26038  -0.06302
F    -8.95579  46.29400  -0.75712
H    -2.76702  38.92415  -3.29809
H    -2.77300  38.27784  -1.63108
H    -2.23813  39.95592  -1.93576
H    -4.67244  39.74683  -1.14688
H    -9.04548  40.20941  -5.82497
H    -9.92278  41.66318  -5.21939
H   -10.06247  40.09504  -4.34471
H    -9.16381  41.99172   0.94924
H   -11.57690  42.04336   0.23031
H   -11.28965  40.56223   1.18524
H   -11.26722  40.48871  -0.59848
H    -4.99812  42.33853  -0.54464
H    -3.70687  43.33353   1.09057
H    -4.86548  42.82887   2.35457
H    -5.18632  44.29418   1.39250
H    -1.04902  42.45182  -4.93016
H    -1.33672  42.90680  -3.20837
H    -1.68179  41.23081  -3.76927
H    -4.99819  45.26169  -3.15920
H    -4.04379  45.05956  -4.64107
H    -5.80455  46.73514  -4.92193
H    -5.92516  45.42038  -6.08826
H    -7.85190  44.45752  -4.95723
H    -8.12328  46.13268  -5.36056
H    -7.12161  46.31471  -2.72607
H    -8.79653  46.51198  -3.22567
