23
Generated by autodE on: 2022-10-06. E = -925.158301 Ha
C     3.74956   1.17371   0.48812
C     2.92001   0.01331   0.03337
O     3.37798  -1.09575  -0.18373
C     1.43773   0.22425  -0.16102
N     0.90248   1.37060   0.06106
C    -0.55877   1.23279  -0.17977
C    -1.24114   1.32755   1.13149
N    -1.71505   1.52929   2.17012
C    -1.04985   2.35993  -0.99176
N    -1.41830   3.23023  -1.66280
C    -0.73821  -0.12428  -0.93698
C    -2.11011  -0.79258  -0.75113
O    -3.06723  -0.01413  -0.50176
O    -2.16467  -2.03274  -0.92016
C     0.53603  -0.90104  -0.56880
C     0.34704  -1.87311   0.64713
O     0.80142  -3.03063   0.53361
O    -0.22925  -1.36918   1.64349
H     3.38390   1.53501   1.46218
H     4.80049   0.86895   0.56896
H     3.64920   2.01104  -0.21986
H    -0.67122   0.12522  -2.00786
H     0.95314  -1.46759  -1.40901
