13
Generated by autodE on: 2022-10-06. E = -470.017447 Ha
C    -3.40687  -0.60113   0.52322
C    -2.44384   0.53938   0.54707
O    -2.69586   1.70390   0.80036
C    -1.06127   0.20438   0.22427
N     0.06300  -0.00525  -0.01579
C     1.34026  -0.25491  -0.29232
C     2.27371   0.81086  -0.29020
N     3.05274   1.67839  -0.29197
C     1.74042  -1.58235  -0.58436
N     2.08443  -2.66987  -0.82606
H    -3.05672  -1.40486   1.19107
H    -3.45746  -1.01674  -0.49703
H    -4.39636  -0.24287   0.83621
