10
Generated by autodE on: 2022-10-06. E = -455.046514 Ha
O    -2.68805   0.12163   0.86577
C    -1.47585  -0.07465   0.56455
O    -0.90145  -1.19932   0.53263
C    -0.67471   1.15775   0.21488
C     0.57790   1.17151  -0.27049
C     1.47317  -0.01910  -0.55742
O     1.37200  -0.54818  -1.69402
O     2.30245  -0.32008   0.34014
H    -1.20319   2.10668   0.36296
H     1.04042   2.14349  -0.49189
