23
Generated by autodE on: 2022-10-06. E = -925.074793 Ha. Imaginary frequency = -461.8 cm-1
C     3.65230   1.05984  -0.06003
C     2.81572  -0.07157   0.46364
O     3.29987  -1.14345   0.80120
C     1.32622   0.11877   0.46731
N     0.83759   1.34052   0.31966
C    -0.49735   1.42015   0.09204
C    -1.46340   0.98503   1.07908
N    -2.22504   0.69894   1.91207
C    -0.96050   2.55450  -0.66912
N    -1.32236   3.44068  -1.33224
C    -0.57343  -0.29534  -1.35607
C    -2.01151  -0.68765  -1.13771
O    -2.87122  -0.05138  -1.81026
O    -2.25749  -1.59557  -0.29625
C     0.55880  -0.99587  -0.84676
C     0.42715  -1.82664   0.39588
O     0.25710  -2.99870   0.61999
O     0.69913  -0.89699   1.35608
H     3.49037   1.96541   0.54313
H     4.71175   0.77311  -0.04223
H     3.34646   1.30554  -1.08904
H    -0.40242   0.26862  -2.27814
H     1.34835  -1.28092  -1.55155
