53
Generated by autodE on: 2022-06-03. E = -1210.592098 Ha
C     2.73558  -2.81444  -2.41398
C     2.40836  -2.13303  -1.12239
O     3.17491  -2.09158  -0.17301
C     1.05130  -1.49760  -0.98446
N     0.05831  -1.97838  -1.61586
C    -1.20617  -1.38405  -1.18215
C    -1.95188  -2.47170  -0.38576
C    -2.03662  -1.07685  -2.44065
C    -0.78311  -0.11698  -0.26855
C    -0.73975   1.15443  -1.18161
C    -1.36513   2.44005  -0.71510
O    -0.19637   1.09759  -2.26965
C    -1.75027   0.12128   0.89365
C    -3.12638   0.21489   0.60496
C    -4.07068   0.48420   1.59464
C    -3.66861   0.67843   2.91932
C    -2.31046   0.60691   3.22588
C    -1.37021   0.33620   2.22564
C     0.77130  -0.42039   0.07297
C     1.03997  -1.18575   1.42037
C     2.11808  -0.71220   2.36044
O     0.40928  -2.19656   1.66531
C     1.66410   0.82055  -0.06442
C     2.59626   0.95154  -1.10463
C     3.38238   2.09871  -1.23219
C     3.24755   3.15144  -0.32368
C     2.30920   3.04537   0.70522
C     1.52719   1.89498   0.82903
H     1.97022  -3.56970  -2.64483
H     3.72848  -3.27707  -2.35195
H     2.71133  -2.07578  -3.23212
H    -1.48121  -2.64723   0.58620
H    -3.00384  -2.19945  -0.23802
H    -1.92256  -3.40592  -0.96591
H    -2.92252  -0.47378  -2.19998
H    -1.45562  -0.54585  -3.20067
H    -2.38390  -2.02741  -2.87130
H    -2.45359   2.38773  -0.87989
H    -1.21095   2.61689   0.35609
H    -0.95653   3.26565  -1.31196
H    -3.47679   0.08908  -0.41802
H    -5.12741   0.54629   1.32445
H    -4.40445   0.88890   3.69872
H    -1.96589   0.76572   4.25026
H    -0.32843   0.31697   2.52666
H     2.35154  -1.53211   3.05198
H     1.76253   0.15018   2.94494
H     3.01733  -0.39285   1.82272
H     2.70226   0.17465  -1.86107
H     4.09708   2.17005  -2.05532
H     3.86102   4.04977  -0.42324
H     2.17815   3.86263   1.41814
H     0.79563   1.84532   1.63468
