36
Generated by autodE on: 2022-06-03. E = -846.390649 Ha
C     0.72098  -2.78561   1.04731
C     0.04486  -1.95454  -0.00782
O    -0.78556  -2.41966  -0.77171
C     0.45942  -0.50261  -0.10883
C    -0.47794   0.47816  -0.12887
C    -0.07456   1.91630  -0.37290
C    -0.58982   2.94415   0.59620
O     0.61934   2.21422  -1.33167
C    -1.92511   0.25022   0.11538
C    -2.36689  -0.48475   1.22943
C    -3.73051  -0.67679   1.45661
C    -4.67334  -0.13394   0.57750
C    -4.24448   0.60843  -0.52772
C    -2.88104   0.80499  -0.75370
C     1.92331  -0.25355  -0.14025
C     2.52015   0.67053   0.73506
C     3.89918   0.88380   0.70840
C     4.70317   0.17416  -0.18962
C     4.12049  -0.75564  -1.05710
C     2.74190  -0.97332  -1.02837
H     1.75447  -3.00635   0.73542
H     0.17669  -3.72979   1.18141
H     0.78418  -2.23177   1.99656
H    -0.03988   3.88554   0.46546
H    -0.50346   2.58048   1.63158
H    -1.66045   3.12370   0.40723
H    -1.63533  -0.89618   1.92820
H    -4.05842  -1.24803   2.32826
H    -5.74053  -0.28390   0.75677
H    -4.97521   1.03676  -1.21765
H    -2.55099   1.38344  -1.62018
H     1.89836   1.21418   1.44969
H     4.34879   1.60318   1.39681
H     5.78263   0.34107  -0.20930
H     4.74251  -1.31445  -1.76016
H     2.29175  -1.69888  -1.71041
