17
Generated by autodE on: 2022-06-03. E = -364.142149 Ha
C     2.66897   0.80848   0.48279
C     1.82993  -0.33059  -0.04519
O     2.25630  -1.14610  -0.86786
C     0.54338  -0.49972   0.59167
N    -0.57934  -0.11689   0.27143
C    -1.77609   0.24155   0.01736
C    -2.66468  -0.62639  -0.82479
C    -2.30910   1.53821   0.55303
H     2.05817   1.59435   0.95084
H     3.25916   1.22629  -0.34657
H     3.37242   0.41925   1.23816
H    -2.99031  -0.07606  -1.72388
H    -3.57541  -0.89103  -0.26087
H    -2.15415  -1.54757  -1.13603
H    -2.60962   2.19728  -0.27922
H    -3.21210   1.35127   1.15884
H    -1.56452   2.05968   1.16935
