43
Generated by autodE on: 2022-05-30. E = -1257.188804 Ha
C    -1.30737  -4.65101   1.27311
N    -1.09240  -3.21618   1.25976
C    -0.83477  -2.55813   0.12660
O    -0.75137  -3.08807  -0.98488
C    -0.64509  -1.05373   0.24887
O    -0.58193  -0.63590   1.63649
C    -0.87016   0.68856   1.63570
O    -0.91636   1.37167   2.62039
C    -1.14418   1.04163   0.16382
C    -1.95029   2.31002   0.01015
O    -1.43998   3.38158  -0.23724
O    -3.24693   2.11846   0.20942
C    -4.09574   3.27709   0.11787
C     0.21772   1.03088  -0.59406
C     1.43977   1.69611   0.09790
C     2.61484   1.48637  -0.84515
C     2.93303   0.18199  -0.73242
C     3.87105  -0.63636  -1.51364
C     4.84051   0.06632  -2.42429
O     3.83481  -1.86038  -1.41178
C     1.93675  -0.39279   0.27603
O     1.73204   0.74541   1.13450
C     0.59044  -0.47920  -0.49054
N    -1.78465  -0.24375  -0.21469
C    -2.19492  -0.38199  -1.60940
H    -0.47080  -5.17280   0.78467
H    -2.23419  -4.92112   0.74227
H    -1.38182  -4.98909   2.31317
H    -1.15486  -2.68731   2.12400
H    -5.11395   2.91752   0.30242
H    -3.80623   4.01861   0.87557
H    -4.02136   3.72282  -0.88390
H     0.06613   1.39562  -1.61557
H     1.27375   2.69889   0.50408
H     3.02276   2.23078  -1.52854
H     5.44222   0.79238  -1.85542
H     4.28990   0.63362  -3.19188
H     5.49716  -0.66779  -2.90880
H     2.23948  -1.27881   0.84209
H     0.69881  -0.98984  -1.45267
H    -1.38390  -0.24149  -2.34387
H    -2.62549  -1.37986  -1.75885
H    -2.98065   0.35853  -1.81006
