18
Generated by autodE on: 2022-05-30. E = -460.241415 Ha
C     2.89750   0.25869   0.72636
C     1.81402  -0.43093  -0.06076
O     2.02937  -1.45812  -0.70271
C     0.46974   0.15164  -0.04350
C    -0.04425   1.15826   0.68602
C    -1.54304   1.18243   0.32429
C    -2.16726  -0.09784   0.92840
C    -1.66610  -1.09921   0.19930
C    -0.73734  -0.41721  -0.82922
O    -1.46716   0.80387  -1.06444
H     2.99364   1.30890   0.40964
H     3.85242  -0.26368   0.58357
H     2.63745   0.26588   1.79702
H     0.44046   1.79387   1.42628
H    -2.07826   2.12629   0.47200
H    -2.81972  -0.12386   1.80035
H    -1.79944  -2.17512   0.30686
H    -0.51178  -0.95794  -1.75346
