25
Generated by autodE on: 2022-07-27. E = -796.894411 Ha
C     1.39978  -4.69805  -0.12842
N     1.15388  -3.30494   0.19052
C     0.42142  -2.52846  -0.62223
O    -0.09495  -2.92366  -1.67106
C     0.28084  -1.12389  -0.13870
O     0.87660  -0.75524   0.99184
C     0.59702   0.63488   1.24529
O     1.05601   1.16289   2.23502
C    -0.21756   1.01246   0.14649
C    -0.81506   2.30341  -0.11882
O    -1.51357   2.58730  -1.08225
O    -0.51021   3.19036   0.84660
C    -1.05003   4.50795   0.69444
N    -0.37472  -0.11183  -0.67201
C    -1.14533  -0.13570  -1.92017
H     0.45242  -5.24601  -0.24646
H     1.97574  -5.14908   0.68761
H     1.96872  -4.79570  -1.06653
H     1.55717  -2.90407   1.03209
H    -0.70463   5.07616   1.56615
H    -2.14946   4.47912   0.67427
H    -0.68260   4.97573  -0.23084
H    -0.71716   0.59918  -2.61117
H    -1.08871  -1.14281  -2.33567
H    -2.18202   0.14126  -1.69905
