43
Generated by autodE on: 2022-05-30. E = -1257.124305 Ha. Imaginary frequency = -402.6 cm-1
C    -0.35122  -4.78790   0.96684
N    -0.52427  -3.35454   1.10891
C    -0.98491  -2.60449   0.09859
O    -1.30486  -3.05601  -1.00523
C    -1.02865  -1.13169   0.37981
O    -0.60994  -0.73178   1.61823
C    -0.95724   0.61201   1.78071
O    -0.57492   1.24758   2.73757
C    -1.78586   0.90156   0.63285
C    -2.45885   2.16618   0.34116
O    -3.33142   2.32500  -0.49547
O    -1.96564   3.16071   1.08962
C    -2.52439   4.46345   0.87148
C     0.30476   1.06428  -0.66770
C     1.52955   1.54714   0.12286
C     2.70759   1.45999  -0.86865
C     2.92236   0.14087  -1.03341
C     3.83083  -0.57575  -1.93438
C     4.84661   0.22507  -2.70462
O     3.74054  -1.79719  -2.04648
C     1.86216  -0.54933  -0.14191
O     1.79949   0.39600   0.93718
C     0.49293  -0.31215  -0.82081
N    -2.04372  -0.29610  -0.00529
C    -2.75233  -0.41879  -1.27540
H    -1.32023  -5.29831   0.84801
H     0.14617  -5.17390   1.86422
H     0.26599  -5.01847   0.08544
H    -0.30198  -2.90602   1.99200
H    -2.00634   5.13163   1.56887
H    -3.60421   4.46036   1.07877
H    -2.35225   4.78794  -0.16504
H    -0.25762   1.71406  -1.33579
H     1.42485   2.46084   0.71696
H     3.18698   2.30466  -1.36218
H     5.46416  -0.44469  -3.31708
H     4.33791   0.95619  -3.35310
H     5.48574   0.79601  -2.01283
H     2.08925  -1.56132   0.20597
H     0.20184  -0.86905  -1.71348
H    -2.20668   0.11730  -2.06736
H    -2.82077  -1.47807  -1.53240
H    -3.74947   0.01734  -1.17090
