50
Generated by autodE on: 2022-07-04. E = -1079.900129 Ha
C    -0.31085  -1.71795   4.85208
C    -0.02352  -1.81936   3.38363
O    -0.17592  -2.84871   2.75378
C     0.49981  -0.54729   2.66602
C     1.99991  -0.42988   3.08581
C     2.99927  -1.16786   2.24761
O     2.30719   0.21601   4.06730
C     0.37026  -0.65297   1.21613
C     0.17566  -0.28142   0.07966
C    -0.19189   0.59504  -1.03821
C     0.78918   0.51765  -2.21599
C     0.50708   1.21630  -3.40008
C     1.40366   1.19433  -4.47019
C     2.59656   0.46841  -4.37536
C     2.88294  -0.23216  -3.20124
C     1.98495  -0.20589  -2.12843
C    -1.60288   0.21806  -1.52669
C    -1.87059  -1.12735  -1.82689
C    -3.11790  -1.52023  -2.31244
C    -4.12689  -0.56908  -2.50535
C    -3.87110   0.77075  -2.20856
C    -2.61744   1.16282  -1.72261
C    -0.10409   2.02406  -0.40199
C    -0.82493   2.22327   0.94930
C    -0.01199   1.99294   2.25537
C    -0.29051   0.72580   3.09100
H    -0.43865  -2.72298   5.27410
H    -1.24169  -1.14539   4.99683
H     0.48655  -1.17304   5.37729
H     3.14087  -0.62196   1.30047
H     3.95854  -1.23479   2.77659
H     2.62210  -2.16826   1.98636
H    -0.42608   1.77653  -3.48841
H     1.16773   1.74360  -5.38495
H     3.29613   0.44735  -5.21435
H     3.80934  -0.80549  -3.11606
H     2.21594  -0.75581  -1.21356
H    -1.08665  -1.87419  -1.67857
H    -3.30447  -2.57251  -2.54035
H    -5.10590  -0.87316  -2.88316
H    -4.65047   1.52300  -2.35271
H    -2.44383   2.21563  -1.50090
H    -0.48163   2.74464  -1.14200
H     0.96627   2.25029  -0.27841
H    -1.16222   3.27136   0.96251
H    -1.74786   1.62148   0.97576
H    -0.23489   2.83834   2.92482
H     1.06794   2.06833   2.04295
H    -0.04000   0.93020   4.14036
H    -1.36529   0.48900   3.05310
