24
Generated by autodE on: 2022-07-27. E = -626.466016 Ha
C     4.49400   0.79513  -0.30895
N     3.06545   0.97069  -0.48424
C     2.14821   0.20209   0.11730
O     2.40586  -0.74284   0.87637
C     0.70730   0.54016  -0.16804
C     0.27336   1.73937  -0.92052
N    -0.10870  -0.29288   0.42374
C    -1.49008  -0.42152   0.38850
C    -2.08690  -0.87933   1.58564
N    -2.57608  -1.26291   2.57565
C    -2.33682  -0.30011  -0.77800
C    -1.72840  -0.25357  -2.16120
O    -3.57157  -0.34613  -0.65184
H     4.66957  -0.03706   0.38164
H     4.94763   1.70816   0.10607
H     4.97828   0.57210  -1.27204
H     2.75297   1.71478  -1.10012
H    -0.77613   1.97538  -0.69890
H     0.90005   2.59626  -0.62868
H     0.37748   1.61003  -2.00952
H     0.40713  -0.94696   1.03757
H    -0.68044  -0.57791  -2.19873
H    -1.79774   0.76433  -2.57539
H    -2.33474  -0.90997  -2.80251
