24
Generated by autodE on: 2022-07-04. E = -626.476981 Ha
C     4.44236   1.03756   0.40256
N     3.30292   0.17416   0.16321
C     2.03155   0.60087   0.20117
O     1.69290   1.76874   0.44693
C     0.97601  -0.43316  -0.07489
C     1.29090  -1.85096  -0.38684
N    -0.22196   0.07581   0.00255
C    -1.51559  -0.35926  -0.13714
C    -1.87030  -1.68269  -0.45275
N    -2.23060  -2.76480  -0.71288
C    -2.50809   0.67890   0.07566
C    -3.96203   0.30813  -0.05041
O    -2.14737   1.83297   0.35341
H     5.04055   0.66497   1.24817
H     5.08960   1.08512  -0.48698
H     4.08282   2.04587   0.63603
H     3.48589  -0.80222  -0.04459
H     1.95507  -1.90730  -1.26525
H     0.39633  -2.44529  -0.59444
H     1.82613  -2.31445   0.45918
H    -0.20992   1.09047   0.23595
H    -4.17627  -0.07536  -1.06089
H    -4.22071  -0.49201   0.66124
H    -4.58377   1.19057   0.14665
