30
Generated by autodE on: 2022-10-20. E = -800.962102 Ha
C    -0.77267  -2.29447  -1.43059
O    -1.47730  -1.04883  -1.37893
C    -1.01648  -0.05160  -0.62277
C     0.18849   0.25402  -0.09850
C     1.52216  -0.32800  -0.33509
C     1.96937  -0.54816  -1.65183
C     3.23971  -1.07371  -1.89499
C     4.09162  -1.37611  -0.82841
C     3.66469  -1.14585   0.48329
C     2.39303  -0.62490   0.73016
C    -0.01291   1.47632   0.78584
C     0.07503   1.16197   2.23217
N     0.12809   0.92158   3.36585
O    -1.31701   1.96928   0.48606
C    -2.06576   0.97037  -0.20152
C    -2.82016   1.59379  -1.37036
C    -3.02094   0.33322   0.74447
N    -3.76218  -0.15941   1.48824
H    -1.49824  -3.03794  -1.78348
H     0.07274  -2.24386  -2.13050
H    -0.40937  -2.57032  -0.42951
H     1.31702  -0.28870  -2.48802
H     3.56795  -1.23888  -2.92386
H     5.08674  -1.78484  -1.01848
H     4.32400  -1.37803   1.32291
H     2.07015  -0.46560   1.76022
H     0.72222   2.27013   0.57569
H    -2.09153   2.04450  -2.05844
H    -3.39669   0.82242  -1.89978
H    -3.50747   2.36792  -1.00085
