12
Generated by autodE on: 2022-10-20. E = -377.711466 Ha
C    -1.01109  -1.10761   0.51516
C    -0.74423   0.30903   0.17220
C    -1.72027   1.32570   0.27783
N    -2.55502   2.13680   0.37830
O     0.40887   0.74751  -0.25697
C     1.56440   0.16956  -0.50070
C     1.85319  -1.19395  -0.34596
N     2.20345  -2.30769  -0.25521
H    -0.34060  -1.44919   1.32231
H    -2.05029  -1.21679   0.84974
H    -0.84897  -1.76082  -0.35934
H     2.32631   0.86165  -0.85657
