12
Generated by autodE on: 2022-10-26. E = -377.708477 Ha
C    -1.34532   0.44344  -2.25903
C    -0.61239   0.20203  -0.98570
C    -1.29995  -0.07963   0.21684
N    -1.94610  -0.30240   1.16418
O     0.68872   0.25357  -1.02839
C     1.66774   0.09341  -0.16118
C     1.47923  -0.22189   1.18869
N     1.39431  -0.48761   2.32653
H    -0.62844   0.71785  -3.04465
H    -1.89512  -0.45996  -2.57395
H    -2.08132   1.25531  -2.13944
H     2.65932   0.22835  -0.58937
