30
Generated by autodE on: 2022-10-20. E = -800.814344 Ha. Imaginary frequency = -269.4 cm-1
C    -2.09611  -2.76688  -1.42213
O    -2.21551  -1.36405  -1.09234
C    -1.08540  -0.77834  -0.78607
C     0.12973  -0.61959  -0.62440
C     1.55288  -0.66900  -0.45641
C     2.42139  -0.12990  -1.43016
C     3.80234  -0.19544  -1.25808
C     4.34547  -0.79584  -0.11468
C     3.49487  -1.33378   0.85523
C     2.10962  -1.27278   0.69096
C     0.05734   1.90728   0.26214
C     0.27704   1.41621   1.56024
N     0.57692   1.01806   2.61844
O    -1.12001   1.99305  -0.32186
C    -2.20679   1.27402  -0.13450
C    -3.31487   1.50096  -1.10642
C    -2.50012   0.69794   1.13490
N    -2.83412   0.20432   2.13735
H    -3.11117  -3.11553  -1.64680
H    -1.44438  -2.88951  -2.30020
H    -1.68194  -3.31667  -0.56374
H     1.99727   0.34558  -2.31674
H     4.46239   0.22562  -2.02026
H     5.42883  -0.84347   0.01750
H     3.91155  -1.80411   1.74909
H     1.44504  -1.68972   1.44894
H     0.83423   2.48790  -0.23421
H    -2.89457   1.78186  -2.08197
H    -3.90405   0.57997  -1.21594
H    -3.99265   2.30077  -0.76056
