44
Generated by autodE on: 2022-06-03. E = -1220.210121 Ha
C     3.77970  -0.86396   1.68396
O     2.79502  -0.10499   0.96295
C     1.70787  -0.75736   0.56121
O     1.53217  -1.94435   0.72163
C     0.76562   0.14639  -0.25969
C     1.22458   1.59891  -0.11995
O     0.89821   2.31294   0.80320
O     2.00910   1.98218  -1.11982
C     2.48442   3.33875  -1.08700
N     0.86005  -0.34323  -1.64806
N    -0.17488  -1.29328  -1.86774
C     0.33623  -2.64064  -2.09014
C    -1.27390  -1.07770  -0.90486
C    -1.83975  -2.36625  -0.32354
C    -2.44575  -0.22839  -1.54421
C    -1.84420   0.87147  -2.40001
C    -1.37056   1.77370  -1.53036
C    -1.69780   1.20957  -0.15709
O    -2.91209   0.50310  -0.40368
C    -0.72019  -0.02751   0.15245
C    -0.84611  -0.30305   1.64044
O     0.07821  -0.17560   2.42322
O    -2.07612  -0.61201   2.03406
C    -2.27564  -0.81676   3.44168
H     4.58478  -0.16070   1.92412
H     4.16028  -1.68490   1.06016
H     3.33860  -1.27155   2.60460
H     1.63603   4.03763  -1.08842
H     3.09685   3.50241  -0.18918
H     3.08848   3.46703  -1.99190
H     0.70396   0.45194  -2.26491
H     1.12857  -2.57583  -2.84811
H    -0.45892  -3.27462  -2.50539
H     0.75333  -3.13253  -1.19696
H    -2.16142  -3.03614  -1.13255
H    -2.71476  -2.13746   0.29430
H    -1.10165  -2.88991   0.29853
H    -3.24197  -0.83885  -1.98479
H    -1.76061   0.86103  -3.48605
H    -0.80968   2.68700  -1.72576
H    -1.79738   1.91731   0.67055
H    -2.03049   0.09814   3.99935
H    -3.33667  -1.06359   3.56011
H    -1.64759  -1.64475   3.79954
