22
Generated by autodE on: 2022-06-03. E = -574.845898 Ha
C     3.48249  -0.90247   0.62836
O     2.12429  -0.86839   0.17662
C     1.46894   0.30183   0.31502
O     1.99655   1.29517   0.79378
C     0.09643   0.20345  -0.16587
C    -0.92452   1.07264   0.00191
C    -1.02579   2.38719   0.67230
C    -2.14823   0.33333  -0.59654
C    -2.47462  -0.82942   0.36630
C    -1.46830  -1.69430   0.20576
C    -0.54214  -1.03607  -0.84084
O    -1.51680  -0.37965  -1.67342
H     4.09506  -0.17758   0.07204
H     3.83991  -1.92163   0.43967
H     3.54034  -0.67426   1.70291
H    -0.06403   2.71888   1.08043
H    -1.40542   3.14652  -0.03294
H    -1.76928   2.32614   1.48722
H    -2.97779   0.96298  -0.93654
H    -3.32152  -0.85813   1.05084
H    -1.26463  -2.63184   0.72211
H     0.12449  -1.68730  -1.41383
