36
Generated by autodE on: 2022-10-20. E = -1322.176673 Ha
C    -0.71507   1.96283   1.89571
O    -0.27240   1.88511   0.53855
C    -0.91940   1.07357  -0.30176
C    -2.07174   0.37242  -0.28229
Cl   -3.28758   0.16250   0.93444
C    -2.11299  -0.37011  -1.61050
O    -1.44559   0.56137  -2.48171
C    -0.28336   0.73378  -1.64921
C     0.26316  -0.73344  -1.65294
C    -1.07162  -1.52975  -1.60100
N    -1.03667  -2.35030  -0.39108
O    -0.00539  -1.78508   0.42652
C     1.04718  -1.29491  -0.45073
C     1.93352  -2.46743  -0.88850
C     1.86801  -0.28750   0.32850
C     2.68167   0.62698  -0.35613
C     3.44615   1.56105   0.34567
C     3.41468   1.58633   1.74419
C     2.62459   0.66152   2.43216
C     1.85892  -0.27349   1.72915
H     0.01784   2.58757   2.42049
H    -1.71075   2.42667   1.95720
H    -0.74022   0.96263   2.35101
H    -3.11012  -0.63433  -1.97988
H     0.39473   1.49505  -2.04828
H     0.80778  -0.89031  -2.59096
H    -1.22765  -2.17628  -2.47314
H    -0.68648  -3.27408  -0.65782
H     1.35496  -3.21670  -1.45130
H     2.74579  -2.10934  -1.53724
H     2.37546  -2.94922  -0.00391
H     2.70887   0.61728  -1.44801
H     4.06555   2.27548  -0.20199
H     4.00737   2.32124   2.29411
H     2.59765   0.66953   3.52456
H     1.23707  -0.98526   2.27190
