19
Generated by autodE on: 2022-10-20. E = -440.340919 Ha
C    -2.30394  -1.06725   0.14669
C    -1.23345  -0.07107   0.34827
O    -1.53455   0.99497   1.01295
N    -2.79179   1.18465   1.50677
C     0.14148  -0.14906  -0.12383
C     1.05307   0.90352   0.13237
C     2.36704   0.82980  -0.31781
C     2.81073  -0.29025  -1.03397
C     1.92127  -1.33684  -1.29348
C     0.60148  -1.27156  -0.84602
H    -1.98157  -1.93960  -0.42873
H    -3.15923  -0.57747  -0.35372
H    -2.69170  -1.38434   1.13203
H    -2.65584   2.10100   1.95331
H     0.71772   1.77986   0.68818
H     3.05444   1.65317  -0.11000
H     3.84328  -0.34459  -1.38605
H     2.25604  -2.21522  -1.85003
H    -0.07146  -2.10202  -1.06007
