17
Generated by autodE on: 2022-10-20. E = -881.716876 Ha
C     2.70726   0.61237   0.70102
O     1.69003  -0.24953   1.22053
C     0.55634  -0.37898   0.52727
C     0.03809   0.10866  -0.61601
Cl    0.59971   1.27489  -1.76673
C    -1.41433  -0.42385  -0.64110
C    -2.19364   0.28015   0.49612
C    -1.67216  -0.21432   1.62279
C    -0.59191  -1.21286   1.14585
O    -1.21086  -1.72114  -0.04839
H     3.54665   0.55626   1.40534
H     2.34539   1.64938   0.63789
H     3.03549   0.27310  -0.29309
H    -1.88775  -0.47967  -1.62736
H    -2.95219   1.04944   0.35551
H    -1.88010   0.03677   2.66210
H    -0.27911  -2.00382   1.83644
