36
Generated by autodE on: 2022-10-20. E = -1322.055762 Ha. Imaginary frequency = -262.1 cm-1
C    -0.79932   1.94733   1.83669
O    -0.34055   1.84318   0.48737
C    -1.04189   1.08286  -0.36031
C    -2.11961   0.27865  -0.29427
Cl   -3.12339  -0.23249   1.01924
C    -2.28608  -0.27328  -1.71975
O    -1.87204   0.89045  -2.48188
C    -0.58251   0.99029  -1.82424
C    -0.02152  -0.42312  -2.09944
C    -1.11843  -1.23352  -2.04811
N    -0.81892  -2.55070   0.00194
O     0.09927  -1.67586   0.45556
C     1.23712  -1.42657  -0.14360
C     1.86666  -2.46283  -1.01509
C     2.03046  -0.37760   0.50845
C     3.00006   0.33855  -0.21999
C     3.72182   1.36621   0.38611
C     3.49914   1.68930   1.72960
C     2.55063   0.97068   2.46509
C     1.82219  -0.05413   1.86301
H    -0.09007   2.60476   2.35357
H    -1.80695   2.39036   1.86539
H    -0.81457   0.96453   2.32669
H    -3.29397  -0.61056  -1.98523
H     0.01026   1.83962  -2.18130
H     0.93536  -0.59914  -2.58264
H    -1.25456  -2.22249  -2.47636
H    -0.31189  -3.17329  -0.64157
H     1.20385  -2.84177  -1.80351
H     2.77521  -2.06993  -1.48547
H     2.15647  -3.32005  -0.37721
H     3.16756   0.10860  -1.27383
H     4.45992   1.92301  -0.19586
H     4.06650   2.49427   2.20226
H     2.37810   1.20881   3.51727
H     1.08711  -0.61548   2.44064
