12
Generated by autodE on: 2022-10-21. E = -377.743250 Ha
C    -3.05042  -0.39882   0.36039
C    -1.91449   0.42161  -0.17517
O    -1.99584   1.23652  -1.08297
C    -0.64463   0.24372   0.51159
N     0.40607  -0.31630   0.53759
C     1.56552  -0.89678   0.63318
C     2.68912  -0.37885  -0.04762
N     3.63473   0.02736  -0.59896
H    -3.29764  -0.05660   1.37897
H    -2.76302  -1.46001   0.42863
H    -3.92280  -0.27608  -0.29522
H     1.65698  -1.79492   1.24976
