46
Generated by autodE on: 2022-10-21. E = -1147.027404 Ha. Imaginary frequency = -265.2 cm-1
C     2.38380   4.44410   0.07746
O     2.47155   3.02026   0.24307
C     1.51125   2.28654  -0.32198
O     0.59917   2.75949  -0.97058
C     1.74083   0.80628  -0.09695
C     2.74397   0.30472  -1.19853
C     2.57791  -1.16332  -1.61060
C     1.38378  -1.39169  -2.57128
C     0.36859  -2.47774  -2.19544
C    -0.22930  -2.40463  -0.76678
O    -1.57287  -2.84123  -0.72247
C    -1.82768  -4.15665  -1.19366
O     0.58837  -3.24952   0.03421
C     0.27093  -3.30909   1.41713
C    -0.16057  -1.01121  -0.25097
C     0.49684   0.01542  -0.06441
C    -0.94551   1.32445   1.36766
C    -0.51269   2.57590   1.99998
C    -1.27571   3.80359   1.60628
O     0.46446   2.55821   2.73299
N    -1.83759   0.51788   1.42527
C    -2.29429  -0.67784   1.14041
C    -3.45555  -0.82331   0.33888
N    -4.40365  -0.95531  -0.32658
H     1.48481   4.82797   0.58098
H     3.28386   4.85820   0.54601
H     2.35145   4.70892  -0.98873
H     2.22333   0.69734   0.88663
H     3.75789   0.49090  -0.81574
H     2.62576   0.93258  -2.09676
H     3.51077  -1.47524  -2.10603
H     2.48669  -1.79486  -0.71453
H     0.83821  -0.44358  -2.69550
H     1.76479  -1.64118  -3.57475
H     0.81247  -3.47999  -2.29601
H    -0.47013  -2.41817  -2.90487
H    -2.86961  -4.38455  -0.92935
H    -1.16655  -4.89648  -0.71493
H    -1.71781  -4.23430  -2.28828
H    -0.77400  -3.61781   1.58180
H     0.93883  -4.06014   1.86072
H     0.44344  -2.33977   1.91466
H    -2.33882   3.68444   1.87047
H    -1.21601   3.93180   0.51445
H    -0.84737   4.67752   2.11470
H    -1.96585  -1.51766   1.75691
