27
Generated by autodE on: 2022-06-16. E = -574.457023 Ha
C    -1.50882   1.87848   1.62955
C    -0.87457   1.07910   0.49967
C     0.58334   0.68163   0.75810
C     1.60859   1.80132   0.72624
C     0.76359  -0.42029  -0.32977
C     1.14701   0.16611  -1.64246
N     1.39627   0.62740  -2.67617
C     1.79284  -1.40554   0.06062
N     2.58775  -2.17972   0.39501
O    -0.48067  -1.06741  -0.45552
C    -1.55955  -0.26507   0.16132
C    -2.04706  -1.04502   1.37631
C    -2.65403  -0.11389  -0.88275
H    -2.57526   2.06333   1.42824
H    -1.01469   2.85640   1.73036
H    -1.42458   1.35646   2.59443
H    -0.89202   1.69242  -0.41772
H     0.64415   0.15382   1.72271
H     1.44101   2.48343   1.57224
H     2.63189   1.40377   0.81283
H     1.53847   2.38656  -0.20346
H    -2.92668  -0.55904   1.82261
H    -1.26505  -1.12940   2.14519
H    -2.33782  -2.05994   1.06626
H    -3.08125  -1.09314  -1.14757
H    -3.46327   0.51843  -0.48666
H    -2.25514   0.35779  -1.79316
