15
Generated by autodE on: 2022-06-16. E = -417.068561 Ha
C    -2.20100   0.61942  -0.32786
C    -1.54324  -0.65571   0.01838
C    -2.31203  -1.89634   0.24531
O    -0.27774  -0.77135   0.13380
C     0.76063   0.14016   0.00162
C     0.60618   1.52446  -0.12699
N     0.56173   2.69192  -0.22598
C     2.02689  -0.45046   0.10063
N     3.09506  -0.92640   0.17504
H    -1.78021   1.01875  -1.26574
H    -2.01881   1.36989   0.45921
H    -3.28066   0.46848  -0.44124
H    -2.90545  -2.12068  -0.65823
H    -1.65596  -2.73981   0.49119
H    -3.03890  -1.72570   1.05842
