27
Generated by autodE on: 2022-06-16. E = -574.368203 Ha. Imaginary frequency = -318.2 cm-1
C    -0.85928   1.13206   2.38714
C    -0.72617   1.54518   0.94286
C     0.51894   1.67442   0.36877
C     0.80936   2.41945  -0.88848
C     0.74927  -0.96622  -0.21226
C     1.13194  -0.82844  -1.55484
N     1.51031  -0.69083  -2.65539
C     1.69756  -1.36344   0.74869
N     2.49530  -1.65257   1.55489
O    -0.55178  -1.07900   0.21222
C    -1.53842  -0.25851  -0.12221
C    -2.79823  -0.57533   0.61309
C    -1.68556   0.25358  -1.51837
H    -1.89117   0.87009   2.65532
H    -0.55455   1.96109   3.04840
H    -0.20939   0.27257   2.61585
H    -1.54351   2.13121   0.50700
H     1.38723   1.34238   0.94550
H     1.48226   3.26622  -0.66310
H     1.34468   1.79622  -1.62617
H    -0.10164   2.81864  -1.35612
H    -2.59167  -1.01034   1.59822
H    -3.37464  -1.30632   0.01824
H    -3.41888   0.32520   0.71554
H    -1.98293  -0.59926  -2.15526
H    -2.49240   0.99693  -1.54818
H    -0.77758   0.68920  -1.93937
