12
Generated by autodE on: 2022-06-21. E = -157.299003 Ha
C     1.58776   0.51132   0.20479
C     0.65132  -0.42550  -0.49795
C    -0.68090  -0.51246  -0.35620
C    -1.56198   0.30598   0.53948
H     2.13034   1.14181  -0.52183
H     1.07784   1.17673   0.91602
H     2.36068  -0.05009   0.75888
H     1.12678  -1.11385  -1.20827
H    -1.20199  -1.26674  -0.95950
H    -2.10573  -0.34001   1.25142
H    -2.33542   0.83269  -0.04699
H    -1.00729   1.05720   1.11970
