35
Generated by autodE on: 2022-07-27. E = -932.869550 Ha
C    -0.12121  -3.33664  -1.65665
N    -0.58114  -2.07523  -1.11049
C     0.22637  -1.00562  -1.06050
O     1.36288  -0.99631  -1.54003
C    -0.38657   0.23861  -0.45330
C    -1.82273   0.48889  -0.64858
C    -2.63566   0.85341   0.44290
C    -4.00371   1.05112   0.26370
C    -4.57699   0.89483  -1.00285
C    -3.77750   0.52877  -2.09098
C    -2.41062   0.31683  -1.91711
N     0.38614   1.11449   0.16748
C    -0.04301   2.51810   0.34069
C     1.62124   0.78016   0.73715
C     2.62088   1.76437   0.83042
N     3.46555   2.57098   0.91098
C     1.81469  -0.50540   1.36451
O     0.97079  -1.39045   1.47170
O     3.06050  -0.63260   1.87387
C     3.34219  -1.84717   2.57503
H    -0.94194  -4.06227  -1.61249
H     0.19721  -3.21873  -2.70359
H     0.73457  -3.72492  -1.08058
H    -1.49358  -2.02756  -0.66876
H    -2.19397   0.95997   1.43500
H    -4.62660   1.32321   1.11854
H    -5.64892   1.05319  -1.14100
H    -4.22121   0.40747  -3.08146
H    -1.78980   0.03596  -2.76970
H    -0.86851   2.74454  -0.33777
H     0.81106   3.16152   0.09568
H    -0.33676   2.69305   1.38332
H     3.20169  -2.71844   1.91823
H     2.69341  -1.95062   3.45758
H     4.39088  -1.77831   2.88811
