35
Generated by autodE on: 2022-06-21. E = -932.869563 Ha
C    -0.99790   3.58824  -0.11348
N    -1.05728   2.17215   0.18979
C    -0.46028   1.26867  -0.60133
O     0.09818   1.56522  -1.66038
C    -0.59611  -0.17168  -0.15491
C    -1.83438  -0.58706   0.52145
C    -3.08724  -0.18680   0.01734
C    -4.25881  -0.55707   0.67590
C    -4.19600  -1.31197   1.85215
C    -2.95469  -1.69922   2.36831
C    -1.77947  -1.34392   1.70831
N     0.35219  -1.04441  -0.45178
C     0.06834  -2.49487  -0.47219
C     1.67892  -0.67833  -0.71320
C     2.45661  -1.48338  -1.56387
N     3.11606  -2.14027  -2.27397
C     2.29084   0.41539   0.00278
O     1.75486   1.09949   0.86966
O     3.57848   0.59915  -0.36675
C     4.30267   1.61758   0.32918
H     0.04643   3.93917  -0.14201
H    -1.45661   3.80153  -1.09121
H    -1.54042   4.14006   0.66320
H    -1.47661   1.86724   1.06231
H    -3.13928   0.39924  -0.90188
H    -5.22611  -0.25441   0.26925
H    -5.11533  -1.59381   2.37043
H    -2.90122  -2.27695   3.29356
H    -0.81186  -1.63310   2.12145
H    -1.00916  -2.66554  -0.52970
H     0.54615  -2.91728  -1.36450
H     0.49121  -2.97145   0.42110
H     3.81853   2.59718   0.20166
H     4.37336   1.38563   1.40239
H     5.30456   1.63327  -0.11634
