47
Generated by autodE on: 2022-06-21. E = -1090.135458 Ha. Imaginary frequency = -375.1 cm-1
C    -1.31797  -3.58514   0.10184
N    -1.38934  -2.13876   0.04766
C    -0.36960  -1.40849  -0.43723
O     0.59855  -1.93539  -0.98499
C    -0.57925   0.12502  -0.28857
C    -1.98861   0.47238  -0.65945
C    -2.95348   0.80543   0.31103
C    -4.28358   1.02565  -0.05198
C    -4.67915   0.90794  -1.38706
C    -3.73587   0.54898  -2.35462
C    -2.40687   0.32451  -1.99400
C     0.82309   0.76683  -1.83492
C     0.38977   2.12813  -2.31875
C     2.07008   0.58199  -1.22482
C     3.10337   1.65964  -1.09447
C     1.31728   0.44708   1.12494
C     2.13246   1.44742   1.70741
N     2.84583   2.24588   2.17546
C     1.68586  -0.92076   1.53252
O     0.91242  -1.79093   1.89173
O     3.01881  -1.09269   1.51050
C     3.50830  -2.35637   1.97632
N     0.00551   0.77741   0.77511
C    -0.32575   2.19931   0.99011
H    -2.27656  -3.97418   0.46639
H    -1.11984  -4.00273  -0.89651
H    -0.51376  -3.91713   0.77839
H    -2.15343  -1.66947   0.52147
H    -2.66857   0.87374   1.36190
H    -5.01467   1.28213   0.71806
H    -5.71964   1.08212  -1.67025
H    -4.03582   0.43742  -3.39898
H    -1.68897   0.02226  -2.75687
H     0.47248  -0.08230  -2.42386
H     0.87108   2.35506  -3.28750
H     0.67175   2.93082  -1.62415
H    -0.69561   2.18739  -2.47946
H     2.43788  -0.44227  -1.17157
H     3.89731   1.37979  -0.38832
H     2.68986   2.62809  -0.78087
H     3.58388   1.82027  -2.07888
H     4.60105  -2.29901   1.91130
H     3.19881  -2.53454   3.01649
H     3.13302  -3.16984   1.33866
H    -1.23627   2.47167   0.45761
H     0.48720   2.83382   0.61446
H    -0.46002   2.38784   2.06334
