63
Generated by autodE on: 2022-06-13. E = -2147.927307 Ha. Imaginary frequency = -202.7 cm-1
C    -7.96529 -16.12989  13.81184
C    -9.40564 -15.69670  13.94157
O   -10.14479 -16.20682  14.76976
C    -9.89073 -14.70822  12.92110
C    -8.97280 -14.17152  11.86089
O   -11.10124 -14.86799  12.41109
N   -12.10887 -15.33842  13.14558
C   -13.21516 -15.48384  12.29662
C   -14.16041 -16.45503  12.67723
C   -15.30244 -16.66170  11.90682
C   -15.51601 -15.90816  10.74677
C   -14.57362 -14.94517  10.36159
C   -13.42864 -14.72920  11.12483
C   -11.82251 -13.37830  14.68533
C   -10.63892 -13.07736  14.46330
C    -9.58378 -12.04547  14.74343
C    -9.31349 -11.16569  13.51346
C   -10.24060 -11.11384  12.46387
C   -10.03818 -10.26251  11.37431
C    -8.90554  -9.44700  11.31824
C    -7.98250  -9.48281  12.36742
C    -8.18679 -10.33004  13.45888
C    -8.27474 -12.71528  15.25633
F    -7.58209 -11.90949  16.08038
F    -7.42232 -13.05332  14.27056
F    -8.52487 -13.84322  15.94933
C   -10.12292 -11.12086  15.88226
C   -10.59941 -11.86643  17.14201
C   -12.09539 -11.71437  17.42810
C   -13.07402 -11.87489  16.26146
C   -13.10777 -13.19009  15.40223
C   -14.29134 -12.98771  14.38675
F   -14.90693 -14.12483  14.05148
F   -13.83762 -12.41399  13.26145
F   -15.25297 -12.18465  14.86877
C   -13.38209 -14.40602  16.32121
F   -12.36722 -14.57917  17.18282
F   -13.52772 -15.56097  15.66715
F   -14.50068 -14.21021  17.04193
H    -7.85295 -16.72033  12.88663
H    -7.70592 -16.75731  14.67400
H    -7.27117 -15.28466  13.74002
H    -9.53931 -13.52454  11.18046
H    -8.14380 -13.59660  12.28073
H    -8.54410 -15.00347  11.27595
H   -13.97999 -17.03355  13.58392
H   -16.02950 -17.41873  12.20999
H   -16.41294 -16.06894  10.14446
H   -14.73934 -14.35127   9.45938
H   -12.70476 -13.96804  10.83288
H   -11.13009 -11.74332  12.49444
H   -10.77195 -10.24167  10.56516
H    -8.74417  -8.78433  10.46489
H    -7.09567  -8.84535  12.34128
H    -7.45706 -10.32897  14.26933
H    -9.33804 -10.39177  16.12013
H   -10.94021 -10.54364  15.43143
H   -10.04372 -11.49855  18.01798
H   -10.36018 -12.93457  17.06838
H   -12.28243 -10.69342  17.80179
H   -12.37479 -12.38967  18.25007
H   -12.92913 -11.06085  15.53790
H   -14.08111 -11.74355  16.67363
