53
Generated by autodE on: 2022-06-22. E = -1209.870695 Ha
C     3.11865   1.33415   3.11667
N     2.32274   1.09546   1.92943
C     2.76493   0.30153   0.94828
O     3.90273  -0.17596   0.90123
C     1.73398  -0.00098  -0.17198
C     2.46632   0.39025  -1.47930
C     2.11390   1.72243  -2.08073
O     3.35583  -0.30399  -1.93194
O     0.60110   0.84382  -0.01337
C    -0.64221   0.15508   0.00359
C    -1.15045   0.22552   1.46550
O    -0.59956   0.88038   2.32984
O    -2.28880  -0.42058   1.65976
C    -2.87860  -0.33786   2.96793
C    -1.66576   0.98186  -0.78952
C    -2.93929   0.47566  -1.09585
C    -3.86436   1.25429  -1.79298
C    -3.54108   2.55858  -2.18185
C    -2.28572   3.07697  -1.85933
C    -1.35652   2.29619  -1.16366
C    -0.30003  -1.27862  -0.57021
C    -1.21561  -2.42659  -0.13138
C    -0.33820  -1.22158  -2.10741
C     1.18083  -1.47328  -0.05156
C     1.21010  -1.93189   1.42220
C     1.96881  -2.52447  -0.83864
H     2.66240   2.14538   3.69788
H     3.18142   0.43500   3.75355
H     4.14162   1.62522   2.83936
H     1.32003   1.29225   1.94942
H     2.17245   2.50798  -1.31138
H     1.08067   1.72308  -2.45574
H     2.81026   1.93953  -2.90065
H    -3.79874  -0.93045   2.91880
H    -3.10790   0.70816   3.21489
H    -2.19405  -0.75452   3.71996
H    -3.21813  -0.53199  -0.79222
H    -4.84555   0.83730  -2.03162
H    -4.26693   3.16692  -2.72651
H    -2.02233   4.09805  -2.14539
H    -0.38464   2.71270  -0.90854
H    -1.31879  -2.51738   0.95397
H    -0.80614  -3.37191  -0.51837
H    -2.22119  -2.31145  -0.55800
H    -1.36018  -1.04057  -2.46210
H    -0.01144  -2.18122  -2.52768
H     0.29753  -0.43045  -2.52717
H     0.67706  -1.26366   2.10791
H     2.24938  -2.00327   1.77042
H     0.77153  -2.93375   1.51205
H     2.99402  -2.58812  -0.44850
H     2.03196  -2.32261  -1.91118
H     1.49196  -3.50646  -0.69778
