35
Generated by autodE on: 2022-07-27. E = -973.824473 Ha
C     3.12491  -0.62128   3.39663
N     2.89867  -0.76491   1.97496
C     1.75361  -0.35213   1.39687
O     0.78042   0.07452   2.05875
C     1.71531  -0.37738  -0.06312
O     0.58205   0.06836  -0.68076
C    -0.64595   0.05219  -0.28630
C    -1.05869  -0.91312   0.79243
O    -0.65877  -2.05901   0.78867
O    -1.96927  -0.41835   1.61358
C    -2.43531  -1.29437   2.65515
C    -1.58005   0.81504  -1.08126
C    -2.97795   0.62463  -0.96808
C    -3.84826   1.35437  -1.77195
C    -3.35007   2.28400  -2.69171
C    -1.96781   2.48384  -2.80917
C    -1.08752   1.76133  -2.01364
C     2.83460  -0.51408  -0.94629
C     2.61016  -0.26086  -2.42016
O     3.96269  -0.86162  -0.53260
H     3.31157   0.42703   3.68903
H     3.99785  -1.22188   3.68298
H     2.25026  -0.97599   3.96079
H     3.67018  -0.95227   1.32869
H    -3.17167  -0.71692   3.22444
H    -2.90063  -2.19034   2.22141
H    -1.59274  -1.58502   3.29827
H    -3.37896  -0.10079  -0.26214
H    -4.92468   1.19527  -1.68242
H    -4.03922   2.85760  -3.31544
H    -1.57897   3.21511  -3.52068
H    -0.01304   1.92873  -2.09214
H     2.17185   0.73494  -2.59098
H     3.57260  -0.33698  -2.94232
H     1.90854  -0.99934  -2.83947
