53
Generated by autodE on: 2022-06-22. E = -1209.784306 Ha. Imaginary frequency = -261.6 cm-1
C     3.36834  -0.56648   3.58412
N     3.10806  -0.04714   2.26020
C     1.85697   0.26086   1.85911
O     0.87947   0.12887   2.62403
C     1.70452   0.73477   0.48053
C     2.79803   1.15332  -0.36231
C     2.49080   1.92755  -1.62190
O     3.98359   0.86574  -0.09515
O     0.49418   1.12342   0.00411
C    -0.69688   0.55952   0.13560
C    -1.27329   0.34210   1.53478
O    -1.77034  -0.66866   1.97695
O    -1.37762   1.54226   2.11996
C    -1.91589   1.55601   3.44928
C    -1.69613   1.04499  -0.82653
C    -3.05238   0.68047  -0.69300
C    -3.99380   1.10423  -1.63067
C    -3.60507   1.90554  -2.70813
C    -2.26364   2.28540  -2.83996
C    -1.31622   1.85918  -1.91349
C    -0.13590  -1.52891  -0.83869
C    -1.36429  -2.32939  -0.46577
C    -0.12955  -1.10661  -2.28920
C     1.08905  -1.81309  -0.21715
C     1.12909  -2.57061   1.07763
C     2.37986  -1.83730  -0.98578
H     3.09633   0.15731   4.37075
H     4.43896  -0.79065   3.67229
H     2.79931  -1.49146   3.77216
H     3.85254   0.11855   1.58012
H     3.43848   2.20574  -2.09996
H     1.90060   1.31671  -2.32107
H     1.90518   2.83239  -1.40189
H    -1.91330   2.60544   3.76567
H    -2.94114   1.15904   3.45643
H    -1.28221   0.95546   4.11735
H    -3.37422   0.06205   0.14510
H    -5.03892   0.80929  -1.51453
H    -4.34464   2.23943  -3.43932
H    -1.95394   2.91928  -3.67390
H    -0.27510   2.15554  -2.02320
H    -1.41386  -2.60342   0.59027
H    -2.28943  -1.80025  -0.73418
H    -1.34617  -3.26002  -1.06334
H     0.53432  -0.25488  -2.48391
H    -1.13872  -0.84079  -2.62957
H     0.21739  -1.94602  -2.91751
H     0.34322  -2.26447   1.77663
H     2.10484  -2.46081   1.56933
H     0.99266  -3.64793   0.86573
H     3.24292  -1.59585  -0.34987
H     2.39268  -1.17765  -1.85997
H     2.53024  -2.87302  -1.34975
