42
Generated by autodE on: 2022-06-20. E = -1049.715931 Ha
C     2.85494  -0.83042   2.88255
N     2.17018  -0.84221   1.59705
C     2.63563  -0.02242   0.61212
C     2.13522  -0.00420  -0.65514
C     2.64075   1.00545  -1.59132
N     2.13398   0.98792  -2.85142
O     3.49523   1.85723  -1.27196
C     1.11626  -1.06024  -0.99553
C     0.14065  -1.29205   0.15378
C     0.77838  -1.27967   1.57569
C    -0.20872  -0.32575   2.32929
C    -0.25746  -0.31303   3.82969
N    -1.45604  -0.61432   1.67150
C    -1.01992  -0.24369   0.31211
C    -2.06581  -0.27209  -0.76332
C    -3.27078  -0.96014  -0.55781
C    -4.23255  -1.02654  -1.56950
C    -4.00104  -0.40933  -2.80203
C    -2.80047   0.27444  -3.01572
C    -1.83813   0.34508  -2.00521
C    -0.35347   1.12240   0.58657
O    -0.25201   2.10963  -0.10147
O     0.13844   1.04473   1.84010
H     2.69582   0.10943   3.43831
H     2.49438  -1.66607   3.49761
H     3.93549  -0.96042   2.72926
H     3.46765   0.63116   0.88563
H     1.42309   0.33213  -3.14693
H     2.44333   1.69819  -3.50538
H     1.62934  -2.01791  -1.19622
H     0.54216  -0.83224  -1.90273
H    -0.37477  -2.24884   0.00717
H     0.71403  -2.26953   2.04560
H    -1.09349   0.31761   4.16798
H     0.67117   0.08235   4.25650
H    -0.41065  -1.33624   4.19992
H    -2.19154   0.01257   2.00980
H    -3.45552  -1.44980   0.39889
H    -5.16689  -1.56434  -1.39169
H    -4.75278  -0.46115  -3.59320
H    -2.60918   0.75983  -3.97573
H    -0.91014   0.88670  -2.18394
