42
Generated by autodE on: 2022-06-20. E = -1049.661362 Ha. Imaginary frequency = -538.5 cm-1
C     2.92657  -1.04309   2.73392
N     2.25374  -0.97999   1.44585
C     2.77919  -0.19479   0.46778
C     2.24368  -0.04237  -0.77694
C     2.90654   0.88326  -1.70085
N     2.39085   0.96006  -2.95534
O     3.89724   1.57666  -1.38633
C     1.01975  -0.83870  -1.16941
C     0.30040  -1.35714   0.04682
C     0.91524  -1.45575   1.31657
C    -0.30858  -0.17825   2.41378
C    -0.16682  -0.36927   3.88451
N    -1.51999  -0.38830   1.79288
C    -1.40193   0.13670   0.51748
C    -2.37838  -0.03862  -0.55066
C    -3.43269  -0.96665  -0.42581
C    -4.33269  -1.16532  -1.47243
C    -4.19954  -0.44968  -2.66754
C    -3.15771   0.47287  -2.80215
C    -2.25549   0.68191  -1.75793
C    -0.40246   1.17582   0.62366
O    -0.01758   2.05448  -0.13169
O     0.18236   1.00042   1.87714
H     2.81809  -0.10852   3.30976
H     3.99968  -1.23097   2.58568
H     2.51182  -1.87066   3.32393
H     3.69891   0.33278   0.72843
H     1.59069   0.41772  -3.25363
H     2.80930   1.60933  -3.61184
H     1.29526  -1.69417  -1.82161
H     0.32478  -0.23515  -1.78077
H    -0.53131  -2.03672  -0.14014
H     0.70460  -2.33298   1.93373
H    -0.84153   0.31671   4.42305
H     0.85981  -0.17300   4.20989
H    -0.43129  -1.40314   4.14838
H    -2.01099  -1.26273   1.96438
H    -3.55907  -1.53950   0.49483
H    -5.14430  -1.88701  -1.35339
H    -4.90477  -0.60931  -3.48632
H    -3.04549   1.04050  -3.72902
H    -1.45443   1.41165  -1.86431
