52
Generated by autodE on: 2022-10-22. E = -1263.028065 Ha
C     4.07774  -0.64592  -2.10602
N     3.08308  -0.70811  -1.05313
C     2.37458   0.36375  -0.69361
O     2.54401   1.48080  -1.19505
C     1.26643   0.15695   0.38644
C     1.91405  -0.58376   1.59482
C     1.83163   0.05612   2.94473
O     2.50809  -1.63705   1.42250
N     0.78902   1.46695   0.77326
C    -0.64314   1.44219   1.00253
C    -1.29530   2.81453   0.82493
C    -0.60252   3.85756  -0.00707
O    -2.36269   3.05176   1.36616
C    -1.25906   0.28585   0.12843
O    -2.22301  -0.46055   0.83760
C    -3.44711   0.17274   1.17064
C    -1.75500   0.72020  -1.28438
C    -2.48886  -0.46669  -1.93756
C    -1.33260  -1.46210  -2.22967
C    -0.06486  -0.70333  -1.75917
C    -0.45924   0.74356  -2.10980
C    -0.01109  -0.65159  -0.20695
C    -0.04636  -2.03768   0.42231
O     0.19328  -3.06886  -0.17236
O    -0.27917  -2.00054   1.73524
C    -0.14833  -3.23007   2.45964
H     4.90278   0.03498  -1.84180
H     4.48494  -1.65144  -2.26658
H     3.62800  -0.28814  -3.04535
H     2.94202  -1.56377  -0.52011
H     0.79446   0.31987   3.19368
H     2.40859   0.99347   2.93817
H     2.24202  -0.63178   3.69481
H     1.06331   2.11983   0.04020
H    -0.85479   1.14554   2.04258
H    -0.34390   3.46819  -1.00336
H    -1.25318   4.73559  -0.10464
H     0.34059   4.15580   0.48010
H    -4.11605  -0.61945   1.53623
H    -3.31419   0.92757   1.95959
H    -3.91995   0.65997   0.30193
H    -2.33653   1.65095  -1.26962
H    -3.26528  -0.89789  -1.29537
H    -2.97202  -0.12712  -2.86526
H    -1.24101  -1.66292  -3.30709
H    -1.46463  -2.42708  -1.72917
H     0.85547  -1.08707  -2.20921
H    -0.65977   0.86779  -3.18430
H     0.26902   1.50140  -1.81182
H    -0.85850  -3.97773   2.07960
H     0.87756  -3.61476   2.36748
H    -0.37232  -2.98850   3.50482
