25
Generated by autodE on: 2022-10-26. E = -647.573625 Ha
C     2.92251  -1.46704  -2.48677
N     2.11762  -1.42170  -1.28456
C     1.16487  -0.50105  -1.10753
O     0.90557   0.38048  -1.95758
C     0.37993  -0.52809   0.15938
N    -0.51914   0.48808   0.14468
C    -1.44066   0.98125   0.94331
C    -2.24721   2.13504   0.54866
C    -2.03741   2.75974  -0.80834
O    -3.08701   2.56340   1.34118
C     0.55403  -1.50536   1.21687
C    -0.32565  -1.46878   2.43862
O     1.42543  -2.38938   1.12460
H     3.46813  -0.52223  -2.64026
H     2.30349  -1.64583  -3.38101
H     3.65018  -2.28254  -2.39499
H     2.23487  -2.09218  -0.52202
H    -0.38401   0.96831  -0.77402
H    -1.62917   0.54890   1.92114
H    -2.24724   2.03189  -1.60935
H    -0.99502   3.09561  -0.93268
H    -2.71057   3.61936  -0.91470
H    -0.18651  -0.52840   2.99612
H    -1.39044  -1.54195   2.16486
H    -0.05778  -2.31327   3.08587
