27
Generated by autodE on: 2022-10-22. E = -615.427499 Ha
C     3.60833  -0.80033  -0.24536
O     2.18996  -0.91028  -0.10390
C     1.51035   0.23882   0.13219
O     2.08919   1.31578   0.20309
C     0.09280  -0.02290   0.33184
C    -1.01724   0.75941   0.13961
O    -1.23578   1.96386  -0.38012
C    -0.21024   2.65930  -1.09454
C    -2.24092  -0.08086   0.43616
C    -2.34835  -1.07418  -0.76890
C    -1.12002  -2.00659  -0.56127
C    -0.45372  -1.40586   0.71195
C    -1.69425  -1.00730   1.53441
H     3.97803  -1.82051  -0.40493
H     3.86854  -0.16768  -1.10720
H     4.06107  -0.37354   0.66220
H     0.21871   2.00520  -1.86940
H     0.58684   2.99152  -0.41849
H    -0.70072   3.52108  -1.56422
H    -3.14861   0.50261   0.63332
H    -2.33493  -0.54211  -1.73095
H    -3.29556  -1.62939  -0.70402
H    -0.42696  -2.00431  -1.41423
H    -1.43325  -3.04622  -0.38106
H     0.27787  -2.06120   1.19768
H    -1.44316  -0.47534   2.46376
H    -2.36197  -1.85392   1.75535
