52
Generated by autodE on: 2022-10-22. E = -1262.987914 Ha. Imaginary frequency = -375.3 cm-1
C     4.25988  -0.59420  -1.81675
N     3.40906  -0.52014  -0.64730
C     2.56347   0.49608  -0.45792
O     2.49498   1.47489  -1.22324
C     1.61626   0.41801   0.71440
C     1.92084  -0.42350   1.89510
C     1.28704  -0.11199   3.22164
O     2.68328  -1.38837   1.79437
N     0.88875   1.56573   0.81623
C    -0.41725   1.61022   1.24269
C    -1.15616   2.88199   1.02201
C    -0.50839   3.99068   0.23021
O    -2.29053   3.01738   1.47236
C    -1.30452  -0.07696   0.31516
O    -2.02776  -0.62990   1.33496
C    -3.27735  -0.03953   1.68657
C    -2.00102   0.45225  -0.94592
C    -2.58575  -0.80044  -1.66460
C    -1.31583  -1.51955  -2.20613
C    -0.15174  -0.62273  -1.67757
C    -0.79420   0.76467  -1.84350
C    -0.15437  -0.81803  -0.16050
C     0.23892  -2.12146   0.39015
O    -0.05711  -2.58202   1.48249
O     1.03112  -2.79541  -0.46991
C     1.53111  -4.06139  -0.02910
H     4.95874   0.25627  -1.85922
H     3.66296  -0.58736  -2.74323
H     4.83817  -1.52513  -1.77487
H     3.38108  -1.26800   0.04629
H     1.25470   0.96597   3.43147
H     0.25536  -0.49704   3.21650
H     1.84725  -0.63728   4.00559
H     1.12827   2.18383   0.03266
H    -0.64864   1.13637   2.19414
H    -0.26215   3.65582  -0.79052
H     0.43127   4.31170   0.70716
H    -1.20110   4.83932   0.17190
H    -3.66664  -0.63103   2.52582
H    -3.14862   1.00679   1.99461
H    -3.99554  -0.08874   0.85263
H    -2.71929   1.26126  -0.77131
H    -3.25255  -0.48448  -2.47987
H    -3.16885  -1.42915  -0.97756
H    -1.22982  -2.55984  -1.86481
H    -1.29832  -1.52665  -3.30642
H     0.80866  -0.79517  -2.17481
H    -1.09338   0.95817  -2.88374
H    -0.16351   1.59116  -1.51037
H     2.09805  -3.94913   0.90543
H     2.18855  -4.42143  -0.82941
H     0.70625  -4.77206   0.12849
