29
Generated by autodE on: 2022-06-16. E = -670.838902 Ha
C     4.10265   1.07240  -0.73561
O     2.66840   1.11499  -0.68349
C     2.06059   0.05857  -0.14751
O     2.65354  -0.91727   0.27318
C     0.56698   0.19112  -0.11394
N    -0.00126   1.32641  -0.26026
C    -1.45355   1.16004  -0.10758
C    -2.23938   1.99622  -1.10405
C    -1.70379  -0.35157  -0.20459
C    -2.87453  -0.86597   0.57578
O    -3.61741  -0.17370   1.24424
C    -0.33655  -1.00340   0.18991
C    -0.25969  -1.32152   1.69669
C    -0.03022  -2.24896  -0.64525
H     4.41477   2.01155  -1.20636
H     4.43948   0.21448  -1.33542
H     4.52127   0.99568   0.27829
H    -1.70286   1.50972   0.90962
H    -2.00669   3.06614  -0.99263
H    -3.31825   1.85737  -0.93685
H    -2.00772   1.69395  -2.13794
H    -1.90356  -0.62292  -1.25780
H    -3.04658  -1.96593   0.50213
H    -0.56375  -0.45647   2.30578
H    -0.91988  -2.16759   1.94375
H     0.76612  -1.59812   1.97710
H     0.92229  -2.70630  -0.34475
H    -0.82792  -2.99507  -0.50452
H     0.02217  -2.00343  -1.71735
