15
Generated by autodE on: 2022-06-16. E = -400.060308 Ha
C    -3.50271   0.43614   0.36375
C    -2.49053  -0.57065  -0.07831
N    -1.31587  -0.25691  -0.45116
C    -0.22391   0.08625  -0.90577
C     0.98454   0.30569  -0.10814
O     1.28289   1.38420   0.37404
O     1.76611  -0.78156  -0.08145
C     3.04029  -0.63980   0.56822
H    -4.41257   0.35423  -0.25458
H    -3.80335   0.24287   1.40748
H    -3.10796   1.45902   0.29018
H    -2.74692  -1.63741  -0.08714
H     3.63726   0.14350   0.07907
H     3.53749  -1.61158   0.46887
H     2.90784  -0.39000   1.63089
