29
Generated by autodE on: 2022-06-16. E = -670.746469 Ha. Imaginary frequency = -204.9 cm-1
C     3.99463   0.51321  -0.93668
O     2.55773   0.51140  -1.02688
C     1.88845   0.61606   0.12125
O     2.39246   0.70194   1.22511
C     0.44520   0.47310  -0.08115
N    -0.43879   1.30597  -0.21572
C    -1.64116   1.72792  -0.36937
C    -2.22610   2.02560  -1.70779
C    -1.85698  -1.15277  -0.17707
C    -2.79965  -0.68379   0.79114
O    -2.64984  -0.53746   2.01805
C    -0.52524  -1.51971   0.03681
C     0.00562  -1.85867   1.41082
C     0.21892  -2.17291  -1.10494
H     4.34955   1.45920  -0.50408
H     4.35786   0.40478  -1.96463
H     4.33737  -0.32860  -0.31849
H    -2.16417   2.04607   0.53986
H    -2.22614   3.11400  -1.89485
H    -3.27517   1.69296  -1.72654
H    -1.66605   1.52575  -2.50983
H    -2.22004  -1.14583  -1.20919
H    -3.79496  -0.43330   0.34460
H    -0.38881  -1.18897   2.18198
H    -0.30822  -2.88677   1.66798
H     1.10493  -1.83941   1.42771
H     1.30568  -2.02646  -1.02131
H     0.03452  -3.26216  -1.07908
H    -0.11670  -1.79512  -2.08164
