24
Generated by autodE on: 2022-06-19. E = -721.634023 Ha
C     4.55411   0.00082  -0.08397
N     3.13407  -0.28505  -0.11385
C     2.19180   0.65386   0.07329
O     2.41307   1.84864   0.28541
C     0.80227   0.10847  -0.00117
O     0.62021  -1.18846  -0.23605
C    -0.78844  -1.46956  -0.25767
O    -1.16648  -2.60503  -0.45865
C    -1.39314  -0.20747  -0.01229
C    -2.80670   0.08775   0.07813
C    -3.74756  -1.07756  -0.11725
O    -3.24023   1.22269   0.30313
N    -0.35440   0.72514   0.13692
C    -0.54872   2.15509   0.40237
H     4.70040   1.07774   0.05490
H     5.02856  -0.30798  -1.02776
H     5.04240  -0.53648   0.74386
H     2.83618  -1.24309  -0.27479
H    -3.56021  -1.86064   0.63391
H    -3.59559  -1.54198  -1.10392
H    -4.78006  -0.71543  -0.02928
H    -1.08021   2.26825   1.35375
H    -1.15983   2.58136  -0.40035
H     0.43267   2.62978   0.44380
