12
Generated by autodE on: 2022-06-19. E = -381.636097 Ha
O     0.51589   2.61516  -0.07040
C     0.27880   1.41195  -0.03854
C     1.37481   0.41463   0.01996
C     1.11433  -0.90385   0.05548
C    -0.27881  -1.41194   0.03882
O    -0.51589  -2.61516   0.07025
C    -1.37481  -0.41463  -0.01998
C    -1.11433   0.90385  -0.05550
H     2.39238   0.81207   0.03241
H     1.90472  -1.65697   0.09911
H    -2.39237  -0.81208  -0.03261
H    -1.90472   1.65696  -0.09930
