36
Generated by autodE on: 2022-06-19. E = -1103.253333 Ha. Imaginary frequency = -360.5 cm-1
C     4.80700   0.67403  -0.35244
N     3.37351   0.87062  -0.46782
C     2.52180   0.21958   0.33129
O     2.86709  -0.56975   1.21114
C     1.05820   0.47661   0.02767
O     0.83806   1.59184  -0.77633
C    -0.48220   1.97754  -0.61748
O    -0.97621   2.85366  -1.28240
C    -0.98310   1.13924   0.47574
C    -2.35006   1.18077   1.05231
C    -3.39659   1.89682   0.25302
O    -2.59579   0.62205   2.11161
C    -0.94443  -0.49182  -1.40403
C    -2.04863  -1.27841  -0.87050
O    -3.23101  -1.06180  -1.16074
C    -1.70249  -2.41311   0.02658
C    -0.43475  -2.83603   0.18595
C     0.68869  -2.17660  -0.51264
O     1.79882  -2.69020  -0.56598
C     0.41577  -0.84956  -1.15752
N     0.09643   0.52953   1.03339
C     0.10329  -0.25215   2.27535
H     5.30381   1.22630  -1.15833
H     5.18291   1.03824   0.61654
H     5.05806  -0.39388  -0.43799
H     3.00941   1.53383  -1.14463
H    -3.44547   1.47891  -0.76403
H    -3.13561   2.96184   0.15582
H    -4.36574   1.78598   0.75494
H    -1.19414   0.18265  -2.22376
H    -2.54356  -2.91355   0.51253
H    -0.18267  -3.70212   0.80249
H     1.12819  -0.63068  -1.95838
H     1.04951  -0.79299   2.32859
H     0.01790   0.44077   3.12290
H    -0.74270  -0.94300   2.29491
