47
Generated by autodE on: 2022-06-22. E = -1301.311521 Ha
C    -2.02520  -3.24682  -1.23740
O    -1.47012  -1.94933  -1.45339
C    -1.23766  -1.09320  -0.37990
C    -2.52726  -0.43133   0.11578
O    -3.60560  -0.97333  -0.05869
C    -2.42331   0.85363   0.85197
C    -3.49169   1.17249   1.84967
C    -1.46087   1.74996   0.50183
C    -1.38598   3.12261   1.09248
C    -0.52919   1.42785  -0.60038
O    -0.00545   2.29875  -1.27531
C    -0.13694  -0.03520  -0.82636
O     0.38636  -0.26564  -2.08885
C    -0.41101   0.10864  -3.21621
C     1.01026  -0.35367   0.23254
C     2.03353   0.71075   0.45510
C     2.01890   1.46543   1.63463
C     2.93668   2.50475   1.80805
C     3.86656   2.79516   0.80587
C     3.87701   2.04274  -0.37333
C     2.96311   1.00295  -0.55299
O     0.25039  -0.68199   1.38857
C    -0.48783  -1.75503   0.85903
C    -1.25405  -2.48424   1.91796
O     0.54016  -2.59715   0.26591
C     1.50930  -1.75687  -0.17030
O     2.50827  -2.11070  -0.72942
H    -1.28484  -3.92772  -0.78972
H    -2.29273  -3.62511  -2.23335
H    -2.92866  -3.21272  -0.61536
H    -3.03952   1.48256   2.80527
H    -4.14742   0.31051   2.02294
H    -4.11113   2.01727   1.50402
H    -0.47218   3.64134   0.77790
H    -2.25358   3.72968   0.78183
H    -1.41307   3.06824   2.19151
H    -0.15865   1.12727  -3.54458
H    -0.18142  -0.60363  -4.02042
H    -1.48540   0.05301  -2.99047
H     1.28675   1.24333   2.41142
H     2.92159   3.09039   2.72992
H     4.58237   3.60909   0.94195
H     4.59956   2.26792  -1.16088
H     2.96360   0.42583  -1.47721
H    -1.83591  -3.30897   1.49138
H    -0.54497  -2.88053   2.65792
H    -1.93899  -1.78572   2.41835
