21
Generated by autodE on: 2022-06-22. E = -611.814827 Ha
C     3.67501   1.41532  -0.49150
C     2.52864   0.53948  -0.21339
O     2.61957  -0.69971   0.12425
C     1.21583  -1.23893   0.30488
O     1.07934  -2.40442   0.62621
C     0.44399  -0.12305   0.01785
C    -0.98314   0.09224  -0.00041
C    -1.86290  -0.96838   0.31322
C    -3.24235  -0.76862   0.29899
C    -3.78003   0.48277  -0.02530
C    -2.91498   1.53721  -0.33692
C    -1.53234   1.35072  -0.32651
O     1.30228   0.94409  -0.29429
H     4.35616   1.41385   0.37363
H     3.32427   2.43270  -0.69975
H     4.23077   1.02262  -1.35846
H    -1.45382  -1.94710   0.56774
H    -3.90560  -1.60174   0.54482
H    -4.86170   0.63406  -0.03465
H    -3.32022   2.51966  -0.59198
H    -0.86984   2.18250  -0.57176
