47
Generated by autodE on: 2022-06-22. E = -1301.270501 Ha. Imaginary frequency = -286.6 cm-1
C    -2.41348  -3.36539  -0.90670
O    -1.95119  -2.11013  -1.40365
C    -1.56519  -1.07653  -0.59128
C    -2.55837  -0.49123   0.34941
O    -3.59895  -1.08156   0.62352
C    -2.22163   0.81364   0.98009
C    -2.99551   1.20832   2.19936
C    -1.30912   1.63784   0.40112
C    -1.04622   3.01442   0.93028
C    -0.58708   1.24269  -0.84220
O     0.05201   2.08109  -1.48245
C    -0.69047  -0.16366  -1.27484
O    -0.25298  -0.60488  -2.45426
C     0.65681   0.11086  -3.30201
C     1.28407  -0.38907   0.40937
C     2.07739   0.80158   0.59824
C     1.86189   1.62863   1.71974
C     2.60696   2.79384   1.88453
C     3.57490   3.15453   0.93991
C     3.79564   2.33628  -0.17351
C     3.05526   1.16863  -0.34986
O     0.35040  -0.73329   1.34299
C    -0.25802  -1.85804   0.91684
C    -0.96072  -2.64139   1.96583
O     0.57577  -2.49028   0.04653
C     1.52391  -1.54968  -0.40425
O     2.28979  -1.80849  -1.30737
H    -1.56379  -4.00164  -0.61447
H    -2.93319  -3.84422  -1.74782
H    -3.11341  -3.25125  -0.07122
H    -2.31157   1.39638   3.04349
H    -3.70733   0.42493   2.48550
H    -3.55292   2.14411   2.02929
H    -0.17107   3.46548   0.45029
H    -1.91724   3.66643   0.74206
H    -0.89182   2.99661   2.01883
H     1.52736   0.46924  -2.74461
H     0.96941  -0.62113  -4.05741
H     0.15096   0.95559  -3.78751
H     1.10724   1.35191   2.45630
H     2.42958   3.42705   2.75665
H     4.15523   4.07040   1.07158
H     4.55017   2.61086  -0.91394
H     3.23116   0.53197  -1.21664
H    -1.63570  -1.98172   2.52607
H    -1.52931  -3.47183   1.53974
H    -0.20333  -3.04557   2.65806
