36
Generated by autodE on: 2022-06-17. E = -725.753413 Ha
C    -0.19165  -1.80237   2.24106
C    -0.33616  -1.40383   0.77914
C     0.78712  -0.46581   0.26681
N     1.54945  -1.08796  -0.81579
C     2.42791  -2.15301  -0.36770
C     1.98191  -0.30840  -1.87402
C     1.57909   0.94947  -2.13043
C     0.66870   1.69872  -1.20518
C    -0.00981   0.80497  -0.14807
C    -0.20454   1.69557   1.10418
N    -1.29984   2.46713   1.06411
O     0.64052   1.76222   2.00282
N    -1.34063   0.30311  -0.53316
C    -1.41756  -0.30427  -1.86709
N    -1.57140  -0.61532   0.55793
C    -2.79211  -1.37993   0.45129
H    -0.13880  -0.90783   2.88070
H    -1.03952  -2.41981   2.57562
H     0.72884  -2.38818   2.38756
H    -0.34090  -2.31638   0.15288
H     1.47722  -0.20027   1.08379
H     2.92408  -2.61745  -1.23202
H     1.85577  -2.93492   0.15325
H     3.21027  -1.78705   0.32838
H     2.67255  -0.82165  -2.54983
H     1.94101   1.45082  -3.03051
H    -0.11932   2.24115  -1.75325
H     1.24195   2.48105  -0.67609
H    -2.00980   2.24141   0.37432
H    -1.51745   3.06876   1.85166
H    -0.75916  -1.17775  -2.00682
H    -2.45454  -0.60938  -2.06489
H    -1.15717   0.45333  -2.61654
H    -2.78218  -2.13697  -0.35950
H    -3.64373  -0.70307   0.28612
H    -2.96411  -1.91218   1.39802
