16
Generated by autodE on: 2022-06-17. E = -268.004808 Ha
C    -1.86445  -1.32562   0.10134
C    -0.42557  -0.92515   0.13131
N    -0.02278   0.32705  -0.05743
C    -1.04707   1.35503  -0.30713
N     1.20982   0.80763  -0.05610
C     2.19297  -0.20433   0.18525
H    -1.94178  -2.40822   0.27487
H    -2.46983  -0.82279   0.87786
H    -2.35355  -1.11028  -0.86631
H     0.34199  -1.67201   0.31368
H    -1.74410   1.40584   0.53958
H    -0.52979   2.31051  -0.42750
H    -1.61013   1.11185  -1.21784
H     2.18687  -1.01930  -0.57449
H     2.07014  -0.71727   1.16667
H     3.18799   0.26223   0.17124
