20
Generated by autodE on: 2022-06-17. E = -457.715331 Ha
C    -3.14735  -0.35365  -0.24645
N    -1.82222   0.17895   0.02488
C    -1.68915   1.32453   0.81956
C    -0.49574   1.81557   1.18895
C     0.81522   1.18656   0.78616
C     0.57169  -0.06664  -0.03885
C     1.68980  -0.88399  -0.53741
N     2.93538  -0.44404  -0.22730
O     1.53516  -1.92596  -1.20664
C    -0.68940  -0.47799  -0.35217
H    -3.61725  -0.75637   0.66706
H    -3.80208   0.43157  -0.65450
H    -3.06997  -1.16130  -0.98516
H    -2.63107   1.79080   1.11396
H    -0.47326   2.71762   1.80473
H     1.41850   0.95565   1.68770
H     1.43040   1.91861   0.22311
H     3.10242   0.39998   0.30551
H     3.73352  -0.97784  -0.55337
H    -0.83613  -1.38258  -0.94448
