56
Generated by autodE on: 2022-06-13. E = -4269.901835 Ha
C    -5.39573  -1.77550  -2.47965
O    -4.51262  -2.22772  -3.52364
C    -4.39776  -3.52952  -3.67714
O    -5.00470  -4.36192  -3.04248
C    -3.41959  -3.96356  -4.79916
C    -2.73123  -2.84914  -5.62649
O    -3.19408  -1.76028  -5.85278
O    -1.60356  -3.31572  -6.14634
C    -0.84711  -2.42805  -6.98530
N    -4.28545  -4.59708  -5.79663
C    -3.92909  -5.82952  -5.86682
C    -4.71858  -6.76415  -6.75342
C    -5.29697  -6.18948  -8.00391
O    -4.85611  -7.93118  -6.42433
C    -2.78720  -6.19806  -4.98332
C    -2.45873  -5.05805  -4.30638
C    -1.32482  -4.79628  -3.33248
Br   -1.56170  -5.96996  -1.67979
C    -1.34878  -3.39459  -2.65175
F    -0.29999  -3.24675  -1.83901
F    -1.27702  -2.39972  -3.55728
F    -2.45430  -3.17419  -1.92657
C     0.09809  -4.94924  -3.94674
C     0.30338  -5.82525  -5.18055
C     0.32799  -7.33543  -4.96990
C    -0.91945  -7.96155  -4.35084
C    -2.28495  -7.63485  -5.03452
C    -3.31030  -8.58386  -4.32805
C    -4.30282  -7.98619  -3.36919
O    -3.20640  -9.78674  -4.45994
C    -2.06156  -7.98430  -6.53484
C    -1.89508  -9.40725  -6.97059
O    -1.97467  -7.07266  -7.34235
H    -5.05037  -2.15309  -1.50725
H    -5.34975  -0.68147  -2.50641
H    -6.41952  -2.12433  -2.67267
H     0.04386  -2.99107  -7.28418
H    -1.43710  -2.14281  -7.86751
H    -0.56262  -1.52976  -6.41972
H    -5.86812  -5.27660  -7.78226
H    -4.46266  -5.89587  -8.66355
H    -5.92622  -6.93608  -8.50397
H     0.38240  -3.93119  -4.25120
H     0.79274  -5.23326  -3.14398
H     1.28291  -5.53168  -5.59027
H    -0.42938  -5.55528  -5.95191
H     1.17674  -7.59868  -4.31658
H     0.53543  -7.81112  -5.94256
H    -0.99336  -7.70033  -3.29249
H    -0.81655  -9.05390  -4.37949
H    -4.94041  -8.78673  -2.97304
H    -3.75595  -7.50913  -2.54113
H    -4.92181  -7.20357  -3.82421
H    -1.25511  -9.98719  -6.29503
H    -1.49182  -9.41275  -7.99157
H    -2.88654  -9.88654  -6.96815
