23
Generated by autodE on: 2022-06-13. E = -741.439349 Ha
C     0.05556   3.74973   0.55031
O     0.16932   2.33806   0.33558
C    -0.98186   1.64359   0.27922
O    -2.07943   2.15774   0.39902
C    -0.73426   0.21571   0.06082
N     0.51913  -0.19303  -0.04641
C     1.63326  -0.53479  -0.13943
C     3.00191  -0.99938  -0.27315
C     4.04865   0.06644  -0.19436
O     3.19837  -2.19237  -0.44107
C    -1.80599  -0.77827  -0.04071
O    -2.99811  -0.53801   0.02850
O    -1.31050  -2.01571  -0.22366
C    -2.26465  -3.07831  -0.33501
H    -0.50974   4.22226  -0.26636
H    -0.44556   3.95778   1.50705
H     1.08167   4.13493   0.57042
H     3.91620   0.77508  -1.02865
H     3.93946   0.63559   0.74292
H     5.04156  -0.39919  -0.24797
H    -2.87004  -3.15350   0.58022
H    -1.67988  -3.99466  -0.47681
H    -2.92797  -2.91566  -1.19717
