56
Generated by autodE on: 2022-06-13. E = -4269.796456 Ha. Imaginary frequency = -332.7 cm-1
C    -6.06839  -4.49772  -2.05027
O    -5.47635  -4.38491  -3.35073
C    -4.93387  -3.20460  -3.66704
O    -4.98182  -2.22519  -2.95246
C    -4.26467  -3.26346  -4.99120
C    -3.60513  -2.08154  -5.59444
O    -3.50020  -0.99408  -5.06622
O    -3.11462  -2.37575  -6.80501
C    -2.39707  -1.33024  -7.47508
N    -4.47914  -4.30843  -5.75324
C    -4.23176  -5.44255  -6.06993
C    -4.89566  -6.39629  -7.01001
C    -4.91648  -5.96402  -8.43975
O    -5.35078  -7.43510  -6.57549
C    -2.63039  -6.06452  -4.85364
C    -2.13462  -5.09466  -4.24864
C    -1.09414  -4.54720  -3.38642
Br   -1.50050  -5.14353  -1.48947
C    -1.09030  -3.00375  -3.31356
F    -0.10992  -2.53767  -2.52881
F    -0.88392  -2.50120  -4.54726
F    -2.23626  -2.49983  -2.85447
C     0.32019  -5.01288  -3.79318
C     0.68455  -6.49386  -3.69322
C     0.04069  -7.48417  -4.67311
C    -1.31712  -8.07544  -4.25336
C    -2.56710  -7.54429  -5.04690
C    -3.76104  -8.29491  -4.38846
C    -4.58037  -7.54300  -3.38076
O    -3.93680  -9.47551  -4.61330
C    -2.34577  -7.87792  -6.53909
C    -2.39918  -9.29696  -7.01576
O    -2.09507  -6.96637  -7.31103
H    -5.30707  -4.33953  -1.27253
H    -6.46632  -5.51665  -1.98828
H    -6.87708  -3.76325  -1.92834
H    -3.04797  -0.45972  -7.64106
H    -2.07695  -1.75315  -8.43409
H    -1.52256  -1.02673  -6.88168
H    -5.29411  -6.78268  -9.06579
H    -3.90436  -5.66634  -8.75248
H    -5.56630  -5.07794  -8.53331
H     1.03323  -4.44935  -3.17543
H     0.45544  -4.67025  -4.83240
H     1.77234  -6.52349  -3.86316
H     0.53692  -6.84392  -2.65871
H     0.73688  -8.32969  -4.77931
H    -0.02123  -7.02489  -5.67247
H    -1.50714  -7.88025  -3.18710
H    -1.31367  -9.16688  -4.37179
H    -3.92937  -7.04534  -2.64631
H    -5.15958  -6.75122  -3.87469
H    -5.26165  -8.23995  -2.87659
H    -3.45551  -9.60422  -7.06612
H    -1.95854  -9.34560  -8.02013
H    -1.89421  -9.99106  -6.33263
