29
Generated by autodE on: 2022-05-31. E = -766.672212 Ha
C    -3.41987   2.53797  -0.76660
O    -2.81228   1.35616  -0.23421
C    -1.47304   1.38311  -0.07073
O    -0.80380   2.36308  -0.35982
C    -1.00243   0.11112   0.46967
C     0.21471  -0.49665   0.43445
C     1.54013  -0.11622  -0.03614
C     2.42601  -1.12923  -0.46706
C     3.69872  -0.81103  -0.93851
C     4.12466   0.52097  -0.96544
C     3.26569   1.53243  -0.52131
C     1.98559   1.22245  -0.06484
C    -0.09004  -1.94330   0.93645
C    -0.90385  -2.63980  -0.17309
C    -2.09623  -2.03694  -0.14478
C    -1.97822  -0.98308   0.97654
O    -1.11535  -1.66706   1.89741
H    -3.22922   3.40051  -0.11107
H    -3.03085   2.75521  -1.77233
H    -4.49527   2.33028  -0.81511
H     2.11015  -2.17358  -0.45029
H     4.36358  -1.60726  -1.28078
H     5.12574   0.76954  -1.32550
H     3.59745   2.57329  -0.52925
H     1.31897   2.01124   0.27603
H     0.75100  -2.48952   1.37398
H    -0.51718  -3.40231  -0.84809
H    -2.96388  -2.17000  -0.78992
H    -2.90077  -0.63299   1.44820
