54
Generated by autodE on: 2022-12-31. E = -1650.260139 Ha
C     0.89496  -5.33810   5.59672
N    -0.29897  -5.27806   4.77295
C    -0.44530  -4.34373   3.82665
O     0.43535  -3.51117   3.59317
C    -1.82861  -4.32619   3.10749
C    -2.10560  -5.83286   2.83426
O    -2.70374  -6.53352   3.65757
N    -1.54391  -6.33854   1.73175
C    -1.72013  -7.72867   1.35197
C    -2.78671  -3.70896   4.20168
C    -3.97346  -2.86231   3.74871
C    -5.14928  -3.61421   3.12574
C    -4.84661  -4.59532   1.99289
C    -4.20625  -3.99300   0.73673
O    -5.01262  -2.97058   0.18757
C    -6.41180  -3.17862   0.01723
C    -4.02835  -5.14177  -0.36503
F    -4.60392  -4.80266  -1.52574
F    -4.57460  -6.30581   0.01721
F    -2.73518  -5.39863  -0.64330
C    -2.84704  -3.30770   0.93952
C    -1.86045  -3.47601   1.84314
C    -0.73416  -2.46860   1.49144
C    -0.56783  -1.42970   2.53950
N    -0.55260  -0.52808   3.26777
C     0.54024  -3.13723   1.13489
N     1.47869  -3.64857   0.68606
O    -1.15480  -1.81849   0.30730
C    -2.50604  -2.15416  -0.01717
C    -2.55561  -2.42645  -1.51927
C    -3.33080  -0.96040   0.31600
N    -3.88773   0.02349   0.57398
H     0.83168  -6.22178   6.24248
H     0.99065  -4.43970   6.22702
H     1.79656  -5.41459   4.97101
H    -1.06426  -5.92199   4.95588
H    -1.09970  -5.71261   1.06816
H    -2.78283  -7.95922   1.17996
H    -1.34240  -8.39861   2.13867
H    -1.16178  -7.91264   0.42656
H    -2.16072  -3.06733   4.83766
H    -3.12613  -4.54838   4.82499
H    -3.63162  -2.05091   3.08858
H    -4.35075  -2.35473   4.65114
H    -5.89011  -2.87453   2.78627
H    -5.64465  -4.20483   3.91379
H    -4.24666  -5.43157   2.35815
H    -5.79044  -5.06005   1.67706
H    -6.75544  -2.35502  -0.62302
H    -6.63905  -4.13136  -0.48289
H    -6.95315  -3.13205   0.97388
H    -2.14561  -1.55026  -2.04066
H    -1.93651  -3.30311  -1.74568
H    -3.58307  -2.59419  -1.85720
