13
Generated by autodE on: 2022-12-31. E = -469.987390 Ha
C    -2.83388  -0.66429   0.22717
C    -1.50806  -0.00893   0.14414
C    -1.39882   1.40747   0.24097
N    -1.41910   2.56840   0.32931
O    -0.47687  -0.76021  -0.01346
C     0.84556  -0.53907  -0.12350
C     1.42325   0.74119  -0.07417
N     1.95002   1.78345  -0.03892
C     1.62118  -1.70133  -0.29253
N     2.28604  -2.65089  -0.43368
H    -2.71796  -1.75034   0.12088
H    -3.30894  -0.42888   1.19476
H    -3.49510  -0.27551  -0.56559
