41
Generated by autodE on: 2022-12-31. E = -1180.159839 Ha
C     3.71675  -1.63922  -0.30277
N     2.54875  -0.80528  -0.08604
C     2.38842  -0.10291   1.03948
O     3.22762  -0.10453   1.95125
C     1.08185   0.71156   1.19289
C     1.34047   2.20867   1.49851
O     0.58489   3.07041   1.03780
N     2.35526   2.48023   2.32462
C     2.66128   3.83572   2.73707
C     0.19988   0.57685   0.04255
C    -0.67417   0.14506  -0.67393
C    -1.83783  -0.67744  -1.02280
O    -3.06693   0.02073  -0.97098
C    -3.08982   1.38142  -1.39427
C    -1.66644  -1.29080  -2.42952
F    -2.66770  -2.13115  -2.72119
F    -1.64176  -0.34739  -3.38715
F    -0.51393  -1.97985  -2.52386
C    -1.90732  -1.80374   0.03956
C    -1.79345  -1.32431   1.49962
C    -0.38174  -1.26930   2.14939
C     0.26609   0.10674   2.39796
H     3.66718  -2.05984  -1.31409
H     3.75927  -2.46440   0.42587
H     4.64029  -1.04918  -0.20507
H     1.79975  -0.81083  -0.77252
H     2.94886   1.69703   2.60017
H     1.79346   4.30429   3.22662
H     3.49726   3.81039   3.44664
H     2.94467   4.46472   1.87765
H    -2.87310   1.48827  -2.46833
H    -2.37381   1.99067  -0.81807
H    -4.10738   1.74469  -1.19655
H    -1.12026  -2.54111  -0.17708
H    -2.87647  -2.30090  -0.11697
H    -2.30155  -0.35163   1.60357
H    -2.39278  -2.03085   2.09311
H     0.31427  -1.91464   1.58773
H    -0.46690  -1.73356   3.14381
H    -0.50847   0.84084   2.66794
H     0.96557   0.04028   3.24328
