54
Generated by autodE on: 2022-12-31. E = -1650.141742 Ha. Imaginary frequency = -126.4 cm-1
C     1.18374  -4.57870   5.51351
N    -0.16873  -4.55712   4.98678
C    -0.40314  -4.57863   3.66872
O     0.49989  -4.66261   2.83255
C    -1.88426  -4.61386   3.23561
C    -2.23600  -6.15162   3.14073
O    -3.14971  -6.63929   3.80084
N    -1.46920  -6.84731   2.29161
C    -1.74950  -8.22746   1.94447
C    -2.84943  -3.89595   4.22937
C    -4.13180  -3.24870   3.68018
C    -5.26472  -4.08522   3.05468
C    -5.07735  -4.86098   1.73850
C    -4.38531  -4.10841   0.57326
O    -4.97951  -2.87631   0.23562
C    -6.37104  -2.81949  -0.06596
C    -4.33317  -5.04871  -0.66404
F    -3.78436  -4.44201  -1.72556
F    -5.55877  -5.46062  -1.03043
F    -3.60578  -6.14986  -0.40806
C    -2.99383  -3.84899   1.02545
C    -2.14729  -4.09390   1.88148
C    -0.19666  -2.32979   1.00482
C    -0.42881  -1.74349   2.26786
N    -0.56220  -1.29292   3.33608
C     1.05895  -2.90401   0.69252
N     2.09579  -3.34996   0.40170
O    -0.95906  -2.12350  -0.07550
C    -2.18863  -1.72482  -0.20795
C    -2.70000  -1.65293  -1.60212
C    -2.83992  -0.97418   0.81921
N    -3.40145  -0.30264   1.58558
H     1.13638  -4.64354   6.60701
H     1.73489  -3.66675   5.23339
H     1.73866  -5.44601   5.12562
H    -0.94485  -4.45678   5.63153
H    -0.74426  -6.34724   1.78370
H    -2.56641  -8.29431   1.20615
H    -2.04261  -8.79212   2.83983
H    -0.84757  -8.68101   1.51459
H    -2.28168  -3.07979   4.69666
H    -3.09995  -4.62201   5.01623
H    -3.85774  -2.43193   2.99963
H    -4.58636  -2.74728   4.55098
H    -6.10533  -3.38670   2.91370
H    -5.61192  -4.82550   3.79429
H    -4.50195  -5.77839   1.90917
H    -6.06894  -5.19248   1.39594
H    -6.62368  -1.75101  -0.09315
H    -6.59900  -3.26447  -1.04679
H    -6.98604  -3.30658   0.70581
H    -2.47430  -0.65352  -2.01579
H    -2.20877  -2.41674  -2.21732
H    -3.78616  -1.79596  -1.61150
