50
Generated by autodE on: 2022-06-11. E = -6131.227565 Ha
C     1.94943   4.22319   2.20283
O     2.26698   3.03997   1.45400
C     1.52215   1.95863   1.68809
O     0.62985   1.93154   2.51297
C     1.97711   0.75462   0.85365
N     2.28483  -0.40329   1.67784
C     1.18969  -1.40897   1.60999
C     0.36683  -1.37482   2.90974
C     1.84725  -2.78557   1.42242
C     0.40594  -0.93338   0.36273
C     0.88581   0.25401  -0.06791
C     0.63011   0.98286  -1.36254
C     0.47729   2.48389  -1.16334
C     1.37746   3.42294  -1.68421
C     1.19053   4.79200  -1.46216
C     0.09762   5.24430  -0.71986
C    -0.81000   4.31603  -0.19746
C    -0.61942   2.95145  -0.41835
C     1.69828   0.57267  -2.39341
C     1.81273  -0.94280  -2.58832
C     0.47894  -1.68103  -2.81411
C    -0.08539  -2.48968  -1.63609
C    -0.61358  -1.76347  -0.39138
Br   -1.45582  -3.21714   0.72369
Br   -2.24233  -0.66759  -0.89719
H     0.88553   4.47101   2.09641
H     2.56936   5.02290   1.78237
H     2.18918   4.07248   3.26575
H     2.84812   1.09113   0.26754
H     2.46557  -0.14757   2.64581
H    -0.12595  -0.40064   3.02677
H    -0.39215  -2.16451   2.94561
H     1.04744  -1.52375   3.76437
H     1.11877  -3.60538   1.39410
H     2.52891  -2.96743   2.26815
H     2.44232  -2.80459   0.49745
H    -0.33026   0.63784  -1.75758
H     2.24181   3.09417  -2.26157
H     1.90729   5.50771  -1.87242
H    -0.04532   6.31309  -0.54404
H    -1.66779   4.65678   0.38743
H    -1.32452   2.22998   0.00092
H     2.68424   0.97012  -2.10547
H     1.43298   1.05013  -3.35126
H     2.33719  -1.39177  -1.72959
H     2.46647  -1.11341  -3.45796
H     0.62126  -2.42790  -3.61034
H    -0.29019  -0.99184  -3.19952
H    -0.89795  -3.12693  -2.01213
H     0.70285  -3.16600  -1.26635
