20
Generated by autodE on: 2022-06-11. E = -440.660172 Ha
C     3.65471  -0.42952   0.10482
O     2.32792  -0.89229  -0.12156
C     1.32208   0.01862   0.09551
O     1.57698   1.17753   0.47313
C     0.04115  -0.50953  -0.15437
N    -1.02104   0.34772   0.04105
C    -2.30590   0.15298  -0.10560
C    -3.25659   1.26512   0.17408
C    -2.78669  -1.18277  -0.55197
H     4.31847  -1.27401  -0.12261
H     3.90435   0.42004  -0.55068
H     3.80181  -0.11933   1.15176
H    -0.13852  -1.52745  -0.48409
H    -0.72073   1.27929   0.34944
H    -2.73455   2.18033   0.48950
H    -3.96938   0.97243   0.96466
H    -3.85869   1.49144  -0.72313
H    -2.35880  -1.44419  -1.53699
H    -2.46250  -1.97182   0.15065
H    -3.88132  -1.20287  -0.62598
