50
Generated by autodE on: 2022-06-11. E = -6131.134108 Ha. Imaginary frequency = -127.9 cm-1
C     3.06132   4.22415   1.29151
O     2.89158   2.82303   1.07972
C     2.01445   2.18440   1.89876
O     1.40039   2.77877   2.79274
C     1.90385   0.79509   1.59605
N     1.21296   0.03901   2.50948
C     1.06284  -1.26116   2.58240
C     0.17401  -1.81517   3.64438
C     1.95275  -2.18737   1.82414
C    -0.27115  -0.74730   0.03920
C     0.16100   0.38864  -0.19184
C     0.46381   1.39682  -1.22287
C     0.32223   2.85490  -0.82299
C     0.95064   3.87582  -1.55211
C     0.73156   5.21931  -1.23376
C    -0.11618   5.56586  -0.17747
C    -0.74019   4.55531   0.56005
C    -0.52208   3.21381   0.23717
C     1.78161   1.01012  -1.93867
C     2.03272  -0.50384  -2.06375
C     0.88412  -1.38609  -2.62284
C     0.28626  -2.43442  -1.66031
C    -0.74882  -1.90275  -0.65728
Br   -1.32808  -3.42896   0.52329
Br   -2.44439  -1.39920  -1.70553
H     2.09745   4.74904   1.27971
H     3.68963   4.58460   0.46794
H     3.56475   4.41467   2.25265
H     2.62758   0.30926   0.95074
H     0.64193   0.60521   3.14480
H    -0.35413  -1.02065   4.19105
H    -0.56858  -2.49503   3.19946
H     0.76592  -2.41006   4.36221
H     1.44234  -3.14197   1.64304
H     2.84838  -2.40066   2.43869
H     2.29035  -1.77902   0.86576
H    -0.34923   1.22093  -1.95664
H     1.61427   3.62755  -2.38165
H     1.23151   5.99940  -1.81319
H    -0.28345   6.61591   0.07373
H    -1.39661   4.81077   1.39549
H    -1.00815   2.42908   0.82103
H     2.62904   1.46254  -1.40027
H     1.76296   1.46650  -2.94077
H     2.34056  -0.89431  -1.08309
H     2.91514  -0.62320  -2.71219
H     1.27033  -1.95887  -3.47966
H     0.07119  -0.76703  -3.03445
H    -0.18810  -3.24436  -2.23271
H     1.09616  -2.89127  -1.06919
