37
Generated by autodE on: 2022-05-29. E = -1025.358760 Ha
C     3.91601   2.19259   0.59209
N     3.00720   1.25151  -0.03444
C     2.43251   0.26310   0.67056
O     2.65031   0.08473   1.87759
C     1.49691  -0.64082  -0.04292
C     0.73221  -0.46919  -1.14796
C     0.60913   0.67297  -1.97097
N     0.49229   1.60691  -2.65706
C    -0.17833  -1.70315  -1.19073
O     0.68390  -2.69989  -0.65050
C     1.06346  -1.98127   0.53357
C    -0.33585  -1.82413   1.21591
C    -0.57821  -0.66923   2.19051
C    -1.66421  -1.00361   3.20911
N    -0.93247   0.45786   1.30024
N    -1.66004  -0.15101   0.21165
C    -2.21603   0.58636  -0.77591
O    -2.61163   0.11083  -1.83710
O    -2.30581   1.88751  -0.44507
C    -2.83716   2.75723  -1.45105
C    -1.21435  -1.51635  -0.01851
H     3.41914   2.73311   1.41255
H     4.79595   1.67761   1.00921
H     4.25053   2.91540  -0.16109
H     2.83056   1.33360  -1.03023
H    -0.59142  -1.98957  -2.16095
H     1.81276  -2.52144   1.11951
H    -0.58567  -2.79054   1.66757
H     0.35063  -0.39792   2.71095
H    -1.87908  -0.12889   3.84289
H    -1.33834  -1.82731   3.86300
H    -2.59749  -1.30993   2.71032
H    -1.58516   1.08587   1.77344
H    -3.85689   2.45610  -1.73123
H    -2.85077   3.75886  -1.00508
H    -2.19295   2.75203  -2.34245
H    -2.06459  -2.19590  -0.15071
