16
Generated by autodE on: 2022-05-29. E = -417.364954 Ha
C    -3.68184  -0.07151   0.23340
C    -2.45391   0.54419  -0.31516
N    -1.27381   0.10655  -0.02557
N    -0.11072   0.60987  -0.48497
C     0.92284  -0.09084   0.02824
O     0.87019  -1.05429   0.80622
O     2.10324   0.40265  -0.42539
C     3.28142  -0.25017   0.04245
H    -4.32972  -0.41629  -0.59044
H    -3.45250  -0.92057   0.89326
H    -4.26087   0.68032   0.79628
H    -2.50256   1.40100  -0.99373
H    -1.18254  -0.70272   0.61482
H     3.29642  -1.30953  -0.25730
H     4.12613   0.27596  -0.42023
H     3.36304  -0.18913   1.13878
