16
Generated by autodE on: 2022-07-26. E = -417.365055 Ha
C     0.86888  -2.67445   1.85447
C     0.22894  -1.38595   2.19185
N    -0.03734  -0.45802   1.32942
N     0.21125  -0.49831   0.00656
C    -0.19122   0.65617  -0.56788
O    -0.71218   1.63310  -0.01213
O     0.04929   0.63275  -1.90277
C    -0.33276   1.79693  -2.63270
H     0.17762  -3.50288   2.08846
H     1.75899  -2.82255   2.48871
H     1.15288  -2.72450   0.79710
H    -0.05964  -1.15482   3.21980
H    -0.48573   0.41112   1.66522
H    -1.41592   1.97854  -2.55524
H     0.20458   2.68775  -2.27230
H    -0.06496   1.60266  -3.67909
