21
Generated by autodE on: 2022-05-29. E = -607.926307 Ha
C     3.75314  -0.44187  -0.32350
N     2.41838   0.05587  -0.04991
C     1.35249  -0.38172  -0.74052
O     1.42820  -1.20981  -1.65886
C     0.02062   0.14646  -0.36682
C    -0.53001   0.50594   0.81243
C     0.05298   0.59308   2.09318
N     0.51844   0.67991   3.15833
C    -2.05233   0.67726   0.49803
C    -2.59680  -0.73869   0.21471
C    -2.04237  -1.09243  -0.94807
C    -1.17033   0.11418  -1.35333
O    -1.94858   1.20116  -0.82873
H     4.03679  -0.25422  -1.37097
H     3.81802  -1.52650  -0.14347
H     4.46384   0.07130   0.33486
H     2.29254   0.75152   0.67831
H    -2.61611   1.32712   1.17388
H    -3.24173  -1.30376   0.88609
H    -2.09980  -2.02960  -1.49953
H    -0.92286   0.23877  -2.41155
