56
Generated by autodE on: 2022-07-03. E = -1233.606848 Ha
C     4.37219   1.01729  12.38578
O     3.93036   0.74639  11.04603
C     4.43780   1.50822  10.07710
O     5.24512   2.39168  10.27002
C     3.83741   1.15778   8.70238
C     2.44249   1.79428   8.64051
C     2.28704   3.16077   8.92027
C     1.02894   3.76150   8.83586
C    -0.08912   3.00510   8.46909
C     0.06064   1.64401   8.18991
C     1.31950   1.04176   8.27706
C     3.84720  -0.29559   8.53244
C     4.24352  -1.38436   8.17996
C     5.04914  -2.39804   7.48973
C     5.42365  -3.58656   8.38620
C     5.19643  -3.56112   9.76796
C     5.58708  -4.63541  10.57459
C     6.21333  -5.74879  10.00877
C     6.44577  -5.78045   8.62911
C     6.05184  -4.70889   7.82503
C     4.26416  -2.90567   6.26631
C     4.82181  -2.98922   4.98493
C     4.07332  -3.49503   3.91451
C     2.75954  -3.92413   4.11046
C     2.19468  -3.84566   5.38901
C     2.94180  -3.34045   6.45315
C     6.35772  -1.61746   7.12390
C     6.17721  -0.24002   6.44954
C     6.10712   1.01740   7.36301
C     4.74406   1.71261   7.55937
H     4.10888   2.04525  12.67345
H     5.45999   0.87995  12.46497
H     3.85049   0.29711  13.02611
H     3.15281   3.75997   9.20987
H     0.92236   4.82578   9.05875
H    -1.07316   3.47505   8.40316
H    -0.80641   1.04381   7.90370
H     1.43181  -0.02217   8.05884
H     4.71065  -2.69247  10.21754
H     5.39809  -4.59960  11.65034
H     6.51688  -6.58917  10.63755
H     6.93313  -6.64677   8.17513
H     6.22936  -4.74747   6.74831
H     5.84629  -2.66419   4.80445
H     4.52585  -3.55044   2.92145
H     2.17700  -4.31685   3.27376
H     1.16763  -4.17884   5.55700
H     2.49641  -3.28413   7.44958
H     6.97157  -2.27302   6.48917
H     6.92164  -1.48936   8.06072
H     7.04765  -0.10932   5.78782
H     5.30317  -0.26074   5.77841
H     6.55533   0.79179   8.34501
H     6.76437   1.77853   6.91416
H     4.15965   1.65182   6.62845
H     4.90517   2.78022   7.76737
