42
Generated by autodE on: 2022-05-29. E = -937.447580 Ha
C     3.88533   2.19667   0.78880
N     2.90408   1.13205   0.70602
C     2.58305   0.55023  -0.45127
O     3.13584   0.77037  -1.52997
C     1.40637  -0.45411  -0.39196
C     1.79217  -1.59934  -1.24681
N     2.11365  -2.53754  -1.84880
N     1.07714  -0.85284   0.97271
C     1.87274  -1.91727   1.56360
O    -0.27336  -1.36432   0.90517
C    -0.99846  -0.73748  -0.17495
C    -1.49166  -1.88889  -1.05677
C    -2.18979   0.02915   0.39462
C    -3.18418   0.52962  -0.46202
C    -4.26623   1.25169   0.04633
C    -4.37790   1.47944   1.42188
C    -3.39658   0.97891   2.28102
C    -2.31124   0.25935   1.77067
C     0.05941   0.21626  -0.87442
C    -0.01966   1.65210  -0.33302
C    -0.05978   0.26886  -2.39656
H     4.77547   1.93765   0.19891
H     4.17721   2.33363   1.83734
H     3.48044   3.14792   0.40456
H     2.31539   0.91345   1.50636
H     1.53832  -2.07264   2.59823
H     2.92401  -1.60093   1.57968
H     1.78313  -2.86744   1.00827
H    -0.65148  -2.46547  -1.46360
H    -2.10453  -2.56139  -0.43857
H    -2.10965  -1.53056  -1.88946
H    -3.11030   0.36821  -1.53880
H    -5.02644   1.63760  -0.63716
H    -5.22579   2.04170   1.82026
H    -3.47350   1.14714   3.35810
H    -1.54988  -0.12969   2.44620
H     0.76956   2.27314  -0.77973
H     0.06790   1.69649   0.75947
H    -0.98231   2.09699  -0.61327
H    -1.02867   0.70724  -2.67557
H     0.73535   0.90845  -2.80559
H     0.02123  -0.71697  -2.87052
