25
Generated by autodE on: 2022-05-29. E = -427.795937 Ha
C    -3.42032  -0.83939   0.10155
C    -2.05701  -0.24558  -0.14458
C    -2.11185   0.98808  -1.01273
C    -0.90235  -0.76645   0.33679
C    -0.80635  -2.03652   1.14887
C     0.41742  -0.10034   0.11139
C     0.65704   1.20917   0.56558
C     1.89979   1.82075   0.37980
C     2.93350   1.13242  -0.26290
C     2.71361  -0.17348  -0.71323
C     1.47172  -0.78444  -0.52125
H    -4.10849  -0.05940   0.47251
H    -3.42888  -1.66567   0.82253
H    -3.85853  -1.20636  -0.84395
H    -2.56546   1.83485  -0.46725
H    -2.76198   0.80281  -1.88554
H    -1.12946   1.30997  -1.37988
H    -1.77354  -2.52938   1.30559
H    -0.36165  -1.83156   2.13842
H    -0.13829  -2.76349   0.65691
H    -0.14358   1.75054   1.07465
H     2.06202   2.83900   0.74239
H     3.90563   1.60941  -0.40938
H     3.51377  -0.72023  -1.21861
H     1.31263  -1.80402  -0.88075
