17
Generated by autodE on: 2022-07-26. E = -509.620329 Ha
C     2.39323   2.24667  -0.60758
N     1.23707   1.38764  -0.77869
C     0.82846   0.57572   0.21475
O     1.40104   0.52325   1.30693
C    -0.36530  -0.26268  -0.10807
C    -0.92237  -0.27082  -1.41690
N    -1.33526  -0.23775  -2.50505
N    -0.98033  -1.06271   0.77052
C    -0.55199  -1.18397   2.18315
O    -1.96363  -1.75639   0.43214
H     3.28514   1.65789  -0.34341
H     2.22706   2.98801   0.19023
H     2.58089   2.77469  -1.54983
H     0.72778   1.42801  -1.65569
H    -0.52306  -0.19230   2.64541
H    -1.29722  -1.83223   2.65251
H     0.44897  -1.62775   2.21852
