17
Generated by autodE on: 2022-05-29. E = -509.624967 Ha
C     3.06913   0.19288   1.13740
N     1.63035   0.10772   0.98958
C     1.06144   0.05631  -0.22116
O     1.69292   0.07783  -1.28601
C    -0.43210  -0.03118  -0.28493
C    -0.99332  -0.08600  -1.58966
N    -1.45238  -0.13077  -2.65791
N    -1.25787  -0.05799   0.76256
C    -2.72561  -0.13840   0.54998
O    -0.86837  -0.01831   1.95317
H     3.31339   0.20704   2.20613
H     3.56853  -0.66933   0.66796
H     3.46480   1.10781   0.66847
H     1.00794   0.08310   1.79655
H    -2.96169  -1.06529   0.01183
H    -3.17688  -0.13681   1.54573
H    -3.05393   0.73097  -0.03369
