42
Generated by autodE on: 2022-05-29. E = -937.386354 Ha. Imaginary frequency = -357.7 cm-1
C     3.88491   2.29282   0.51932
N     2.95063   1.19095   0.66693
C     2.76367   0.31907  -0.33965
O     3.44326   0.35378  -1.37435
C     1.65649  -0.69285  -0.26631
C     1.75615  -1.67849  -1.31138
N     1.84044  -2.49033  -2.13921
N     1.01354  -1.16073   0.85055
C     1.10942  -0.60014   2.19328
O    -0.09448  -1.76902   0.55049
C    -1.14992  -0.49960  -0.60240
C    -1.71304  -1.59289  -1.47650
C    -2.16408   0.05433   0.36920
C    -3.05154   1.02643  -0.13199
C    -4.06303   1.56127   0.66787
C    -4.21204   1.13174   1.99070
C    -3.34898   0.15592   2.49449
C    -2.33984  -0.38408   1.68967
C    -0.14944   0.38849  -1.11858
C     0.01541   1.75335  -0.48648
C     0.15971   0.39041  -2.59769
H     4.87978   1.91860   0.24014
H     3.95809   2.82232   1.47697
H     3.55408   3.00122  -0.25863
H     2.26150   1.25888   1.40526
H     0.56342   0.35293   2.27753
H     2.16082  -0.47243   2.47304
H     0.65458  -1.32850   2.87431
H    -0.92770  -2.13213  -2.02128
H    -2.27295  -2.31489  -0.86456
H    -2.41292  -1.16520  -2.21507
H    -2.94505   1.36710  -1.16478
H    -4.73644   2.31692   0.25581
H    -4.99925   1.55163   2.62147
H    -3.46039  -0.19535   3.52340
H    -1.68325  -1.15559   2.08512
H     0.96644   2.21815  -0.78186
H    -0.04294   1.73060   0.60941
H    -0.78479   2.42533  -0.84170
H    -0.57976   1.02950  -3.11401
H     1.15484   0.81848  -2.79177
H     0.11634  -0.60129  -3.06050
