37
Generated by autodE on: 2022-06-17. E = -784.753770 Ha
C     1.19850  -2.57424   1.61999
C     0.04906  -2.74155   0.95131
C    -0.62554  -4.08031   0.82941
C    -0.65409  -1.62069   0.20890
C    -0.22145  -1.64851  -1.30292
C    -1.34389  -1.45599  -2.22577
N    -2.24389  -1.29805  -2.94133
N     0.76440  -0.56651  -1.48320
C     0.74758   0.16810  -0.43642
C     1.65435   1.36009  -0.27691
O     1.76814   1.92066   0.81949
N     2.30309   1.74185  -1.38479
C     3.23888   2.84725  -1.38604
C    -0.26355  -0.18454   0.63148
C    -1.40855   0.79845   0.56522
C    -1.71597   1.74784   1.46796
C    -0.95489   1.99931   2.74019
C    -2.88118   2.67281   1.23820
H     1.68649  -3.42163   2.11039
H     1.69570  -1.60480   1.70508
H    -1.63016  -4.04829   1.28546
H    -0.04459  -4.87877   1.31264
H    -0.77512  -4.35044  -0.23046
H    -1.73907  -1.77246   0.29216
H     0.24337  -2.60963  -1.57170
H     2.16856   1.18433  -2.22305
H     4.14746   2.60924  -0.80835
H     2.77995   3.74238  -0.93989
H     3.52618   3.07137  -2.42022
H     0.19595  -0.16140   1.62510
H    -2.02216   0.72713  -0.34053
H    -1.65000   2.07159   3.59363
H    -0.20680   1.22846   2.96434
H    -0.42952   2.96844   2.68009
H    -2.54683   3.72535   1.24024
H    -3.38941   2.47131   0.28375
H    -3.61927   2.58181   2.05435
