14
Generated by autodE on: 2022-06-17. E = -433.140675 Ha
C    -2.41536   0.19619  -0.81876
N    -1.84229   1.48537  -0.47326
C    -0.70402   1.66040   0.21436
O    -0.16301   2.73922   0.46155
C    -0.09894   0.43483   0.77111
N     0.83069  -0.28680   0.56843
C     1.82197  -1.11673   0.43069
C     1.63597  -2.35787  -0.21692
N     1.50799  -3.38896  -0.75013
H    -3.50149   0.30321  -0.93520
H    -2.23040  -0.52888  -0.01201
H    -1.99682  -0.20735  -1.75465
H    -2.24068   2.32906  -0.88078
H     2.80362  -0.83947   0.82418
