13
Generated by autodE on: 2022-05-29. E = -307.512031 Ha
C    -1.13372  -0.77331  -0.62537
C    -1.37645   0.51042  -0.34598
C    -0.17494   0.96145   0.51940
C     1.07096   0.98412  -0.39885
C     1.31364  -0.29979  -0.67768
C     0.21143  -1.08370   0.07484
O     0.07665  -0.25733   1.25041
H    -1.68960  -1.46781  -1.25480
H    -2.18577   1.15722  -0.68387
H    -0.32641   1.81835   1.18517
H     1.56577   1.88333  -0.76502
H     2.06190  -0.74189  -1.33508
H     0.41903  -2.12956   0.32701
