24
Generated by autodE on: 2022-05-29. E = -705.268183 Ha
C     3.33476   2.43600   0.21522
O     2.30746   1.44427   0.11960
C     2.72178   0.16671  -0.02533
O     3.90638  -0.15406  -0.07449
C     1.64036  -0.77331  -0.11630
C     1.84469  -2.14812  -0.27025
N     1.98106  -3.30456  -0.39850
O     0.36817  -0.27056  -0.04239
C    -0.74224  -0.90143  -0.10916
C    -1.97134  -0.18267   0.00265
C    -3.18092  -0.90983  -0.07323
C    -4.39799  -0.24356   0.03491
C    -4.42016   1.14411   0.21825
C    -3.22224   1.87251   0.29408
C    -2.00120   1.22062   0.18796
H     2.81782   3.39654   0.32758
H     3.97811   2.25141   1.08841
H     3.95483   2.44726  -0.69354
H    -0.72544  -1.98885  -0.25020
H    -3.14829  -1.99214  -0.21684
H    -5.33331  -0.80358  -0.02297
H    -5.37643   1.66508   0.30341
H    -3.25082   2.95452   0.43754
H    -1.06272   1.77454   0.24554
