37
Generated by autodE on: 2022-05-29. E = -1012.787819 Ha. Imaginary frequency = -158.9 cm-1
C    -3.18861  -0.89404  -1.85408
O    -2.15293  -1.08841  -0.88446
C    -2.42556  -0.71794   0.37870
O    -3.53584  -0.33980   0.74116
C    -1.29817  -0.82165   1.27558
C    -1.51916  -0.80640   2.66484
N    -1.69668  -0.75742   3.81976
O    -0.02765  -1.19143   0.92712
C     0.57576  -0.85490  -0.17614
C     1.95847  -1.22414  -0.34095
C     2.55235  -1.02084  -1.60426
C     3.89675  -1.32817  -1.80089
C     4.65814  -1.84210  -0.74488
C     4.07275  -2.04823   0.51276
C     2.73209  -1.74090   0.72039
C     0.64216   1.54596   0.25207
C     0.39985   2.07869  -1.17866
C     0.20188   3.60977  -1.07049
C    -0.97313   3.76583  -0.45245
C    -1.47831   2.32650  -0.19110
O    -0.96768   1.66497  -1.36706
C    -0.54816   1.73138   0.88297
H    -2.77892  -1.25259  -2.80560
H    -3.44593   0.17199  -1.93447
H    -4.08617  -1.47007  -1.58783
H    -0.02569  -0.55098  -1.02966
H     1.94771  -0.62185  -2.42170
H     4.35398  -1.17020  -2.77989
H     5.71187  -2.08448  -0.90030
H     4.67107  -2.45023   1.33321
H     2.27168  -1.89592   1.69742
H     1.61983   1.39979   0.70711
H     1.05576   1.70504  -1.97237
H     0.92259   4.35933  -1.39586
H    -1.47517   4.67589  -0.12589
H    -2.55508   2.17347  -0.06639
H    -0.75861   1.73178   1.94995
