34
Generated by autodE on: 2022-06-17. E = -914.785126 Ha
C     2.76439  -0.43169   2.63534
O     2.32350  -0.55665   1.27409
C     1.81890   0.53316   0.70339
O     1.79927   1.62755   1.22554
C     1.27027   0.23917  -0.69846
C     2.30297  -0.47267  -1.56382
O     0.93319   1.45070  -1.34717
O    -0.42412   1.82867  -0.88647
C    -1.07753   0.66847  -0.36284
C    -2.37819   0.39238  -1.12203
N    -2.60089   1.14388  -2.20538
O    -3.12461  -0.50736  -0.72862
C    -1.33749   0.86667   1.14516
C    -1.20882  -0.39851   1.93710
C    -0.72248  -1.53988   1.41701
N    -0.21993  -1.67036   0.13030
C    -0.39768  -2.94237  -0.55607
C    -0.09988  -0.50371  -0.68270
H     1.91530  -0.15616   3.27788
H     3.15127  -1.41696   2.91848
H     3.55416   0.32814   2.71698
H     1.90407  -0.60200  -2.57941
H     3.23793   0.10393  -1.60987
H     2.51743  -1.45886  -1.13211
H    -3.42948   0.97825  -2.76842
H    -1.94163   1.86896  -2.46624
H    -0.62541   1.63025   1.49411
H    -2.34048   1.30249   1.28399
H    -1.53967  -0.39190   2.97738
H    -0.69033  -2.46128   2.00508
H     0.34830  -3.04990  -1.35592
H    -1.40719  -3.03998  -0.99669
H    -0.25178  -3.76471   0.15917
H    -0.26322  -0.78743  -1.73054
