14
Generated by autodE on: 2022-07-27. E = -457.005403 Ha
C     1.53614  -1.25377   2.04683
O     0.94229  -1.12281   0.74265
C     0.29343   0.00953   0.49342
O     0.16723   0.92632   1.27152
C    -0.21029  -0.00869  -0.92701
C     0.43027  -0.84678  -1.96397
O    -1.18365   0.71339  -1.30446
O    -1.89651   1.50614  -0.47447
H     2.28233  -0.46149   2.20124
H     0.76082  -1.18902   2.82334
H     2.01285  -2.23974   2.06005
H    -0.03232  -0.66050  -2.94123
H     0.32375  -1.91011  -1.69308
H     1.51047  -0.63136  -2.00508
