14
Generated by autodE on: 2022-06-17. E = -457.015048 Ha
C     2.88767   0.04603  -0.09663
O     1.49919   0.40713   0.01743
C     0.61898  -0.57084  -0.12672
O     0.88250  -1.73420  -0.34551
C    -0.79933  -0.10137   0.00893
C    -1.95275  -0.99428  -0.11737
O    -0.94063   1.13975   0.24556
O    -2.18971   1.63432   0.38178
H     3.44988   0.97523   0.04570
H     3.15199  -0.68703   0.67858
H     3.08770  -0.37730  -1.09113
H    -1.63753  -2.02289  -0.31683
H    -2.60824  -0.61453  -0.92129
H    -2.55181  -0.93271   0.80857
