34
Generated by autodE on: 2022-06-17. E = -914.716235 Ha. Imaginary frequency = -317.0 cm-1
C     3.00567  -0.68795   1.99788
O     2.40198  -0.60458   0.70059
C     1.76151   0.52947   0.40662
O     1.71922   1.48921   1.15213
C     1.18605   0.45852  -0.96968
C     1.91748  -0.26950  -2.05043
O     0.48441   1.48846  -1.41612
O    -0.38406   1.99176  -0.50805
C    -1.45624   0.14282  -0.09041
C    -2.31296   0.66833  -1.19344
N    -3.37605   1.42090  -0.83417
O    -2.08445   0.38073  -2.37852
C    -1.77096   0.41347   1.36238
C    -1.02851  -0.51970   2.28176
C    -0.32943  -1.57437   1.83177
N    -0.19506  -1.86220   0.47469
C     0.55986  -3.03342   0.05889
C    -0.60807  -0.92490  -0.44329
H     3.81105   0.05464   2.09286
H     2.25296  -0.51634   2.78016
H     3.41232  -1.70244   2.07643
H     1.32515  -0.24343  -2.97510
H     2.09123  -1.31263  -1.76011
H     2.90045   0.19591  -2.23935
H    -3.92618   1.84593  -1.57362
H    -3.48796   1.78218   0.10523
H    -1.53611   1.46748   1.60056
H    -2.86154   0.31442   1.52993
H    -1.10111  -0.35282   3.35788
H     0.17122  -2.27386   2.50323
H     0.41302  -3.19365  -1.01693
H     0.19536  -3.92329   0.59380
H     1.63718  -2.92089   0.25491
H    -0.60982  -1.25285  -1.48170
