17
Generated by autodE on: 2022-06-02. E = -530.472839 Ha
C     3.17182   1.45914  -0.08946
C     2.77634   0.01660  -0.19405
O     3.53799  -0.92668  -0.32881
C     1.34771  -0.21523  -0.12315
N     0.19683  -0.41912  -0.05791
C    -1.12250  -0.37001   0.04277
C    -1.87636  -1.56498  -0.01217
N    -2.52524  -2.53352  -0.05371
C    -1.70914   0.97451   0.21055
C    -3.20565   1.04477   0.33021
O    -0.98147   1.96130   0.24750
H     3.72323   1.73501  -1.00275
H     3.85434   1.57178   0.76806
H     2.30237   2.11919   0.03461
H    -3.51565   2.09062   0.44722
H    -3.68116   0.61177  -0.56443
H    -3.54568   0.45487   1.19665
