51
Generated by autodE on: 2022-06-12. E = -8962.704405 Ha
C    -9.25861  -6.14480   2.59406
N    -8.65675  -4.93688   2.05947
C    -7.65355  -4.32497   2.68990
O    -7.24734  -4.66416   3.80848
C    -7.04671  -3.04712   2.06669
Br   -7.12385  -3.11083   0.04028
C    -7.96954  -1.89009   2.47460
C    -7.90228  -1.49501   3.96189
C    -7.32424  -0.09707   4.15628
C    -5.80304   0.04698   4.11687
C    -4.98421  -0.42892   2.90180
Br   -3.19793   0.49754   3.17328
Br   -5.65616   0.36017   1.20074
C    -4.75790  -1.92284   2.76094
C    -5.58787  -2.96026   2.44401
C    -4.75835  -4.19873   2.57577
C    -5.15785  -5.62447   2.26301
C    -4.63986  -6.67973   3.19020
O    -5.83915  -5.86390   1.28341
N    -3.54967  -3.98551   2.95637
C    -3.38592  -2.53595   3.06413
C    -2.37089  -2.20008   1.91123
O    -2.81280  -2.06767   0.77309
N    -1.06768  -2.19323   2.20271
C    -0.08033  -1.92049   1.17621
C    -3.02634  -2.31156   4.55006
O    -3.87902  -2.21421   5.40425
O    -1.72813  -2.34334   4.80972
C    -1.32615  -2.21758   6.18851
H   -10.16872  -6.37071   2.02520
H    -8.56678  -6.99994   2.51751
H    -9.52106  -6.00460   3.65168
H    -8.84688  -4.67957   1.09608
H    -7.73829  -1.02389   1.84782
H    -8.98938  -2.19351   2.20440
H    -7.32825  -2.23102   4.54512
H    -8.92248  -1.51271   4.37202
H    -7.61347   0.27941   5.15058
H    -7.78059   0.59230   3.42690
H    -5.57836   1.11354   4.24819
H    -5.36501  -0.48348   4.97501
H    -4.93745  -7.67207   2.82818
H    -5.05603  -6.50173   4.19498
H    -3.54553  -6.60971   3.27492
H    -0.78658  -2.26930   3.17517
H     0.92029  -2.01388   1.61523
H    -0.17286  -2.63234   0.34192
H    -0.19693  -0.90285   0.76858
H    -0.23205  -2.26423   6.18199
H    -1.74699  -3.04363   6.77749
H    -1.67063  -1.25548   6.59157
