27
Generated by autodE on: 2022-06-12. E = -8241.018014 Ha
C     0.42158   5.41340  -0.70915
N     0.65410   4.20499   0.05924
C     0.07109   3.03298  -0.22831
O    -0.68827   2.85085  -1.17909
C     0.46842   1.83606   0.67435
Br    0.07968   2.32509   2.59410
C    -0.28031   0.65173   0.32364
C    -0.48210  -0.42663  -0.15862
C    -0.15347  -1.62154  -0.88400
Br   -1.63408  -2.17069  -2.09332
Br    0.15535  -3.10529   0.41971
C     1.12140  -1.36153  -1.70783
C     2.29450  -0.71789  -0.94015
C     2.34535   0.83028  -0.81769
C     1.96944   1.46404   0.54195
H     0.05957   5.14122  -1.70790
H     1.35986   5.97666  -0.80708
H    -0.32890   6.06122  -0.22693
H     1.22386   4.27482   0.89647
H     1.43483  -2.31975  -2.14681
H     0.82627  -0.70474  -2.54155
H     3.19691  -1.02599  -1.48884
H     2.38737  -1.18002   0.05640
H     3.38750   1.13001  -1.00200
H     1.75966   1.29512  -1.62824
H     2.22004   0.77001   1.35712
H     2.55928   2.37789   0.70278
