24
Generated by autodE on: 2022-06-12. E = -721.580545 Ha
C    -2.31144  -3.45345   0.37284
N    -1.99512  -2.04102   0.34368
C    -0.74317  -1.60771   0.11573
O     0.21693  -2.36976  -0.07763
C    -0.54681  -0.13228   0.10383
N     0.68941   0.25704  -0.11844
C     1.82461   0.47031  -0.32136
C     3.21522   0.71144  -0.60348
C     4.03309  -0.53886  -0.76514
O     3.64546   1.85387  -0.68740
C    -1.58023   0.87740   0.31368
O    -2.76038   0.62407   0.52754
O    -1.09995   2.12612   0.24881
C    -2.04015   3.19091   0.44675
H    -2.07636  -3.93949  -0.58799
H    -1.74532  -3.97692   1.16020
H    -3.38326  -3.57171   0.57341
H    -2.71806  -1.33750   0.48692
H     4.57643  -0.48209  -1.72123
H     4.77614  -0.57346   0.04845
H     3.41447  -1.44663  -0.73479
H    -1.46418   4.11934   0.35958
H    -2.49866   3.12079   1.44379
H    -2.82725   3.15913  -0.32062
