51
Generated by autodE on: 2022-06-12. E = -8962.596475 Ha. Imaginary frequency = -304.5 cm-1
C    -9.40996  -5.86772   3.35287
N    -8.72588  -4.83764   2.59227
C    -7.68703  -4.16938   3.10280
O    -7.30816  -4.29826   4.27045
C    -6.99435  -3.12463   2.20367
Br   -6.67485  -3.91800   0.36232
C    -7.88797  -1.88855   1.98661
C    -8.15263  -1.06342   3.26350
C    -7.41150   0.28006   3.35272
C    -6.01304   0.31884   3.97700
C    -4.84044  -0.32451   3.22289
Br   -3.19376   0.18497   4.27263
Br   -4.61692   0.50664   1.40992
C    -4.96239  -1.74871   3.02706
C    -5.68398  -2.72383   2.74047
C    -4.57465  -4.54631   2.86511
C    -5.17266  -5.89473   3.13719
C    -4.94868  -6.33450   4.55461
O    -5.76438  -6.52103   2.28772
N    -3.43652  -4.15506   2.83590
C    -2.55049  -3.19888   2.91654
C    -1.97421  -2.69109   1.63076
O    -2.40331  -3.11046   0.55067
N    -1.02535  -1.74773   1.74152
C    -0.50190  -1.06913   0.57515
C    -2.00376  -2.91229   4.26761
O    -0.99207  -2.26444   4.47257
O    -2.74133  -3.45853   5.23317
C    -2.32126  -3.21587   6.58412
H   -10.32002  -6.16045   2.81546
H    -9.68515  -5.49079   4.34777
H    -8.76914  -6.75558   3.48254
H    -8.92200  -4.75404   1.60011
H    -7.40487  -1.26104   1.22455
H    -8.83639  -2.23932   1.55640
H    -7.95471  -1.66417   4.16608
H    -9.22973  -0.84137   3.28492
H    -8.01303   0.94810   3.98946
H    -7.38864   0.75778   2.35958
H    -6.03775  -0.17374   4.96309
H    -5.74486   1.37043   4.15229
H    -5.11524  -5.50138   5.25135
H    -5.61300  -7.17773   4.78454
H    -3.89538  -6.64797   4.65346
H    -0.73219  -1.47675   2.67795
H     0.30803  -0.39921   0.88834
H    -0.10596  -1.78854  -0.15800
H    -1.28285  -0.47170   0.07589
H    -1.29881  -3.58680   6.74208
H    -3.02829  -3.76151   7.21879
H    -2.36201  -2.13966   6.80580
