49
Generated by autodE on: 2022-06-24. E = -1277.875412 Ha
C     4.78289  -1.80079  -0.82539
N     3.37933  -1.73942  -0.47514
C     2.65987  -0.61656  -0.46278
O     3.10726   0.50964  -0.73138
C     1.18625  -0.79135  -0.06749
C     0.89582  -0.01237   1.25264
O     0.13948  -0.48922   2.10066
N     1.43559   1.20897   1.33867
C     1.10523   2.13651   2.40225
N     0.84296  -2.19028   0.15368
C    -0.34321  -2.42349  -0.26333
C    -1.00438  -3.75026  -0.14735
C    -1.03821  -1.21631  -0.91078
C    -1.90568  -1.58787  -2.12713
C    -2.00546  -0.59156   0.10835
O    -2.84208  -1.29077   0.66727
C    -2.00541   0.86248   0.34361
O    -2.99521   1.34065   1.14027
C    -2.98240   0.97054   2.52910
C    -1.10551   1.69805  -0.26088
O    -1.00598   3.02105  -0.14724
C    -1.77672   3.79511   0.78097
C    -0.09054   1.16690  -1.22049
O     0.50959   1.94491  -1.94138
C     0.19949  -0.32586  -1.23973
C     0.80905  -0.68807  -2.59991
H     5.16712  -0.78111  -0.94592
H     5.35374  -2.30912  -0.03412
H     4.93057  -2.34984  -1.76873
H     2.87678  -2.58795  -0.22285
H     2.09721   1.47380   0.60626
H     1.25988   3.16148   2.04218
H     0.05361   2.01269   2.69336
H     1.73165   1.97715   3.29557
H    -0.35792  -4.46400   0.37915
H    -1.24577  -4.14461  -1.14715
H    -1.95702  -3.63868   0.39180
H    -1.34491  -2.19220  -2.85064
H    -2.26484  -0.67670  -2.62780
H    -2.77877  -2.16534  -1.79563
H    -2.97471   1.89784   3.12361
H    -3.88886   0.39380   2.76208
H    -2.09222   0.37853   2.77639
H    -1.38988   4.81764   0.68719
H    -1.63024   3.43989   1.80961
H    -2.84258   3.77310   0.52184
H     1.03571  -1.76057  -2.65436
H     0.11416  -0.43657  -3.41118
H     1.73074  -0.12090  -2.76686
