26
Generated by autodE on: 2022-06-24. E = -689.460863 Ha
C    -2.65507  -1.97129   0.77559
O    -1.24233  -1.85455   0.97370
C    -0.51567  -0.87936   0.42840
C    -0.90048   0.10609  -0.43104
O    -2.16769   0.20766  -0.92983
C    -2.95203   1.29770  -0.43366
C     0.08986   1.07766  -0.94320
O    -0.26103   1.92338  -1.76421
C     1.50584   1.01512  -0.47015
C     2.45650   2.04980  -0.98376
C     1.90186   0.03329   0.37721
C     3.31534  -0.08393   0.85779
C     0.92208  -0.96981   0.86696
O     1.24993  -1.86686   1.63146
H    -2.95797  -2.84381   1.36825
H    -3.17927  -1.07790   1.14404
H    -2.89394  -2.13831  -0.28253
H    -3.92750   1.23417  -0.93379
H    -3.09402   1.20879   0.65633
H    -2.48513   2.26625  -0.66539
H     1.94867   2.76541  -1.64068
H     2.92216   2.59855  -0.14870
H     3.27975   1.57687  -1.54498
H     3.61371   0.82106   1.41275
H     4.01049  -0.17492   0.00723
H     3.44144  -0.95439   1.51224
