49
Generated by autodE on: 2022-06-24. E = -1277.816609 Ha. Imaginary frequency = -336.1 cm-1
C     3.91595  -2.44046  -1.38800
N     2.78714  -2.09864  -0.54381
C     2.56389  -0.83064  -0.15727
O     3.34899   0.09139  -0.44499
C     1.32374  -0.56799   0.62383
C     1.19375   0.56837   1.59255
O     0.30979   0.54246   2.46217
N     2.06025   1.57798   1.41547
C     1.95976   2.84320   2.10870
N     0.44408  -1.55033   0.77838
C    -0.50158  -2.10982   0.26154
C    -1.28438  -3.32923   0.48609
C    -0.99513  -1.04881  -1.47713
C    -1.16756  -2.18628  -2.46026
C    -2.24499  -0.56328  -0.80694
O    -3.30520  -1.18452  -0.89374
C    -2.16478   0.65115   0.02379
O    -3.23271   0.90798   0.83967
C    -3.35438   0.01608   1.95452
C    -1.11793   1.51363  -0.11978
O    -0.91302   2.67760   0.49589
C    -1.68617   3.10892   1.62090
C    -0.01536   1.21764  -1.10431
O     0.78522   2.11757  -1.38381
C     0.04373  -0.11366  -1.69156
C     1.07658  -0.34613  -2.75163
H     3.90050  -1.86061  -2.32354
H     4.87122  -2.23974  -0.87739
H     3.86176  -3.50851  -1.63013
H     2.13416  -2.82802  -0.28005
H     2.70612   1.46927   0.62930
H     1.53495   3.61721   1.44961
H     1.31067   2.73100   2.98513
H     2.95434   3.17577   2.44120
H    -1.19720  -3.64655   1.53498
H    -0.88212  -4.12186  -0.16539
H    -2.33673  -3.16703   0.21757
H    -0.25913  -2.79948  -2.52917
H    -1.37390  -1.78326  -3.46541
H    -2.00890  -2.82931  -2.17885
H    -4.16406   0.40704   2.58497
H    -3.60977  -1.00273   1.62438
H    -2.41621  -0.01138   2.53061
H    -1.19012   4.01994   1.97891
H    -1.67569   2.34995   2.41399
H    -2.71824   3.33765   1.32657
H     1.44541  -1.37949  -2.73974
H     0.63978  -0.17106  -3.75150
H     1.92352   0.33747  -2.62882
