55
Generated by autodE on: 2022-06-05. E = -1245.844616 Ha
C     0.43894  -0.24314   3.54684
C    -0.42770  -1.07423   2.64774
O    -1.39744  -1.68104   3.05748
C    -0.11608  -1.15934   1.12111
C    -0.41076  -2.56753   0.73943
N    -0.47426  -3.69138   0.45706
N     1.24784  -0.83082   0.76295
C     2.26546  -1.79869   1.15273
C     1.25957  -0.47960  -0.65183
C     2.52887   0.19556  -1.11518
C     2.93230   0.03745  -2.44836
C     4.06587   0.69631  -2.93196
C     4.81744   1.51251  -2.08137
C     4.42729   1.66604  -0.74685
C     3.28811   1.01520  -0.26729
C    -0.03771   0.38226  -0.84406
C    -0.45949   0.24804  -2.23325
N    -0.70865   0.20212  -3.36640
C     0.12229   1.90813  -0.52121
C    -1.18494   2.63860  -0.88110
C    -2.16913   2.14000   0.21277
C    -1.29391   1.20145   1.07933
C     0.05898   1.92725   1.00990
C    -1.04387  -0.13073   0.30024
C    -2.33221  -0.83733  -0.10358
C    -3.47125  -0.72757   0.71359
C    -4.64432  -1.42239   0.41341
C    -4.70614  -2.24812  -0.71238
C    -3.57659  -2.38325  -1.52210
C    -2.40198  -1.69267  -1.21407
H     1.43188  -0.04726   3.13076
H    -0.06257   0.72359   3.71571
H     0.51300  -0.75028   4.51907
H     3.26201  -1.35397   1.03496
H     2.14061  -2.07688   2.20827
H     2.22431  -2.72322   0.54487
H     1.12541  -1.39119  -1.26835
H     2.35012  -0.60687  -3.11158
H     4.36654   0.56535  -3.97414
H     5.70786   2.02341  -2.45538
H     5.01262   2.29784  -0.07451
H     2.98605   1.14134   0.77303
H     1.01683   2.32942  -0.99214
H    -1.02163   3.72351  -0.81224
H    -1.53123   2.42471  -1.90124
H    -2.52752   2.97012   0.83805
H    -3.05017   1.64198  -0.20755
H    -1.70568   1.04376   2.08162
H    -0.00575   2.95186   1.40430
H     0.88573   1.40523   1.49380
H    -3.44799  -0.09630   1.60099
H    -5.51429  -1.31567   1.06554
H    -5.62509  -2.78861  -0.95117
H    -3.60037  -3.03837  -2.39599
H    -1.52701  -1.85653  -1.84000
