27
Generated by autodE on: 2022-06-05. E = -649.495561 Ha
C     3.89870   1.63756  -0.50960
C     2.42451   1.36053  -0.27672
O     1.63152   2.32125  -0.19488
C     2.03873  -0.01904  -0.16392
C     3.03692  -1.00681  -0.28381
N     3.90258  -1.78750  -0.39416
N     0.70290  -0.46653   0.01284
C     0.52443  -1.92901   0.09766
C    -0.31569   0.35616   0.12589
C    -1.73368   0.04060   0.19553
C    -2.36957  -1.04074  -0.45435
C    -3.75058  -1.20495  -0.35684
C    -4.52313  -0.30520   0.38531
C    -3.90983   0.78467   1.01292
C    -2.53343   0.96580   0.90481
H     4.04333   2.72386  -0.57214
H     4.51480   1.23726   0.31078
H     4.25247   1.17014  -1.44184
H     1.34580  -2.34805   0.68825
H     0.53809  -2.37173  -0.90683
H    -0.41907  -2.15461   0.59910
H    -0.03151   1.40754   0.17131
H    -1.79831  -1.73306  -1.07109
H    -4.22924  -2.03993  -0.87308
H    -5.60386  -0.44479   0.46101
H    -4.50860   1.50060   1.58013
H    -2.05500   1.82464   1.38082
