28
Generated by autodE on: 2022-06-05. E = -596.319139 Ha
N    -0.65194   3.25970   0.81548
C    -0.84149   2.21503   0.32998
C    -1.13047   0.96887  -0.27063
C    -0.31595  -0.12272  -0.40440
C     1.08775  -0.29200  -0.03241
C     1.96619   0.80671   0.08072
C     3.29700   0.61867   0.44970
C     3.78181  -0.66710   0.71658
C     2.92536  -1.76614   0.60123
C     1.59483  -1.58345   0.22268
C    -1.21652  -1.24838  -0.89234
C    -2.12142  -1.62932   0.32664
C    -3.04396  -0.38727   0.48035
C    -2.54780   0.55166  -0.66261
C    -2.22043  -0.47089  -1.76603
H     1.61243   1.81378  -0.14192
H     3.96342   1.48114   0.52392
H     4.82507  -0.81116   1.00694
H     3.29570  -2.77355   0.80465
H     0.93741  -2.44990   0.13957
H    -0.69695  -2.09459  -1.35508
H    -1.52460  -1.83949   1.22498
H    -2.69921  -2.53334   0.08514
H    -4.10071  -0.64751   0.31973
H    -2.95939   0.09469   1.46439
H    -3.22403   1.37884  -0.90870
H    -3.08841  -1.07776  -2.06445
H    -1.75822  -0.01554  -2.65392
