23
Generated by autodE on: 2022-06-01. E = -852.834543 Ha
C     4.07285   0.82583   0.53734
N     2.66298   1.08257   0.32598
C     1.78777   0.14006  -0.08531
O     2.10632  -1.02776  -0.33931
C     0.38182   0.59931  -0.21120
C    -0.73506  -0.14416  -0.24571
C    -0.92884  -1.62124  -0.13777
F    -2.23750  -1.91124   0.02299
F    -0.51790  -2.27939  -1.23637
F    -0.28397  -2.15769   0.91338
C    -1.90324   0.87309  -0.28252
C    -1.93665   1.56291   1.10046
C    -0.83228   2.31297   1.13355
C    -0.14710   2.06594  -0.22867
O    -1.29150   1.89946  -1.07770
H     4.69026   1.45771  -0.12041
H     4.27944  -0.22695   0.31442
H     4.35624   1.03184   1.58130
H     2.32243   2.01831   0.52074
H    -2.84986   0.52119  -0.70297
H    -2.69258   1.38967   1.86506
H    -0.42601   2.93031   1.93355
H     0.53767   2.83378  -0.60373
