21
Generated by autodE on: 2022-06-01. E = -532.914976 Ha
C     3.73296   0.01716  -0.52852
O     2.52189   0.75248  -0.34419
C     1.39048   0.02314  -0.20894
O     1.42604  -1.20701  -0.24603
C     0.21054   0.85250  -0.02302
C     0.32015   2.34954  -0.00971
N    -1.00623   0.27378   0.14762
C    -2.14370   1.19955   0.34687
C    -1.27745  -1.05101   0.15447
C    -2.56688  -1.55983   0.34668
N    -3.61227  -2.06809   0.49998
H     3.92891  -0.63920   0.33265
H     3.68633  -0.59424  -1.44219
H     4.52970   0.76536  -0.61848
H     1.35885   2.64374  -0.18070
H    -0.29540   2.81859  -0.79483
H     0.00271   2.78293   0.95357
H    -1.96211   1.81269   1.23678
H    -3.06495   0.62821   0.48035
H    -2.24143   1.84975  -0.52993
H    -0.45034  -1.73761   0.00483
