44
Generated by autodE on: 2022-05-30. E = -1059.565110 Ha
C     1.44362  -1.48882   2.17041
N     1.14783  -0.15583   1.63923
N    -0.26323   0.15546   1.75168
C    -0.87416   0.12853   0.39135
C    -1.77413   1.35459   0.22358
C    -3.16491   1.26639   0.36805
C    -3.96289   2.41110   0.27627
C    -3.38035   3.65788   0.03438
C    -1.99218   3.75529  -0.10839
C    -1.19577   2.61277  -0.01023
C    -1.63005  -1.17491   0.10463
C    -2.02177  -1.47783  -1.20949
C    -2.71603  -2.65608  -1.48994
C    -3.03539  -3.54753  -0.45922
C    -2.65433  -3.24783   0.85098
C    -1.95575  -2.06787   1.13064
C     0.37937   0.19704  -0.45915
F     0.30909   0.47272  -1.76999
C     1.49658   0.00765   0.26244
C     2.89492  -0.02039  -0.17893
C     3.93194   0.26119   0.73083
C     5.26374   0.25469   0.31348
C     5.58425  -0.03092  -1.01742
C     4.56077  -0.31207  -1.92944
C     3.22826  -0.31010  -1.51689
H     0.93335  -2.29401   1.61140
H     1.13439  -1.53156   3.22323
H     2.52685  -1.66555   2.12294
H    -0.30596   1.12086   2.07644
H    -3.63147   0.29844   0.55525
H    -5.04569   2.32519   0.39442
H    -4.00477   4.55106  -0.04298
H    -1.52655   4.72521  -0.29873
H    -0.11205   2.70054  -0.11716
H    -1.78545  -0.78580  -2.01973
H    -3.01178  -2.87822  -2.51819
H    -3.57960  -4.46934  -0.67815
H    -2.90173  -3.93465   1.66431
H    -1.65793  -1.82960   2.15130
H     3.68425   0.49476   1.76713
H     6.05612   0.47694   1.03217
H     6.62707  -0.03666  -1.34292
H     4.80256  -0.54077  -2.97010
H     2.43912  -0.54080  -2.23316
