30
Generated by autodE on: 2022-07-26. E = -651.670954 Ha
C     3.45383  -0.44339   2.20156
N     2.50201  -0.81684   1.18077
N     1.54140   0.05003   1.07585
C     0.43866   0.02921   0.31093
C    -0.37242   1.25966   0.34054
C    -1.78329   1.19673   0.32201
C    -2.55442   2.35554   0.39344
C    -1.94312   3.61157   0.49400
C    -0.54815   3.69235   0.51400
C     0.22830   2.53453   0.42647
C     0.07298  -1.13171  -0.50751
C    -0.68508  -0.94663  -1.68747
C    -1.06862  -2.02900  -2.47752
C    -0.71198  -3.33275  -2.11491
C     0.04039  -3.53431  -0.95330
C     0.43721  -2.45370  -0.16497
H     4.43898  -0.86419   1.95081
H     3.17857  -0.84281   3.19836
H     3.56879   0.65448   2.30953
H     1.62368   0.90975   1.64345
H    -2.27660   0.22488   0.26771
H    -3.64440   2.27723   0.38274
H    -2.55011   4.51802   0.55032
H    -0.05577   4.66583   0.57750
H     1.31686   2.62584   0.39812
H    -0.96691   0.06179  -1.99311
H    -1.64648  -1.85151  -3.38796
H    -1.01180  -4.18107  -2.73460
H     0.32731  -4.54660  -0.65716
H     1.03864  -2.62520   0.72478
