44
Generated by autodE on: 2022-05-30. E = -1059.453337 Ha. Imaginary frequency = -281.4 cm-1
C     1.85290  -0.56771   2.44944
N     0.88522  -0.79893   1.40629
N    -0.13505  -0.01320   1.47012
C    -1.06633   0.08909   0.47835
C    -1.99623   1.24084   0.63472
C    -3.39006   1.08978   0.51393
C    -4.24356   2.18006   0.69236
C    -3.72574   3.44246   0.99925
C    -2.34221   3.60688   1.12090
C    -1.48661   2.52108   0.93106
C    -1.52646  -1.14007  -0.22935
C    -2.14481  -1.03523  -1.49053
C    -2.62608  -2.16641  -2.15014
C    -2.50756  -3.43047  -1.56348
C    -1.90513  -3.54616  -0.30722
C    -1.41906  -2.41546   0.35269
C     0.43796   0.74796  -0.98998
F    -0.33546   1.41957  -1.82505
C     1.59472   0.36545  -0.75113
C     2.95630   0.01328  -0.53969
C     3.85204   0.93066   0.05744
C     5.18285   0.57958   0.28500
C     5.65460  -0.68852  -0.07148
C     4.77616  -1.60679  -0.66065
C     3.44485  -1.26617  -0.89312
H     2.85280  -0.80330   2.05737
H     1.67424  -1.24166   3.30748
H     1.85254   0.47550   2.82110
H    -0.09559   0.78810   2.11849
H    -3.81146   0.10894   0.29157
H    -5.32301   2.03898   0.59857
H    -4.39589   4.29428   1.13596
H    -1.92390   4.59047   1.34728
H    -0.40607   2.67322   0.98895
H    -2.24501  -0.05684  -1.96054
H    -3.09638  -2.05788  -3.13045
H    -2.88259  -4.31691  -2.08028
H    -1.81269  -4.52585   0.16806
H    -0.94915  -2.52735   1.32888
H     3.48774   1.91919   0.34446
H     5.85779   1.30368   0.74834
H     6.69678  -0.96079   0.10997
H     5.13316  -2.60118  -0.94058
H     2.76188  -1.99015  -1.34211
