65
Generated by autodE on: 2022-10-23. E = -1925.695808 Ha
C    -1.67338  -2.90500   0.64055
O    -0.94538  -3.09695   1.86636
C     0.20028  -3.76518   1.79220
O     0.64758  -4.20973   0.75677
C     0.90168  -3.96540   3.18021
O     1.73097  -5.09724   3.01812
C     1.10224  -6.35394   2.80104
C    -0.22813  -4.12087   4.24321
C     0.10297  -4.74249   5.60137
C     1.29388  -4.15325   6.34687
C     2.64094  -4.59597   5.74526
C     3.55927  -3.45368   5.21656
C     4.22286  -2.88363   6.51458
F     3.30449  -2.48449   7.40497
F     4.94348  -3.85757   7.11282
F     5.07399  -1.86512   6.35208
C     4.71242  -4.10991   4.37584
F     5.05016  -5.32106   4.84725
F     5.83848  -3.37024   4.38400
F     4.37536  -4.27430   3.09322
C     2.80132  -2.44646   4.32065
C     1.77429  -2.71958   3.47439
C     1.37623  -1.46834   2.72100
C     1.61177  -1.47587   1.19327
C     2.87673  -2.10212   0.66230
O     0.85023  -0.84878   0.47177
N     2.28847  -0.45249   3.16790
C     1.83271   0.91594   3.13844
C     3.17977  -0.93669   4.23940
C     4.61618  -0.67089   3.75297
C     2.81260  -0.21159   5.54711
C     3.68447   0.66527   6.20226
C     3.28265   1.34388   7.35802
C     1.99702   1.16169   7.87233
C     1.10938   0.30397   7.21297
C     1.51463  -0.36940   6.06060
H    -1.95263  -3.87825   0.21346
H    -1.06408  -2.34204  -0.07834
H    -2.56846  -2.33471   0.91246
H     0.34747  -6.31267   2.00036
H     0.63109  -6.74521   3.71596
H     1.89926  -7.04473   2.49336
H    -0.64614  -3.11494   4.39382
H    -1.03427  -4.71581   3.78933
H    -0.80301  -4.62460   6.21848
H     0.25201  -5.82885   5.49583
H     1.20341  -3.06012   6.37539
H     1.25212  -4.48327   7.39543
H     2.46726  -5.27477   4.90985
H     3.21363  -5.16671   6.48366
H     0.31417  -1.21069   2.89286
H     3.69014  -1.36196   0.71350
H     3.18127  -2.97904   1.24660
H     2.72768  -2.37597  -0.39038
H     2.65911   1.59659   3.38815
H     0.99657   1.12028   3.83695
H     1.49030   1.16782   2.12249
H     4.70139   0.39216   3.48322
H     4.79542  -1.26310   2.84608
H     5.39799  -0.89840   4.47977
H     4.69400   0.82092   5.82267
H     3.98257   2.01789   7.85804
H     1.68525   1.68854   8.77734
H     0.09680   0.15971   7.59745
H     0.80973  -1.02778   5.55049
