41
Generated by autodE on: 2022-06-18. E = -977.409414 Ha
C    -0.07976  -2.14203  -2.29145
O    -0.61124  -0.92699  -1.73223
C    -0.64952  -0.84702  -0.41181
O    -0.28973  -1.72976   0.33946
C    -1.23991   0.48396   0.09652
C    -2.76406   0.31103   0.08502
O    -3.31736  -0.69446  -0.31097
O    -3.39597   1.37775   0.55226
C    -4.83218   1.31792   0.59240
C    -0.78076   1.71725  -0.69592
C     0.54985   2.04582  -0.00020
C     0.94475   3.51281  -0.11192
C     1.64048   1.12865  -0.50460
C     2.22940   0.16835   0.22841
C     3.17636  -0.79793  -0.30269
C     3.57863  -1.93825   0.30791
C     3.09682  -2.38755   1.65894
C     4.53396  -2.88039  -0.36878
O     0.22846   1.79835   1.38305
N    -0.77582   0.75509   1.46890
H     0.95785  -2.28510  -1.95845
H    -0.69188  -3.00089  -1.98267
H    -0.11960  -2.01404  -3.37871
H    -5.16004   0.48959   1.23627
H    -5.23558   1.17987  -0.42071
H    -5.16086   2.27735   1.00703
H    -1.49269   2.53720  -0.53893
H    -0.68650   1.51446  -1.76765
H     0.12628   4.15797   0.24074
H     1.84390   3.70960   0.49078
H     1.16967   3.76247  -1.15923
H     1.88917   1.24351  -1.56556
H     1.94063   0.07771   1.27852
H     3.55542  -0.59529  -1.31135
H     2.43995  -1.66314   2.15663
H     3.95179  -2.59890   2.32431
H     2.53988  -3.33630   1.56116
H     4.07938  -3.88047  -0.48513
H     4.84016  -2.51948  -1.36165
H     5.44067  -3.02617   0.24527
H    -0.26815  -0.08084   1.77513
