41
Generated by autodE on: 2022-06-18. E = -977.359097 Ha. Imaginary frequency = -349.5 cm-1
C    -2.33622  -0.57181   3.14501
O    -2.14799   0.08974   1.88171
C    -0.89770   0.32717   1.51309
O     0.07984   0.03268   2.17622
C    -0.78831   0.94746   0.15392
C    -1.89896   1.84886  -0.32644
O    -3.07262   1.54349  -0.34426
O    -1.44279   3.04463  -0.69246
C    -2.41607   3.97954  -1.18402
C    -1.13277  -0.64744  -1.18946
C    -0.06039  -0.58199  -2.10372
C    -0.30517  -0.09122  -3.50492
C     1.20831  -1.20731  -1.79445
C     1.56732  -1.69855  -0.57445
C     2.88048  -2.22425  -0.28096
C     3.31973  -2.68342   0.92019
C     2.49232  -2.70180   2.17407
C     4.71283  -3.22286   1.07288
O     0.74667   1.46128  -1.42169
N     0.49070   1.25986  -0.18248
H    -1.86592  -1.56515   3.12577
H    -1.90359   0.02750   3.95812
H    -3.42023  -0.66520   3.27305
H    -3.15111   4.21458  -0.40104
H    -1.85388   4.87844  -1.46118
H    -2.93360   3.56609  -2.06143
H    -2.12792  -0.38196  -1.54768
H    -1.11983  -1.42088  -0.41937
H    -0.63730  -0.92307  -4.15132
H    -1.09248   0.67663  -3.51914
H     0.60731   0.33080  -3.95071
H     1.95944  -1.20082  -2.59231
H     0.83022  -1.71145   0.23106
H     3.58475  -2.24737  -1.12114
H     1.53356  -2.17716   2.08155
H     3.05371  -2.23836   3.00378
H     2.29143  -3.74273   2.48545
H     4.68936  -4.25891   1.45628
H     5.26955  -3.21486   0.12443
H     5.28038  -2.63608   1.81748
H     1.22639   0.83132   0.39954
