22
Generated by autodE on: 2022-06-03. E = -524.865432 Ha
C     2.72629  -0.92110  -0.51439
C     1.85975  -0.01619   0.32389
O     2.29742   0.53576   1.33480
C     0.47862   0.17366  -0.12490
C    -0.54148   0.72577   0.57519
F    -0.49560   1.23381   1.79891
C    -1.84181   0.52343  -0.14614
C    -2.13794  -1.01344  -0.03557
C    -1.00898  -1.65385  -0.89373
C    -0.19161  -0.41276  -1.37030
C    -1.32703   0.60901  -1.59958
H     3.71453  -1.03233  -0.04932
H     2.83836  -0.50045  -1.52727
H     2.25111  -1.90857  -0.63142
H    -2.66158   1.18053   0.16743
H    -3.13308  -1.21875  -0.45563
H    -2.13496  -1.35158   1.01007
H    -1.42263  -2.19327  -1.75859
H    -0.38404  -2.35592  -0.32407
H     0.48123  -0.60342  -2.21415
H    -2.07254   0.27289  -2.33551
H    -0.95896   1.60993  -1.86751
