32
Generated by autodE on: 2022-07-27. E = -860.140814 Ha
C    -1.80650  -0.11417   3.62004
O    -1.23475   0.33053   2.37439
C    -1.68241  -0.24865   1.27204
O    -2.57825  -1.06106   1.21390
C    -0.95289   0.24839   0.04927
O     0.25814  -0.15759  -0.13414
N     0.81128  -1.05805   0.72510
C     2.13271  -1.25252   0.39621
C     2.81273  -2.23693   1.15737
C     4.15076  -2.52694   0.91028
C     4.85530  -1.85083  -0.09561
C     4.19294  -0.87170  -0.84723
C     2.85427  -0.56379  -0.61156
C    -1.55995   1.09535  -0.93991
C    -0.85686   1.46255  -2.11336
C    -1.45307   2.29860  -3.04905
C    -2.75413   2.78057  -2.84326
C    -3.45824   2.41936  -1.68926
C    -2.87228   1.58513  -0.74117
H    -2.89082   0.06376   3.62527
H    -1.60343  -1.18499   3.76242
H    -1.31639   0.47671   4.40130
H     2.26039  -2.76441   1.93814
H     4.65204  -3.29174   1.50914
H     5.90561  -2.08021  -0.28722
H     4.73147  -0.33099  -1.63015
H     2.36259   0.21200  -1.19849
H     0.15201   1.08211  -2.27821
H    -0.90416   2.57693  -3.95123
H    -3.21776   3.43519  -3.58439
H    -4.47201   2.79122  -1.52695
H    -3.43192   1.30853   0.15401
