32
Generated by autodE on: 2022-06-03. E = -860.142442 Ha
C    -0.84657   4.09485  -0.07017
O    -0.49143   2.70945   0.03932
C    -1.45437   1.82480  -0.24939
O    -2.58637   2.14960  -0.56459
C    -0.99191   0.41972  -0.15745
O     0.30565   0.35232  -0.01474
N     1.00664  -0.77029   0.10347
C     2.34017  -0.46128   0.30167
C     3.20503  -1.57264   0.43321
C     4.56894  -1.38330   0.63670
C     5.10184  -0.09013   0.71211
C     4.24881   1.01491   0.58292
C     2.88203   0.84453   0.38110
C    -1.88816  -0.72002  -0.24625
C    -3.23317  -0.58596   0.18078
C    -4.11536  -1.65736   0.09040
C    -3.69057  -2.88280  -0.43696
C    -2.36784  -3.02923  -0.86485
C    -1.46821  -1.96999  -0.76130
H     0.05548   4.65727   0.19626
H    -1.15461   4.33384  -1.09847
H    -1.66565   4.33798   0.62199
H     2.78022  -2.57673   0.37325
H     5.22400  -2.25203   0.73664
H     6.17223   0.05678   0.87112
H     4.65735   2.02685   0.64207
H     2.22648   1.70959   0.28490
H    -3.57648   0.35923   0.59606
H    -5.14379  -1.53732   0.43807
H    -4.38745  -3.72102  -0.50812
H    -2.02821  -3.98143  -1.27840
H    -0.44039  -2.10019  -1.08716
