54
Generated by autodE on: 2022-06-03. E = -1385.015000 Ha. Imaginary frequency = -139.8 cm-1
C    -0.93470   0.86580   4.18643
O    -0.31497   0.99552   2.89876
C    -1.09944   1.39222   1.90094
O    -2.27692   1.66818   2.06004
C    -0.39657   1.52327   0.59584
C    -0.90438   2.34079  -0.50867
C    -0.07981   2.56219  -1.63959
C    -0.53028   3.31400  -2.71988
C    -1.81932   3.85952  -2.71680
C    -2.64534   3.65081  -1.60940
C    -2.20009   2.90813  -0.51628
O     0.88279   1.21644   0.45974
N     1.44199   0.18005   1.10979
C     2.77846   0.07778   0.75423
C     3.46827  -1.02069   1.31709
C     4.80585  -1.24336   1.00458
C     5.48717  -0.37323   0.14329
C     4.81217   0.72666  -0.40090
C     3.47077   0.96093  -0.10463
C     0.21544  -1.61341   0.34151
F     0.35873  -2.25155   1.49912
C     1.00332  -2.06280  -0.86079
C     0.15120  -3.22221  -1.47981
C    -1.10085  -2.48330  -2.03829
C    -0.84645  -1.00094  -1.61194
C     0.67898  -0.91794  -1.83390
C    -0.95575  -1.00157  -0.08657
C    -2.21412  -0.98789   0.66056
C    -3.44967  -0.58090  -0.09924
O    -2.27106  -1.28563   1.85694
H    -1.30353   1.84011   4.53848
H    -1.76832   0.15265   4.13457
H    -0.15177   0.49103   4.85553
H     0.92360   2.14221  -1.66827
H     0.12987   3.46973  -3.57605
H    -2.17481   4.44111  -3.57029
H    -3.65284   4.07249  -1.59034
H    -2.85388   2.76261   0.33773
H     2.92693  -1.69123   1.98633
H     5.32471  -2.10019   1.44067
H     6.53903  -0.54551  -0.09435
H     5.34079   1.41653  -1.06330
H     2.95989   1.82872  -0.52013
H     2.05411  -2.30669  -0.66908
H    -0.09649  -3.98795  -0.73098
H     0.72952  -3.70642  -2.27962
H    -1.15131  -2.55445  -3.13505
H    -2.04359  -2.87407  -1.63118
H    -1.46335  -0.25724  -2.12896
H     0.96448  -1.15679  -2.86816
H     1.12596   0.03899  -1.55446
H    -4.30716  -0.53392   0.58417
H    -3.29516   0.39839  -0.57849
H    -3.65789  -1.30248  -0.90544
