11
Generated by autodE on: 2022-05-26. E = -285.486913 Ha
C     1.60027  -1.44063  -0.81726
C     0.86092  -0.53058  -0.50911
C     0.00645   0.60887  -0.18179
O     0.22057   1.71937  -0.68175
N    -0.99665   0.35680   0.67927
C    -1.30373  -0.93273   1.27708
H     2.25733  -2.25059  -1.09064
H    -1.59381   1.15197   0.89380
H    -1.62218  -1.66811   0.52194
H    -0.43811  -1.34135   1.81897
H    -2.12380  -0.79411   1.99186
