31
Generated by autodE on: 2022-05-26. E = -946.655845 Ha. Imaginary frequency = -458.6 cm-1
C     3.19610   0.77548   0.68098
N     2.61208   1.61015  -0.35516
C     1.56199   1.28657  -1.13223
O     1.04187   2.07156  -1.93618
C     1.00269  -0.06103  -0.96758
C     0.86266  -1.24383  -1.36721
C    -0.79257  -1.95470  -0.13837
C    -0.75053  -3.36884  -0.06431
N    -0.69299  -4.53012  -0.04404
C    -1.71163  -1.20980  -1.00105
O    -2.41881  -1.52589  -1.92137
O    -1.59550   0.10024  -0.55018
C    -0.62260   0.12606   0.42510
C    -0.44478   1.40082   1.19138
O     0.13326   1.41960   2.28070
N    -0.91258   2.48828   0.56467
C    -0.66451   3.81850   1.08919
N    -0.50043  -1.12626   0.93691
C     0.45691  -1.52444   1.96327
H     4.21235   1.13293   0.89105
H     2.60952   0.81071   1.61211
H     3.26314  -0.26716   0.34409
H     2.91960   2.57706  -0.43024
H     1.08540  -2.09706  -1.99490
H    -1.26496   2.39075  -0.38329
H    -1.21198   4.54627   0.47907
H    -1.00825   3.89168   2.13071
H     0.41021   4.06207   1.06262
H     1.47445  -1.51745   1.54373
H     0.20263  -2.53872   2.29310
H     0.39355  -0.82960   2.80287
