60
Generated by autodE on: 2022-06-28. E = -1380.813210 Ha
C    -0.87163  -0.07808  -3.25139
C    -0.74557  -1.01802  -2.30389
C    -0.59339  -2.47253  -2.65796
C    -0.67451  -0.76414  -0.80631
C     0.80680  -0.59292  -0.36822
C     1.06144  -1.08386   1.03156
C     2.17194  -1.70757   1.46524
C     3.36517  -2.03067   0.60803
C     2.30424  -2.11548   2.90837
C     1.01503   0.95296  -0.52952
C     2.11765   1.41842   0.45370
O     3.31180   1.21301   0.21107
N     1.66431   2.01001   1.56147
C     2.52249   2.29711   2.69120
C     1.50206   1.37327  -1.92414
O     1.17214   2.42614  -2.43474
O     2.33995   0.51218  -2.48422
C     2.83853   0.84712  -3.78935
N    -0.28414   1.54225  -0.24291
C    -1.34342   0.52801  -0.24604
C    -2.52785   1.02545  -1.08032
O    -2.63677   2.16384  -1.48986
O    -3.44350   0.08103  -1.25941
C    -4.59474   0.42896  -2.04372
C    -1.93189   0.33035   1.17284
C    -2.59410  -0.84828   1.54599
C    -3.12859  -0.98908   2.82905
C    -3.02695   0.05359   3.75534
C    -2.40055   1.24471   3.37980
C    -1.86401   1.38138   2.09645
H    -0.87182  -0.35756  -4.30895
H    -0.97325   0.98444  -3.03533
H     0.31750  -2.89506  -2.20031
H    -1.44185  -3.05400  -2.25765
H    -0.54199  -2.62771  -3.74502
H    -1.08752  -1.64969  -0.31208
H     1.47141  -1.11178  -1.06336
H     0.27309  -0.88573   1.76273
H     3.26466  -1.69372  -0.43113
H     4.26741  -1.55347   1.02694
H     3.55742  -3.11785   0.61035
H     1.40241  -1.87326   3.48990
H     2.49807  -3.19903   2.99690
H     3.16627  -1.60798   3.37638
H     0.65223   2.07128   1.64169
H     1.99421   2.95935   3.38846
H     2.80573   1.37330   3.22476
H     3.44396   2.79392   2.35592
H     3.38882   1.79779  -3.75665
H     3.50703   0.02743  -4.07506
H     2.00392   0.92583  -4.50093
H    -0.49919   2.31846  -0.86639
H    -4.28685   0.69085  -3.06643
H    -5.23182  -0.46241  -2.05474
H    -5.12817   1.27551  -1.58933
H    -2.69889  -1.66943   0.83650
H    -3.62796  -1.92104   3.10451
H    -3.44081  -0.05967   4.76006
H    -2.32818   2.07486   4.08653
H    -1.38769   2.31722   1.80335
