37
Generated by autodE on: 2022-06-28. E = -1029.254637 Ha
C    -3.25082   2.79751   1.88887
N    -2.97541   1.75651   0.92266
C    -1.75008   1.19697   0.82794
O    -0.78251   1.62936   1.49006
C    -1.60693   0.04026  -0.06238
N    -0.37012  -0.54048  -0.22571
C     0.85181  -0.05540  -0.12267
C     1.05420   1.42742  -0.17918
O     0.50119   2.13633  -0.99612
O     1.99008   1.84029   0.66861
C     2.28628   3.24509   0.65783
C     1.99268  -0.96924  -0.11860
C     1.85808  -2.28759   0.36696
C     2.93502  -3.17182   0.32332
C     4.16706  -2.75658  -0.19146
C     4.31637  -1.44712  -0.66313
C     3.24445  -0.55879  -0.62716
C    -2.72494  -0.70602  -0.58928
O    -3.91320  -0.39119  -0.50111
O    -2.33882  -1.83821  -1.22662
C    -3.37473  -2.68048  -1.74045
H    -4.25123   3.20570   1.69686
H    -2.51538   3.61112   1.80293
H    -3.21823   2.42559   2.92796
H    -3.73920   1.25964   0.46504
H    -0.43010  -1.53558  -0.46958
H     2.64560   3.55506  -0.33374
H     3.06855   3.39368   1.41054
H     1.38653   3.81902   0.92163
H     0.91668  -2.61413   0.81377
H     2.81518  -4.18617   0.71005
H     5.01203  -3.44822  -0.21726
H     5.27567  -1.11669  -1.06730
H     3.37339   0.45303  -1.01357
H    -2.86672  -3.52679  -2.21768
H    -3.98220  -2.13957  -2.48062
H    -4.02516  -3.03981  -0.92931
