37
Generated by autodE on: 2022-07-28. E = -1029.254826 Ha
C     1.78441  -0.73583   2.85724
N     1.58503  -0.73369   1.42063
C     1.78472   0.37761   0.68596
O     2.32756   1.38879   1.14696
C     1.33685   0.30413  -0.73476
N     0.10488  -0.06228  -1.12701
C    -1.05735  -0.32125  -0.53095
C    -2.07900  -0.78080  -1.48314
O    -1.85664  -0.94305  -2.67777
O    -3.27143  -0.98573  -0.92038
C    -4.32265  -1.43807  -1.78463
C    -1.31940  -0.08337   0.89797
C    -1.84866  -1.09953   1.71261
C    -2.07939  -0.86719   3.06919
C    -1.79351   0.38254   3.62800
C    -1.27554   1.40167   2.82181
C    -1.03749   1.17217   1.46659
C     2.22887   0.59018  -1.84882
O     1.87551   0.53585  -3.02439
O     3.48037   0.88377  -1.47174
C     4.41718   1.16233  -2.51922
H     1.36053  -1.65798   3.27214
H     2.85448  -0.68987   3.11507
H     1.28372   0.12829   3.32014
H     1.09318  -1.51723   1.00429
H     0.04553  -0.15594  -2.15721
H    -4.05215  -2.39637  -2.25118
H    -5.20433  -1.56219  -1.14564
H    -4.52259  -0.69347  -2.56869
H    -2.06529  -2.07702   1.27890
H    -2.48149  -1.66786   3.69413
H    -1.97339   0.56227   4.69034
H    -1.05380   2.38141   3.25079
H    -0.62871   1.97069   0.84453
H     4.08720   2.02583  -3.11521
H     5.36686   1.38916  -2.02080
H     4.53409   0.28915  -3.17775
