60
Generated by autodE on: 2022-06-28. E = -1380.754662 Ha. Imaginary frequency = -351.6 cm-1
C    -0.44948  -1.02235  -3.46066
C    -1.07386  -1.53994  -2.38322
C    -2.30552  -2.39947  -2.53102
C    -0.63360  -1.31701  -0.99764
C     0.71856  -1.04617  -0.65895
C     1.22911  -1.57372   0.60306
C     2.52435  -1.80599   0.93300
C     3.68933  -1.50099   0.03540
C     2.88413  -2.34925   2.28701
C     0.72181   1.26177  -0.60129
C     1.09213   1.90745   0.73505
O     1.00023   3.13986   0.81238
N     1.54084   1.14673   1.73001
C     1.91310   1.70665   3.01239
C     1.72402   1.52686  -1.65193
O     1.46957   1.66158  -2.83948
O     2.96624   1.53996  -1.15745
C     4.04360   1.65418  -2.09531
N    -0.56830   1.38568  -1.05440
C    -1.61888   0.68337  -0.53521
C    -2.79381   0.69415  -1.44196
O    -2.75551   1.11601  -2.58694
O    -3.88850   0.16337  -0.88961
C    -5.05668   0.09114  -1.71880
C    -1.85803   0.68180   0.94067
C    -2.28190  -0.45467   1.64932
C    -2.51689  -0.39070   3.02365
C    -2.34358   0.81135   3.71715
C    -1.95759   1.95689   3.01692
C    -1.73000   1.89444   1.64077
H    -0.83493  -1.20715  -4.46723
H     0.44253  -0.39944  -3.37782
H    -2.08426  -3.43844  -2.23035
H    -3.11531  -2.05556  -1.87022
H    -2.67534  -2.41135  -3.56615
H    -1.20673  -1.86315  -0.24908
H     1.42667  -0.99716  -1.48625
H     0.46581  -1.81381   1.35215
H     4.28057  -0.66715   0.45348
H     4.36887  -2.36862  -0.01660
H     3.39633  -1.22579  -0.98527
H     1.99698  -2.51855   2.91467
H     3.43691  -3.30097   2.19543
H     3.55844  -1.65194   2.81610
H     1.62002   0.14284   1.57148
H     1.04746   2.18152   3.50205
H     2.28397   0.89762   3.65388
H     2.70229   2.46702   2.90204
H     3.98397   2.60955  -2.63614
H     4.96452   1.61072  -1.50302
H     4.01494   0.82310  -2.81453
H    -0.63101   1.48974  -2.07238
H    -4.85690  -0.51776  -2.61190
H    -5.83267  -0.37892  -1.10411
H    -5.37097   1.09941  -2.02469
H    -2.43370  -1.39891   1.12943
H    -2.83557  -1.28977   3.55614
H    -2.51909   0.85578   4.79447
H    -1.83678   2.90868   3.53941
H    -1.44182   2.79550   1.10186
