34
Generated by autodE on: 2022-10-20. E = -840.530265 Ha
C     3.99267   0.97163  -0.29734
O     2.63985   1.38156  -0.04995
C     1.76805   0.46999   0.32997
C     1.83176  -0.87054   0.58147
C     2.88639  -1.79560   0.49946
N     3.72138  -2.61161   0.45290
C     0.36349  -1.26114   0.83512
O    -0.14178  -0.07087   1.46513
C     0.29875   0.84149   0.45284
C    -0.38347   0.28736  -0.83625
C    -1.89084   0.61890  -0.96489
C    -2.28038   2.05663  -0.68232
C    -3.65824   2.32107  -0.14954
O    -1.49450   2.96011  -0.92804
N    -2.63454  -0.39376  -0.21513
C    -1.88262  -1.63442  -0.47140
C    -2.24835  -2.73649   0.50646
C    -0.37684  -1.24564  -0.52886
H     4.53790   1.87451  -0.59545
H     4.43607   0.55113   0.61736
H     4.02119   0.22927  -1.10875
H     0.21589  -2.14203   1.46683
H     0.09395   1.88323   0.71436
H     0.17752   0.57954  -1.73147
H    -2.14719   0.49407  -2.03543
H    -4.41441   1.80264  -0.75858
H    -3.85252   3.40151  -0.12789
H    -3.73933   1.91095   0.87089
H    -2.51617  -0.17793   0.77823
H    -2.15060  -1.96559  -1.48921
H    -1.65164  -3.64166   0.31620
H    -3.31238  -3.00097   0.40955
H    -2.07286  -2.42452   1.54852
H     0.16444  -1.84749  -1.26943
