16
Generated by autodE on: 2022-10-26. E = -326.060789 Ha
C    -0.30955  -3.10948   0.95907
C    -0.00566  -2.13937  -0.11889
N    -0.03310  -0.85379   0.07071
C     0.20808   0.20528  -0.77755
C     0.08211   1.48409  -0.20995
C     0.33004   2.68502  -1.09603
O    -0.22850   1.66293   1.00541
H    -0.55291  -2.59971   1.90342
H    -1.15953  -3.75285   0.67154
H     0.54900  -3.78296   1.12743
H     0.25400  -2.48605  -1.12392
H    -0.27450  -0.50831   1.01314
H     0.47305  -0.00798  -1.81095
H     0.60703   2.41048  -2.12396
H    -0.57627   3.31300  -1.12361
H     1.13246   3.30263  -0.65915
