16
Generated by autodE on: 2022-10-20. E = -326.062555 Ha
C     2.91887   0.57823   0.26507
C     2.12734  -0.60410  -0.14697
N     0.82395  -0.58260  -0.17311
C    -0.06723   0.41760   0.13519
C    -1.43083   0.08902  -0.00609
C    -2.45645   1.15208   0.31856
O    -1.81660  -1.05114  -0.39066
H     2.70148   1.44596  -0.38537
H     2.66009   0.88827   1.29474
H     3.99428   0.36438   0.22064
H     2.59806  -1.54230  -0.44554
H     0.32807  -1.43486  -0.46815
H     0.30996   1.38233   0.46252
H    -3.08498   1.33664  -0.56857
H    -3.12637   0.78342   1.11318
H    -2.00371   2.10033   0.64155
