34
Generated by autodE on: 2022-10-20. E = -840.449110 Ha. Imaginary frequency = -294.7 cm-1
C     4.07548   1.35717   0.04257
O     2.66847   1.62131  -0.06207
C     1.82776   0.65571   0.24372
C     1.95970  -0.63286   0.67592
C     3.07688  -1.43305   0.94945
N     3.96949  -2.14737   1.19741
C     0.48462  -1.14801   0.68792
O    -0.19078   0.05176   1.10376
C     0.31609   0.87716   0.04527
C    -0.07582   0.05430  -1.19235
C    -2.55925   0.35106  -1.14253
C    -2.62819   1.68795  -0.65572
C    -2.45328   2.80532  -1.65664
O    -2.74861   1.94759   0.56360
N    -2.67857  -0.66469  -0.24404
C    -2.22628  -1.89774  -0.45143
C    -2.28261  -2.91860   0.63022
C     0.00232  -1.25413  -0.76879
H     4.58533   2.27999  -0.25717
H     4.33733   1.10357   1.08049
H     4.35733   0.53442  -0.63096
H     0.29021  -1.98627   1.36396
H    -0.01865   1.91626   0.12354
H    -0.01658   0.43799  -2.20860
H    -2.57948   0.10358  -2.20102
H    -1.46279   3.26783  -1.50473
H    -2.52252   2.45992  -2.69747
H    -3.20745   3.58683  -1.47452
H    -2.72728  -0.33738   0.72552
H    -2.21232  -2.22755  -1.49135
H    -3.23276  -3.48189   0.59515
H    -2.19562  -2.45217   1.62343
H    -1.46914  -3.64918   0.50855
H     0.18620  -2.12733  -1.39345
