24
Generated by autodE on: 2022-10-06. E = -817.031537 Ha
C    -3.37923   0.43891  -0.41660
C    -2.12604   0.93461   0.24973
O    -1.99032   2.11419   0.54643
C    -1.09871  -0.10363   0.74774
C    -1.76944  -1.40008   1.20952
N    -0.38346   0.50157   1.89793
O     0.96179   0.02513   1.79076
C     1.29293   0.08717   0.39987
C     2.54477  -0.77769   0.13286
O     2.49216  -1.96771   0.53691
O     3.49822  -0.22293  -0.46713
C     0.02136  -0.42532  -0.29740
C    -0.08047   0.12193  -1.72813
O     0.84529  -0.24115  -2.50781
O    -1.03898   0.89323  -2.02053
H    -3.19155  -0.41578  -1.07661
H    -4.08027   0.11328   0.37148
H    -3.84413   1.26044  -0.97692
H    -2.56024  -1.20288   1.94888
H    -1.00232  -2.03266   1.68098
H    -2.20020  -1.95836   0.36652
H    -0.33491   1.50611   1.68826
H     1.49692   1.13741   0.11934
H     0.11111  -1.51880  -0.36895
