14
Generated by autodE on: 2022-10-06. E = -361.959945 Ha
C     2.07854  -1.10158  -0.29779
C     0.98008  -0.12141  -0.58189
O     1.03332   0.68047  -1.51370
C    -0.19949  -0.15012   0.31599
C    -0.36471  -1.07206   1.47019
N    -1.12790   0.72931   0.00993
O    -2.22995   0.93804   0.58243
H     2.88700  -0.97889  -1.02932
H     1.68700  -2.13104  -0.33850
H     2.46706  -0.94981   0.72232
H     0.45805  -0.94792   2.19208
H    -1.31753  -0.86924   1.97469
H    -0.35123  -2.12266   1.13843
H    -0.88582   1.31039  -0.81719
