24
Generated by autodE on: 2022-10-06. E = -816.988844 Ha. Imaginary frequency = -422.3 cm-1
C    -3.27237  -0.00745  -0.48476
C    -2.18090   0.79516   0.15936
O    -2.17856   2.02125   0.14660
C    -1.04725   0.05115   0.80060
C    -1.26441  -1.34583   1.31049
N    -0.18778   0.85831   1.47491
O     0.99538   0.37298   1.72923
C     1.55623  -0.27793  -0.07276
C     2.29897  -1.51604   0.38740
O     3.50023  -1.34334   0.72788
O     1.67636  -2.61538   0.41243
C     0.34850  -0.33305  -0.79535
C    -0.01628   0.80109  -1.72357
O     0.50234   1.93123  -1.49560
O    -0.84699   0.54900  -2.64221
H    -2.84406  -0.74558  -1.17795
H    -3.83336  -0.56156   0.28561
H    -3.95150   0.66494  -1.02392
H    -0.31318  -1.80334   1.60077
H    -1.72770  -1.97996   0.54508
H    -1.93602  -1.31764   2.18626
H    -0.21073   1.83398   1.15033
H     2.17760   0.60713  -0.21526
H    -0.03990  -1.32037  -1.05440
