25
Generated by autodE on: 2022-07-27. E = -697.868893 Ha
C    -3.61161  -1.22498  -0.19977
N    -2.77765  -0.21261   0.41312
C    -1.46817  -0.42196   0.64158
O    -0.89444  -1.48541   0.37708
N    -0.87263   0.66213   1.30793
N     0.41998   0.79506   1.24701
C     1.00496   1.49536   2.41494
C     1.25004   0.37997   0.27564
C     2.64420   0.41102   0.51911
N     3.79795   0.42149   0.68713
C     0.85001  -0.11219  -1.08399
O     1.48821  -1.02376  -1.61473
N    -0.14622   0.54932  -1.69759
C    -0.72906   0.04611  -2.92873
H    -3.71641  -2.11348   0.44419
H    -4.60724  -0.80175  -0.37912
H    -3.18584  -1.55023  -1.16216
H    -3.18267   0.66572   0.71994
H     0.17686   1.96101   2.95523
H     1.49898   0.74955   3.05278
H     1.72792   2.24650   2.07785
H    -0.62172   1.30438  -1.21424
H    -0.01992   0.11806  -3.76782
H    -1.61910   0.64112  -3.16492
H    -1.02178  -1.00954  -2.81522
