45
Generated by autodE on: 2022-06-03. E = -1673.121182 Ha. Imaginary frequency = -171.9 cm-1
C     5.43629  -1.49443  -1.13031
N     4.16702  -1.11009  -0.54686
C     3.57677  -1.86337   0.40879
O     4.10015  -2.89591   0.84828
C     2.26927  -1.37239   0.88439
C     1.29182  -2.03748   1.52844
Cl    1.18708  -3.66706   2.03862
C     0.09040  -1.07089   1.62217
O     0.80536   0.16164   1.77323
C     1.61443   0.00870   0.59595
C     0.52715  -0.23088  -0.46685
C    -0.45400  -0.91304   0.18701
N    -2.08835   0.70608   0.71985
C    -3.26452   0.33622   0.12459
O    -3.59492  -0.84621   0.01378
N    -4.09260   1.36546  -0.28956
C    -5.44895   1.05275  -0.71561
N    -1.42540   1.82880   0.53588
C    -1.10849   2.56130   1.78619
C    -0.70846   2.12168  -0.57207
C     0.35440   3.06069  -0.41434
N     1.24589   3.79704  -0.28044
C    -0.93174   1.75674  -2.01793
O     0.03087   1.86579  -2.79030
N    -2.14843   1.37528  -2.41605
C    -2.39976   1.02082  -3.80013
H     6.20523  -1.61739  -0.35198
H     5.75901  -0.71163  -1.82719
H     5.35835  -2.44769  -1.67878
H     3.68936  -0.29576  -0.91747
H    -0.62612  -1.25269   2.42767
H     2.29213   0.85716   0.45264
H     0.68627  -0.11392  -1.53466
H    -1.27921  -1.49021  -0.22183
H    -3.95825   2.26585   0.16416
H    -6.06673   0.65260   0.10620
H    -5.91520   1.97122  -1.09543
H    -5.42535   0.31045  -1.52505
H    -1.86331   2.26898   2.52134
H    -0.11077   2.27626   2.13964
H    -1.16259   3.63989   1.59614
H    -2.94748   1.47722  -1.78213
H    -1.70801   0.23156  -4.13001
H    -2.27350   1.88646  -4.47064
H    -3.42957   0.65252  -3.88329
