52
Generated by autodE on: 2022-06-27. E = -1151.575383 Ha. Imaginary frequency = -403.6 cm-1
C     0.99113  -2.05053   1.69671
C     1.22458  -2.03363   0.37456
C     2.24026  -2.93544  -0.27315
C     0.47112  -1.14462  -0.56865
C    -0.93198  -0.97391  -0.35528
C    -1.86645  -0.85895  -1.43352
C    -3.22417  -0.79511  -1.32931
C    -4.07642  -0.64081  -2.55295
C    -3.97258  -0.87310  -0.03242
C    -0.55732   1.37678   0.61068
C    -1.57028   1.48250   1.66630
O    -1.38616   1.04025   2.81414
N    -2.72858   2.06242   1.28101
C    -3.90253   2.02596   2.12615
C    -0.73856   1.65108  -0.78021
O    -1.67534   2.11472  -1.42062
O     0.44393   1.26911  -1.39419
C     1.23087   0.61380  -0.43128
C     2.67507   0.57562  -0.77763
C     3.09198   1.03021  -2.04034
C     4.43628   0.96160  -2.40925
C     5.38428   0.43833  -1.52520
C     4.97526  -0.02284  -0.27085
C     3.63164   0.03870   0.10194
N     0.77236   1.07448   0.80025
C     1.52905   1.26504   2.03085
H     1.56271  -2.70641   2.35942
H     0.23588  -1.41173   2.16143
H     2.81934  -3.50101   0.47128
H     2.93952  -2.36226  -0.90194
H     1.73582  -3.65435  -0.94283
H     0.73576  -1.31322  -1.61850
H    -1.32200  -1.17385   0.64223
H    -1.43384  -0.77970  -2.43676
H    -4.66768   0.29068  -2.49445
H    -3.47855  -0.61584  -3.47541
H    -4.81009  -1.46345  -2.62866
H    -4.63180  -1.75970  -0.02997
H    -3.32354  -0.92417   0.85043
H    -4.63692   0.00050   0.07643
H    -2.82961   2.27757   0.28927
H    -4.72124   2.55189   1.61987
H    -3.70887   2.52115   3.08981
H    -4.22303   0.99153   2.33692
H     2.35907   1.43968  -2.73464
H     4.74326   1.32167  -3.39385
H     6.43651   0.38616  -1.81400
H     5.70531  -0.44304   0.42445
H     3.33193  -0.36073   1.06783
H     1.74128   0.32057   2.54563
H     2.47440   1.77424   1.79992
H     0.93769   1.90299   2.69450
