34
Generated by autodE on: 2022-05-29. E = -765.531343 Ha
C     3.31670  -1.05316  -0.20873
C     2.24917  -0.05521   0.11998
O     2.43467   1.15046   0.03092
C     0.91860  -0.57823   0.65545
N     0.67100  -2.01415   0.39932
N    -0.55897  -2.14462  -0.31182
C    -1.40053  -1.00451   0.05969
C    -2.51103  -0.81616  -0.96600
C    -2.00165  -1.24538   1.44969
C    -0.32464   0.19702   0.13020
C    -0.82915   1.34728   1.00499
C    -0.00518   1.81791   2.16781
O    -1.90508   1.86613   0.74810
C    -0.05965   0.64263  -1.32456
C    -0.60549   1.93326  -1.85322
O     0.59959  -0.09918  -2.03796
H     3.46469  -1.75175   0.62925
H     4.25406  -0.53553  -0.45076
H     2.98260  -1.65863  -1.06532
H     1.01088  -0.43149   1.74220
H     0.54301  -2.47781   1.29622
H    -0.33012  -2.05518  -1.30294
H    -2.11925  -0.73164  -1.99078
H    -3.18396  -1.68625  -0.93507
H    -3.09713   0.08327  -0.73841
H    -2.58160  -2.17976   1.42620
H    -1.22836  -1.34338   2.22564
H    -2.67583  -0.42932   1.73973
H     0.02108   1.03446   2.94301
H     1.03177   2.00085   1.85208
H    -0.45282   2.72680   2.58966
H    -0.13762   2.76657  -1.30326
H    -1.68778   2.01167  -1.68914
H    -0.36518   2.01382  -2.92073
