38
Generated by autodE on: 2022-05-31. E = -3512.454164 Ha
C     4.47338  -1.28970  -0.03107
O     3.57767  -0.19544  -0.27870
C     2.44029  -0.48275  -0.90914
O     2.16890  -1.57988  -1.34980
C     1.53199   0.73610  -1.00210
N     0.80810   0.70460  -2.26212
C    -0.45296   0.65998  -2.05611
C    -1.45504   0.60376  -3.15844
C    -0.90977   0.67107  -0.59655
C    -1.77812  -0.53755  -0.31958
C    -3.13459  -0.41971   0.01261
C    -3.92674  -1.55847   0.19677
C    -3.37656  -2.83223   0.04100
C    -2.02937  -2.96014  -0.31513
C    -1.24080  -1.82425  -0.49907
C    -1.53980   2.08528  -0.27575
C    -1.85564   2.17004   1.20982
C    -0.67330   2.30564   1.81947
C     0.35532   2.29640   0.69936
O    -0.36484   2.90888  -0.37645
C     0.47960   0.83633   0.14613
Br    0.84365  -0.39237   1.64619
H     4.79564  -1.74534  -0.97808
H     3.98064  -2.04984   0.59265
H     5.33291  -0.86320   0.49828
H     2.18344   1.62063  -0.96955
H    -0.95788   0.64151  -4.13624
H    -2.04569  -0.32302  -3.08734
H    -2.16570   1.44219  -3.08000
H    -3.59870   0.56029   0.11805
H    -4.98138  -1.44334   0.45787
H    -3.99506  -3.72109   0.18611
H    -1.59003  -3.95085  -0.45423
H    -0.19665  -1.93756  -0.79480
H    -2.31397   2.40781  -0.97910
H    -2.84370   2.07235   1.65591
H    -0.45069   2.34180   2.88433
H     1.31798   2.78846   0.87616
