23
Generated by autodE on: 2022-05-31. E = -3112.268665 Ha
Br    1.01908   0.83287  -1.85473
C     1.03444  -0.17707  -0.27432
C     0.03752  -0.55269   0.55171
C    -1.40874  -0.37144   0.54146
C    -2.12198  -0.41202   1.75847
C    -3.50375  -0.21881   1.78460
C    -4.20642   0.00536   0.59686
C    -3.51391   0.03379  -0.61922
C    -2.13235  -0.15022  -0.64975
C     0.82118  -1.15177   1.76328
C     1.51342   0.02361   2.48664
C     2.48102   0.41534   1.65255
C     2.35826  -0.53568   0.43837
O     1.94430  -1.74536   1.08771
H    -1.58874  -0.58286   2.69548
H    -4.03461  -0.24592   2.73907
H    -5.28874   0.15224   0.61691
H    -4.05579   0.19796  -1.55367
H    -1.61079  -0.13711  -1.60649
H     0.27969  -1.88031   2.37477
H     1.19940   0.44374   3.44137
H     3.18169   1.24579   1.73042
H     3.23934  -0.67478  -0.19708
