60
Generated by autodE on: 2022-10-23. E = -1543.276001 Ha
C    -4.62865  -0.40237   1.70438
N    -3.64816  -0.26792   0.64802
C    -2.35263  -0.51447   0.86377
O    -1.92541  -0.90569   1.95393
C    -1.36411  -0.26148  -0.32331
C    -2.00887  -0.68856  -1.67704
O    -3.18246  -0.40091  -1.95895
N    -1.19477  -1.30563  -2.53550
C    -1.57196  -1.55721  -3.91119
N    -0.09412  -0.93230  -0.12108
C    -0.12447  -2.36029   0.17930
C     0.93124  -0.08930   0.50552
C     0.87813  -0.21773   2.06511
O     0.36930   0.64052   2.78942
N     1.39469  -1.34748   2.57159
C     1.27595  -1.66202   3.98242
C     2.34620  -0.42339   0.02258
C     3.44241   0.12663   0.70651
C     4.74343  -0.06520   0.24003
C     4.97060  -0.81945  -0.91616
C     3.88585  -1.37239  -1.60025
C     2.58202  -1.17063  -1.13662
C     0.53155   1.36354   0.04620
C     0.84871   2.41018   1.01088
N     1.19467   3.33899   1.61666
C     1.22647   1.81828  -1.32767
C     0.82428   3.26499  -1.56619
C    -0.45727   3.21018  -1.94317
C    -0.80513   1.73427  -1.95161
O     0.43949   1.11662  -2.27991
C    -0.99155   1.28911  -0.44660
O    -1.92908   2.16818   0.08191
C    -2.10824   2.35446   1.48980
H    -5.60391  -0.06750   1.32987
H    -4.35074   0.21251   2.57509
H    -4.71933  -1.44674   2.04628
H    -3.91547  -0.03958  -0.31080
H    -0.21401  -1.32721  -2.27046
H    -0.87398  -2.28227  -4.34861
H    -2.59009  -1.96693  -3.95552
H    -1.54469  -0.63140  -4.51137
H    -0.80792  -2.85824  -0.52093
H    -0.45922  -2.59094   1.19992
H     0.87223  -2.79610   0.02743
H     1.85640  -2.00872   1.95776
H     0.21895  -1.66861   4.29200
H     1.80850  -0.92403   4.60339
H     1.70748  -2.65422   4.16209
H     3.28067   0.72505   1.60590
H     5.58286   0.37625   0.78205
H     5.98877  -0.97433  -1.28051
H     4.05001  -1.96200  -2.50512
H     1.74655  -1.59357  -1.69154
H     2.28622   1.56733  -1.39725
H     1.45083   4.13267  -1.36720
H    -1.15528   4.02173  -2.14155
H    -1.61266   1.42865  -2.62019
H    -1.80639   3.37977   1.75040
H    -1.51907   1.64991   2.08547
H    -3.17512   2.22690   1.72053
