42
Generated by autodE on: 2022-10-23. E = -1028.841529 Ha
C     2.59035   2.47001   2.74191
N     2.53028   1.65811   1.54885
C     1.46709   0.86880   1.27026
O     0.46353   0.85054   2.03898
C     1.53576   0.06295   0.06416
C     2.60654   0.09449  -0.89985
O     3.69434   0.69827  -0.71179
N     2.39097  -0.55502  -2.08848
C     3.35314  -0.46241  -3.16709
N     0.46807  -0.86554  -0.09607
C     0.77528  -2.29656   0.04791
C    -0.75155  -0.39344  -0.16914
C    -0.91627   0.99580  -0.76557
O    -0.92370   1.07099  -1.99948
N    -1.15245   1.99828   0.08226
C    -1.29251   3.36473  -0.38506
C    -1.96474  -1.14977   0.14551
C    -2.03144  -1.94700   1.30506
C    -3.20832  -2.62478   1.61712
C    -4.32308  -2.52254   0.77776
C    -4.26637  -1.72251  -0.36903
C    -3.10029  -1.02640  -0.67995
H     1.71079   3.12838   2.82507
H     2.63680   1.86340   3.66350
H     3.48992   3.09784   2.69936
H     3.32631   1.56759   0.91519
H     1.42836  -0.74966  -2.34372
H     4.35224  -0.76368  -2.82063
H     3.43559   0.56026  -3.57750
H     3.04718  -1.13835  -3.97659
H    -0.03221  -2.90767  -0.37118
H     1.70636  -2.48848  -0.49669
H     0.92878  -2.53947   1.10792
H    -0.86018   1.81666   1.04945
H    -1.97796   3.40061  -1.24278
H    -0.32359   3.78810  -0.69904
H    -1.70124   3.98132   0.42518
H    -1.17445  -2.00129   1.97663
H    -3.25756  -3.23180   2.52352
H    -5.24161  -3.06058   1.02272
H    -5.13696  -1.63824  -1.02275
H    -3.05325  -0.40376  -1.57465
