18
Generated by autodE on: 2022-10-23. E = -514.386971 Ha
C     2.59795  -1.14034   0.18359
O     1.24114  -1.58554   0.34002
C     0.28163  -0.68948   0.28999
C     0.23327   0.66205   0.11038
C     1.22438   1.62583  -0.11832
N     2.00933   2.47178  -0.30728
C    -1.30292   0.94999   0.08019
C    -1.86306   0.32974  -1.21515
C    -1.78496  -0.99181  -1.03011
C    -1.18938  -1.15021   0.38301
O    -1.75177  -0.01201   1.05035
H     3.22547  -2.03534   0.26208
H     2.85598  -0.42807   0.98095
H     2.73037  -0.67196  -0.80263
H    -1.59993   1.97263   0.33271
H    -2.17797   0.89251  -2.09325
H    -2.00962  -1.81182  -1.71057
H    -1.35540  -2.09125   0.91745
