19
Generated by autodE on: 2022-05-29. E = -510.891835 Ha
C    -4.25218   0.04440  -0.02433
N    -2.98088  -0.32396  -0.61510
C    -1.81434   0.00382  -0.03696
O    -1.72391   0.62977   1.02910
C    -0.60434  -0.44209  -0.76565
N     0.53674  -0.14168  -0.23174
N     1.74394  -0.43398  -0.68990
C     2.70120   0.05868   0.16501
C     4.11715  -0.21240  -0.25721
O     2.44116   0.68350   1.20658
H    -4.34387  -0.35997   0.99579
H    -4.36152   1.13924   0.03395
H    -5.06157  -0.36098  -0.64248
H    -2.96867  -0.83194  -1.49469
H    -0.63072  -0.99925  -1.70364
H     0.50911   0.39161   0.66517
H     4.64492  -0.73245   0.55776
H     4.63489   0.74714  -0.41787
H     4.16498  -0.81273  -1.17416
