13
Generated by autodE on: 2022-05-29. E = -2980.371029 Ha
F     1.01663   2.11714  -0.10252
C     0.05964   1.24655  -0.37991
C     0.02767  -0.07794  -0.22048
Br    1.30818  -1.22948   0.50195
C    -1.43429  -0.45577  -0.56758
C    -2.33990   0.11122   0.55425
C    -2.29044   1.43677   0.39914
C    -1.35766   1.65865  -0.81808
O    -1.69003   0.50390  -1.61231
H    -1.60595  -1.48679  -0.89405
H    -2.84533  -0.48673   1.31151
H    -2.74206   2.23077   0.99224
H    -1.44316   2.60006  -1.37140
