32
Generated by autodE on: 2022-05-29. E = -3491.252264 Ha. Imaginary frequency = -300.9 cm-1
C    -3.77073  -2.97520  -1.02652
N    -2.46382  -2.64036  -1.55737
C    -1.36342  -2.65642  -0.78875
O    -1.36938  -2.98116   0.40922
C    -0.11240  -2.21094  -1.44790
N     1.01518  -2.46157  -0.79276
N     2.12569  -1.85261  -1.20064
C     3.23524  -2.00081  -0.40012
C     3.23617  -3.02620   0.71121
O     4.21257  -1.27450  -0.60333
C     1.26359   0.29568  -1.14023
C     1.60393   0.60233   0.33085
O     0.68329  -0.28374   0.99474
C    -0.50095   0.21735   0.34218
C    -0.37525   1.72019   0.68631
Br   -1.79562   2.92200   0.84411
C     0.94126   1.94652   0.67322
F     1.61235   3.08079   0.79333
C    -0.09302   0.03943  -1.14044
H    -4.51450  -2.87483  -1.82561
H    -3.79273  -4.00908  -0.64774
H    -4.04537  -2.30422  -0.19711
H    -2.37641  -2.35901  -2.52898
H    -0.05617  -2.05944  -2.52495
H     0.87868  -2.67926   0.20418
H     2.88880  -4.01136   0.36675
H     2.56209  -2.69346   1.51988
H     4.25088  -3.10868   1.11901
H     1.88864   0.59866  -1.97599
H     2.63996   0.47281   0.65978
H    -1.40548  -0.28619   0.69759
H    -0.77978   0.20438  -1.96928
