37
Generated by autodE on: 2022-06-17. E = -768.484088 Ha
C    -1.46779   3.87697  -0.11165
C    -0.55011   2.68521   0.09037
N     0.23110   2.39438  -1.14079
N     0.45140   1.18902  -1.28730
C    -0.11785   0.36307  -0.14354
C     1.09922   0.08319   0.74565
C     2.14715  -0.67873   0.19708
C     3.29654  -0.95670   0.93646
C     3.42074  -0.48063   2.24676
C     2.38708   0.27580   2.80154
C     1.23678   0.55995   2.05568
C    -0.69692  -0.93980  -0.66675
C    -1.00049  -1.12017  -2.02152
C    -1.58378  -2.31159  -2.46690
C    -1.87684  -3.33393  -1.56119
C    -1.58031  -3.15873  -0.20445
C    -0.99126  -1.97260   0.23665
C    -1.17284   1.32680   0.46639
C    -2.58530   1.13037  -0.08325
H    -0.87645   4.77142  -0.35916
H    -2.18640   3.70643  -0.92647
H    -2.03193   4.08590   0.80954
H     0.21558   2.95505   0.83855
H     2.05390  -1.06195  -0.82067
H     4.09707  -1.55177   0.49038
H     4.31702  -0.70195   2.83103
H     2.46887   0.65038   3.82470
H     0.44656   1.15045   2.51856
H    -0.77946  -0.32534  -2.73466
H    -1.81056  -2.43782  -3.52843
H    -2.33333  -4.26370  -1.90894
H    -1.80600  -3.95174   0.51267
H    -0.75697  -1.84306   1.29575
H    -1.21236   1.21209   1.55558
H    -3.26841   1.87918   0.34320
H    -2.62066   1.22122  -1.17941
H    -2.97231   0.13685   0.18265
