12
Generated by autodE on: 2022-06-17. E = -157.299003 Ha
C     1.48852  -0.70097  -0.34110
C     0.68407   0.56214  -0.26364
C    -0.60464   0.69270   0.08949
C    -1.55776  -0.39239   0.49280
H     2.36454  -0.64949   0.32953
H     0.90993  -1.59678  -0.07385
H     1.89123  -0.84728  -1.35898
H     1.22759   1.47784  -0.52923
H    -1.02585   1.70613   0.08769
H    -1.10029  -1.39207   0.48432
H    -2.43420  -0.41381  -0.17888
H    -1.95438  -0.20865   1.50699
