37
Generated by autodE on: 2022-06-17. E = -768.413400 Ha. Imaginary frequency = -446.8 cm-1
C    -2.45893   3.10569  -0.35299
C    -1.28141   2.63747   0.45996
N     0.16299   2.48563  -1.12048
N     0.55422   1.39151  -1.02255
C     0.31148   0.27681  -0.25529
C     1.41055  -0.05095   0.69001
C     1.14133  -0.79233   1.85787
C     2.15537  -1.06606   2.77596
C     3.45668  -0.60052   2.55659
C     3.73231   0.14324   1.40638
C     2.72236   0.41094   0.47878
C    -0.45731  -0.77885  -0.96264
C    -1.36953  -0.42656  -1.98022
C    -2.14380  -1.39466  -2.61617
C    -2.03412  -2.74158  -2.25089
C    -1.12901  -3.10498  -1.25094
C    -0.34276  -2.13829  -0.61875
C    -1.22422   1.38608   1.07193
C    -2.38208   0.42464   1.07587
H    -2.84244   2.31445  -1.01533
H    -2.19447   3.97126  -0.97976
H    -3.29652   3.41526   0.29923
H    -0.65596   3.42651   0.88865
H     0.12674  -1.13959   2.05691
H     1.92339  -1.64120   3.67556
H     4.24816  -0.81511   3.27822
H     4.74385   0.51242   1.22056
H     2.95563   0.97658  -0.42508
H    -1.47772   0.61786  -2.27698
H    -2.84183  -1.09406  -3.40110
H    -2.64512  -3.49967  -2.74604
H    -1.02277  -4.15336  -0.96194
H     0.36820  -2.45123   0.14477
H    -0.53392   1.28946   1.91304
H    -2.86318   0.34112   0.09104
H    -2.07401  -0.58645   1.38040
H    -3.15872   0.76133   1.78748
