29
Generated by autodE on: 2022-10-20. E = -870.372054 Ha
C     4.35135   0.70288  -0.37406
O     3.08552   0.07171  -0.11667
C     2.06456   0.88769   0.11695
O     2.11611   2.09673   0.15460
N     0.90015   0.15435   0.36169
C    -0.39221   0.66708   0.51805
O    -0.50763   1.85375   1.04801
C    -1.57096   2.74430   0.64070
C    -1.30225  -0.27363   0.08288
C    -2.72783  -0.42020   0.32255
C    -3.37848  -1.65555  -0.24875
O    -3.37510   0.40825   0.96646
N    -0.50392  -1.35091  -0.49498
C    -0.52692  -1.52451  -1.82863
N    -0.60061  -1.75329  -2.96911
N     0.81763  -1.24060   0.05106
C     0.93452  -2.04149   1.27371
H     4.65966   1.30640   0.49121
H     4.28634   1.33956  -1.26756
H     5.06091  -0.11514  -0.54055
H    -1.22024   3.75006   0.89917
H    -2.49417   2.49366   1.17268
H    -1.72443   2.65861  -0.44419
H    -3.28966  -1.66608  -1.34751
H    -4.43866  -1.67037   0.03389
H    -2.87712  -2.56235   0.12447
H     0.83163  -3.09775   0.99456
H     0.17399  -1.77403   2.02695
H     1.93912  -1.87230   1.68230
