13
Generated by autodE on: 2022-10-20. E = -344.660255 Ha
C    -3.07252   0.51550  -0.52365
O    -2.22526   0.09773   0.58636
C    -0.96868   0.01084   0.36351
C     0.23700  -0.08846   0.20641
C     1.65687  -0.19689  -0.00388
C     2.15026   0.14617  -1.38590
O     2.41612  -0.54840   0.89619
H    -4.09387   0.52698  -0.12845
H    -2.77042   1.51899  -0.85339
H    -2.97966  -0.20940  -1.34397
H     1.66254  -0.50396  -2.13025
H     1.87617   1.18468  -1.63321
H     3.24066   0.02303  -1.43439
