29
Generated by autodE on: 2022-10-20. E = -870.266265 Ha. Imaginary frequency = -426.5 cm-1
C     3.56039   2.30761  -0.09030
O     2.24824   1.72905  -0.04646
C     2.10232   0.64550   0.70912
O     2.98239   0.15480   1.39167
N     0.77312   0.22415   0.66353
C    -0.30598   0.24610  -1.05626
O     0.29049   1.08317  -1.84770
C    -0.18013   2.45337  -1.80531
C    -1.24230  -0.57161  -0.83478
C    -2.38113  -1.39514  -1.18835
C    -3.72773  -0.73307  -1.08040
O    -2.23446  -2.56146  -1.53939
N    -0.80438  -1.20465   1.24016
C    -1.54238  -0.21182   1.75735
N    -2.29024   0.52995   2.25942
N     0.47914  -0.98342   1.12604
C     1.24579  -2.17200   0.72834
H     3.86098   2.65082   0.90996
H     4.29072   1.57615  -0.46467
H     3.48729   3.15771  -0.77788
H    -0.04095   2.86185  -0.79585
H    -1.24111   2.48367  -2.09316
H     0.43324   3.00349  -2.52763
H    -3.75838   0.15770  -1.72840
H    -3.88561  -0.38299  -0.04683
H    -4.51946  -1.43877  -1.36576
H     1.01845  -2.37557  -0.33121
H     0.92156  -3.00926   1.35439
H     2.31134  -1.97479   0.86583
