17
Generated by autodE on: 2022-06-01. E = -2945.722946 Ha
F    -0.66489   2.16859   0.39828
C    -0.61975   0.87970   0.73553
C     0.18605  -0.06926   0.23899
Br    1.46291   0.12693  -1.12999
C    -0.32820  -1.39955   0.77073
C    -1.68400  -1.66669   0.04185
C    -2.60920  -0.54882   0.60723
C    -1.67014   0.21991   1.59713
C    -0.83415  -0.94989   2.16022
H     0.39080  -2.22683   0.73814
H    -1.57052  -1.62017  -1.05056
H    -2.06060  -2.66750   0.30009
H    -3.00721   0.11753  -0.17104
H    -3.46155  -0.97251   1.15837
H    -2.17760   0.88481   2.30698
H    -1.44935  -1.71393   2.65911
H    -0.02476  -0.62072   2.82710
