40
Generated by autodE on: 2022-06-01. E = -3574.975050 Ha. Imaginary frequency = -343.9 cm-1
C    -2.75380  -2.23504  -1.91151
O    -1.93615  -1.37922  -1.10495
C    -1.84241  -1.69176   0.19389
O    -2.33812  -2.70892   0.65154
C    -1.06826  -0.68149   0.95995
C    -1.59876   0.67240   1.05052
O    -1.24515   1.54041   1.84191
O    -2.61518   0.88801   0.18762
C    -3.21941   2.18104   0.22380
N    -0.15236  -1.11856   1.90704
C    -0.07795  -2.54064   2.28433
C     0.82819  -0.30506   2.32289
C     1.96316   0.33893   0.53584
F     2.33784   1.49462   1.14883
C     3.08220  -0.64250   0.15098
C     2.58548  -2.10127   0.22153
C     1.50691  -2.15123  -0.89843
C     1.55576  -0.72678  -1.50414
C     3.08092  -0.42656  -1.39112
C     1.05100   0.32806  -0.50983
Br    0.29581   1.93246  -1.18819
H    -2.74112  -1.80155  -2.91844
H    -2.34278  -3.25491  -1.93389
H    -3.78321  -2.26652  -1.52514
H    -2.47140   2.97079   0.06585
H    -3.72387   2.35191   1.18711
H    -3.95516   2.19304  -0.58960
H     0.76953  -2.66947   2.96422
H     0.05158  -3.18755   1.40908
H    -1.00394  -2.82859   2.79428
H     0.61689   0.75558   2.36646
H     1.54099  -0.72490   3.03325
H     4.01225  -0.44338   0.69879
H     3.42339  -2.77503  -0.00893
H     2.21259  -2.37684   1.21250
H     0.50850  -2.41845  -0.54018
H     1.77529  -2.87966  -1.67731
H     1.09201  -0.64516  -2.49368
H     3.72085  -1.13502  -1.94262
H     3.33396   0.60369  -1.68116
