37
Generated by autodE on: 2022-05-30. E = -1223.622313 Ha
C     3.91080  -1.65699  -1.20816
O     3.23187  -0.71246  -0.36774
C     2.14667  -1.15807   0.27410
O     1.74263  -2.30868   0.19691
C     1.47265  -0.12940   1.05508
C     1.55781   1.21167   1.00416
F     2.36896   1.96909   0.29692
C     0.40796   1.77921   1.81247
O     0.27025   0.74871   2.80251
C     0.21876  -0.36470   1.88427
C    -1.05977   0.02668   1.06965
C    -0.94141   1.57953   1.04224
C    -1.05870   1.90190  -0.47454
C    -0.63579   3.26741  -0.95011
N    -0.36643   0.73578  -1.06665
C    -1.18108  -0.25647  -0.43677
C    -1.00548  -1.66249  -0.98438
O    -0.58217  -1.88575  -2.09606
O    -1.38127  -2.57600  -0.10489
C    -1.22766  -3.95328  -0.49372
O    -2.58492   0.17141  -0.75856
C    -2.52339   1.52895  -0.78084
O    -3.47974   2.23178  -0.98820
H     4.28427  -2.50390  -0.61447
H     3.23303  -2.02931  -1.99001
H     4.74800  -1.11173  -1.65872
H     0.56022   2.76916   2.25428
H     0.15722  -1.32074   2.41161
H    -1.95080  -0.33980   1.58848
H    -1.72734   2.08471   1.61539
H    -0.75712   3.35330  -2.04024
H     0.41581   3.45735  -0.69437
H    -1.25988   4.03486  -0.47018
H    -0.47219   0.69875  -2.08318
H    -1.59602  -4.54577   0.35068
H    -1.81697  -4.16123  -1.39753
H    -0.16648  -4.16732  -0.68116
