19
Generated by autodE on: 2022-05-30. E = -634.779382 Ha
C     3.64777  -0.14893  -0.50601
O     2.29576   0.28457  -0.30817
C     1.41541  -0.65251   0.07845
O     1.71785  -1.82055   0.26653
C     0.06882  -0.12926   0.25009
C    -0.49182   1.05259  -0.05760
F     0.03716   2.13123  -0.59084
C    -1.99712   0.92800   0.23002
C    -2.56519  -0.04546  -0.82964
C    -2.03972  -1.23225  -0.51375
C    -1.14755  -0.96334   0.71975
O    -1.92304   0.06492   1.37587
H     4.06336  -0.55969   0.42585
H     3.69820  -0.91420  -1.29454
H     4.20918   0.74265  -0.80886
H    -2.53608   1.86188   0.42149
H    -3.20784   0.24261  -1.66025
H    -2.13826  -2.19425  -1.01517
H    -0.92134  -1.80529   1.38112
