18
Generated by autodE on: 2022-05-30. E = -588.777254 Ha
C     3.77109   0.60816   0.05689
O     2.34098   0.71618   0.10630
C     1.64751  -0.41079  -0.10814
O     2.13677  -1.50284  -0.33669
C     0.21992  -0.16228  -0.03461
N    -0.40775   0.98465   0.21327
C    -1.75807   0.82163   0.19968
C    -2.75529   1.89313   0.43768
C    -1.99262  -0.55143  -0.08332
O    -2.99107  -1.24506  -0.21555
O    -0.69184  -1.12051  -0.21996
H     4.15527   1.61768   0.24170
H     4.09539   0.25236  -0.93179
H     4.13092  -0.08388   0.83207
H     0.08270   1.86343   0.38843
H    -2.65298   2.33234   1.44404
H    -2.66182   2.71009  -0.29704
H    -3.76310   1.46480   0.35005
