14
Generated by autodE on: 2022-06-27. E = -270.687342 Ha
C    -0.88382  -0.39220   1.69671
C    -0.93584   0.08357   0.27569
C    -2.29733   0.48735  -0.20264
C     0.13303   0.16186  -0.56008
C     1.49967  -0.20045  -0.22802
O     2.43367  -0.11617  -1.02197
H     0.11697  -0.67404   2.04343
H    -1.55499  -1.25958   1.81742
H    -1.27769   0.39494   2.36177
H    -2.70061   1.29175   0.43663
H    -2.99861  -0.35985  -0.10829
H    -2.28951   0.83014  -1.24644
H    -0.01207   0.52358  -1.58362
H     1.68886  -0.57274   0.80374
