39
Generated by autodE on: 2022-07-27. E = -993.311595 Ha
C    -3.78218  -3.00464  -0.50798
N    -2.63935  -2.11953  -0.64440
C    -1.94285  -1.69169   0.41359
O    -2.16502  -1.99930   1.58522
C    -0.81544  -0.72379   0.10278
C    -1.17682   0.57661  -0.46999
C    -0.42043   1.12323  -1.52372
C    -0.80716   2.33292  -2.09541
C    -1.93387   3.01199  -1.61416
C    -2.68931   2.46799  -0.57095
C    -2.32073   1.24740  -0.00532
N     0.41103  -1.07497   0.37054
C     0.74248  -2.45424   0.76153
C     1.43412  -0.08902   0.56145
C     1.14791   0.89936   1.56255
C     2.18609   1.94746   1.90914
O     0.05234   0.92678   2.16189
C     2.57635  -0.25266  -0.29048
O     2.62883  -1.06608  -1.21959
O     3.61805   0.57131  -0.02714
C     4.74157   0.47823  -0.90399
H    -4.68936  -2.44810  -0.22062
H    -3.96268  -3.50732  -1.46589
H    -3.57979  -3.75920   0.26397
H    -2.41320  -1.73976  -1.55994
H     0.44760   0.58414  -1.90444
H    -0.22917   2.74813  -2.92371
H    -2.22764   3.96439  -2.06129
H    -3.56999   2.99450  -0.19745
H    -2.90278   0.82175   0.81460
H     1.77743  -2.65068   0.46600
H     0.64219  -2.54729   1.85146
H     0.08141  -3.16812   0.25646
H     3.12412   1.49276   2.25650
H     2.43202   2.55869   1.02826
H     1.76963   2.58867   2.69738
H     5.19212  -0.52483  -0.86505
H     4.45285   0.70017  -1.94241
H     5.46338   1.22467  -0.55007
