53
Generated by autodE on: 2022-06-27. E = -1263.939008 Ha. Imaginary frequency = -314.1 cm-1
C    -3.95009  -2.37020   0.02940
N    -2.91802  -1.35747   0.11514
C    -1.68510  -1.65692   0.58368
O    -1.43653  -2.79313   1.00483
C    -0.66054  -0.55228   0.43354
C    -1.27836   0.83226   0.45708
C    -1.13529   1.82440  -0.51474
C    -1.71329   3.08743  -0.33502
C    -2.44248   3.37732   0.81637
C    -2.59145   2.39145   1.79985
C    -2.01551   1.13727   1.62113
N     0.56201  -0.67644   1.10226
C     0.86606  -1.83701   1.97335
C     1.57016   0.20590   0.81032
C     1.42242   1.69270   1.08666
C     2.09245   2.70042   0.19645
O     0.80864   2.03834   2.08410
C     2.96983  -0.29487   0.93742
O     3.34190  -1.42301   0.66801
O     3.80735   0.66632   1.34428
C     5.20671   0.35007   1.35291
C     1.33291  -0.31914  -1.55473
C     1.73284   0.87067  -2.27402
O     1.01902   1.71067  -2.82843
C     0.07691  -0.99632  -1.59915
C    -1.02384  -0.58645  -2.55613
C     0.21821  -2.50729  -1.52435
H    -4.85411  -1.91627  -0.39472
H    -3.63632  -3.20811  -0.61411
H    -4.19083  -2.78023   1.02306
H    -3.11465  -0.42395  -0.22685
H    -0.54184   1.65362  -1.40506
H    -1.57838   3.84827  -1.10729
H    -2.89059   4.36419   0.95378
H    -3.15470   2.60374   2.71161
H    -2.12315   0.38169   2.40230
H     1.71999  -1.57320   2.60287
H     0.00262  -2.00997   2.62057
H     1.08129  -2.75295   1.41544
H     2.38838   3.56921   0.80042
H     2.95621   2.29352  -0.33840
H     1.35827   3.03848  -0.55054
H     5.40936  -0.46749   2.05916
H     5.53750   0.05642   0.34624
H     5.71933   1.26472   1.67144
H     2.18743  -0.94562  -1.30495
H     2.84033   0.99543  -2.31710
H    -0.90243  -1.18180  -3.47816
H    -2.01649  -0.83303  -2.15569
H    -0.99986   0.46689  -2.84056
H     0.90684  -2.82294  -0.73046
H    -0.74359  -3.01808  -1.38992
H     0.63977  -2.85492  -2.48349
