55
Generated by autodE on: 2022-06-07. E = -1800.586606 Ha
C    -2.77700  -0.49797  -2.37658
C    -2.87654  -1.02374  -0.97376
O    -3.86793  -1.60502  -0.56558
C    -1.69311  -0.79901  -0.00390
C    -1.84804  -1.91131   1.10126
C    -1.43202  -3.31643   0.77405
O    -2.29960  -1.64007   2.19812
C    -1.81584   0.58539   0.68666
C    -2.55233   1.72223  -0.08933
O    -1.55282   2.20594  -0.98623
C    -0.56792   2.51426   0.00391
C    -1.38434   3.39025   0.97117
C    -0.87635   4.37296   1.84499
N    -0.43561   5.18327   2.55662
C    -2.62986   2.87545   0.90430
Cl   -4.00483   3.24062   1.84508
C    -0.36747   1.15557   0.74090
C     0.55012   0.10335   0.04199
C     1.30515  -0.77422   1.06324
C     0.87373  -0.93177   2.38906
C     1.48966  -1.85026   3.24547
C     2.55544  -2.63151   2.79479
C     3.00352  -2.47995   1.47883
C     2.38522  -1.56272   0.62705
C     1.51500   0.81759  -0.90709
C     2.68998   1.39555  -0.40324
C     3.52134   2.15935  -1.22560
C     3.19244   2.35493  -2.57101
C     2.02118   1.78769  -3.07976
C     1.18618   1.03090  -2.25191
N    -0.41791  -0.73765  -0.69540
C     0.07891  -1.86780  -1.45580
H    -2.12235   0.37737  -2.45082
H    -2.34555  -1.28794  -3.01347
H    -3.78712  -0.27926  -2.74916
H    -1.87506  -3.99954   1.51051
H    -1.71847  -3.61053  -0.24344
H    -0.33500  -3.38514   0.84915
H    -2.27510   0.44162   1.66810
H    -3.48885   1.47654  -0.59820
H     0.31611   2.98364  -0.43139
H    -0.01460   1.35499   1.75567
H     0.04055  -0.34801   2.77644
H     1.12980  -1.95088   4.27220
H     3.03690  -3.34893   3.46345
H     3.84051  -3.07860   1.11128
H     2.75459  -1.45341  -0.39318
H     2.95409   1.25590   0.64653
H     4.43003   2.60397  -0.81253
H     3.84394   2.94841  -3.21683
H     1.74946   1.93794  -4.12745
H     0.26116   0.61276  -2.64743
H     0.59570  -2.63388  -0.85405
H     0.78959  -1.51983  -2.21894
H    -0.74860  -2.36286  -1.97886
