41
Generated by autodE on: 2022-06-07. E = -941.101524 Ha
C     2.96634   2.01246   2.41647
C     1.75741   1.13145   2.19935
O     0.81430   1.18391   3.02633
C     1.68639   0.27892   1.05635
C     2.65171   0.15118   0.00455
C     2.42556  -0.90225  -1.07072
O     3.67762   0.85959  -0.07394
N     0.51864  -0.57607   0.99758
C     0.51344  -1.67799   1.96997
C    -0.42130  -0.40803   0.09613
C    -0.53214   0.86106  -0.65168
C    -0.74713   0.83388  -2.04013
C    -0.89012   2.02773  -2.74936
C    -0.85569   3.25049  -2.07373
C    -0.67492   3.27993  -0.68493
C    -0.50370   2.09464   0.02566
C    -1.40170  -1.46347  -0.21769
C    -0.99667  -2.79433  -0.43283
C    -1.93563  -3.75922  -0.79375
C    -3.28506  -3.41374  -0.92278
C    -3.69423  -2.09287  -0.71056
C    -2.75668  -1.11660  -0.37841
H     3.90092   1.43326   2.41459
H     3.05673   2.75146   1.60568
H     2.84551   2.53292   3.37696
H     3.39000  -1.10963  -1.55353
H     2.00218  -1.83867  -0.68113
H     1.73739  -0.52066  -1.84266
H     1.22382  -2.45449   1.65479
H    -0.48961  -2.10378   2.07749
H     0.83767  -1.26087   2.92972
H    -0.78478  -0.12289  -2.56340
H    -1.03791   2.00096  -3.83093
H    -0.98055   4.18402  -2.62714
H    -0.67018   4.23352  -0.15268
H    -0.37911   2.11251   1.10832
H     0.05518  -3.06725  -0.34838
H    -1.61188  -4.78585  -0.97670
H    -4.01883  -4.17498  -1.19711
H    -4.74671  -1.82088  -0.81338
H    -3.07115  -0.08299  -0.22631
