14
Generated by autodE on: 2022-06-07. E = -859.428389 Ha
N     2.88134   1.46593  -0.55784
C     1.83606   0.95056  -0.52124
C     0.57056   0.33854  -0.49857
C     0.06250  -0.54368   0.38561
Cl    0.77283  -1.21491   1.78060
C    -1.40603  -0.77211  -0.04430
C    -2.15567   0.54364   0.25806
C    -1.67460   1.42011  -0.62762
C    -0.63514   0.63009  -1.44990
O    -1.24020  -0.67195  -1.46504
H    -1.86023  -1.71650   0.27090
H    -2.86776   0.68205   1.07001
H    -1.88788   2.48120  -0.74809
H    -0.37906   0.99078  -2.45037
