31
Generated by autodE on: 2022-06-17. E = -780.328581 Ha
C     3.01361   0.24803   0.94639
O     1.89638   0.16966   0.04914
C     1.21409  -0.97284   0.01806
O     1.54038  -1.96297   0.63979
C     0.00118  -0.91317  -0.93284
C     0.19012  -2.03625  -1.95292
N    -0.10846   0.37687  -1.62448
N    -0.69776   1.27073  -0.63388
C    -0.17307   2.46292  -0.44186
N     0.25670   3.55076  -0.35781
C    -1.45882   0.52223   0.36322
C    -0.97922   0.71484   1.78844
O     0.03193   1.29777   2.10981
C    -1.36301  -0.96019  -0.14460
C    -1.42445  -1.99362   0.98160
C    -2.52874  -1.22246  -1.11079
H     3.77772  -0.49297   0.67267
H     3.40980   1.26423   0.84242
H     2.67943   0.07263   1.97858
H     0.15316  -3.01356  -1.45315
H     1.17137  -1.93709  -2.44153
H    -0.58556  -1.99181  -2.72607
H     0.82402   0.74042  -1.83274
H    -2.51637   0.83470   0.36758
H    -1.67201   0.29149   2.54971
H    -2.40861  -1.94603   1.47118
H    -0.65266  -1.85616   1.74896
H    -1.30579  -3.00320   0.56212
H    -2.50098  -2.25528  -1.48472
H    -2.51340  -0.53718  -1.96881
H    -3.47838  -1.08480  -0.57324
