17
Generated by autodE on: 2022-07-27. E = -509.618187 Ha
C     0.60431   0.35181   2.51574
O    -0.19390   0.14653   1.33632
C     0.17240  -0.83876   0.52539
O     1.04192  -1.65132   0.76039
C    -0.68516  -0.90873  -0.69643
C    -1.18845  -2.24981  -1.10272
N    -0.99171   0.14458  -1.41131
N    -0.60979   1.42619  -1.40684
C     0.45665   1.77460  -0.72653
N     1.41222   2.22713  -0.20985
H     0.56462  -0.53793   3.15932
H     0.16515   1.21535   3.02668
H     1.64389   0.56360   2.23113
H    -0.33155  -2.90548  -1.32874
H    -1.83272  -2.18475  -1.99048
H    -1.74789  -2.71660  -0.27634
H    -1.66277  -0.03139  -2.16737
