31
Generated by autodE on: 2022-06-17. E = -780.272982 Ha. Imaginary frequency = -395.3 cm-1
C     2.59358   0.09573   1.39751
O     1.59183   0.18420   0.37633
C     1.25647  -0.91909  -0.26964
O     1.77118  -2.00406  -0.07741
C     0.16021  -0.72091  -1.27375
C     0.06731  -1.83727  -2.27229
N    -0.13676   0.52071  -1.77273
N    -0.47665   1.57360  -1.01837
C     0.40318   2.32893  -0.39260
N     1.04196   3.15002   0.15094
C    -1.72813   0.48935   0.42383
C    -1.27653   1.17988   1.63826
O    -0.46148   0.78294   2.45845
C    -1.54050  -0.88115   0.09385
C    -1.05624  -1.87847   1.12627
C    -2.58436  -1.44379  -0.85063
H     3.55514  -0.20906   0.96055
H     2.66778   1.10222   1.82337
H     2.29077  -0.62696   2.16747
H    -0.11178  -2.78872  -1.75537
H     1.01758  -1.93609  -2.82113
H    -0.74182  -1.66120  -2.99254
H    -0.73691   0.46384  -2.59902
H    -2.55811   1.00253  -0.06394
H    -1.74777   2.18158   1.77151
H    -1.92102  -2.18719   1.73899
H    -0.30007  -1.46628   1.80003
H    -0.66183  -2.78320   0.64306
H    -2.31873  -2.44788  -1.20655
H    -2.75386  -0.78824  -1.71795
H    -3.54272  -1.53284  -0.31031
