62
Generated by autodE on: 2022-06-14. E = -1528.271691 Ha
C    -0.93154   0.41326   4.25571
N    -0.94003   0.73503   2.84085
C    -0.30964  -0.04323   1.95881
O     0.35277  -1.03032   2.31859
C    -0.52350   0.23464   0.45480
C    -1.72941  -0.67401   0.04413
C    -2.17594  -0.73990  -1.28784
C    -3.27047  -1.53147  -1.64639
C    -3.95034  -2.28295  -0.68749
C    -3.51724  -2.23168   0.63903
C    -2.42498  -1.43933   0.99760
C    -0.85431   1.72295   0.00289
C    -0.16432   2.89941   0.73523
C    -2.36312   2.04167   0.13191
C    -3.10298   2.53551  -1.07113
O    -2.89284   1.98747   1.23288
N    -0.45531   1.66397  -1.39451
C     0.78099   0.94702  -1.57727
C     1.94455   1.86830  -1.48392
N     2.78314   2.67111  -1.50905
C     0.84230   0.39529  -3.06621
C     2.18565   0.01920  -3.62599
O    -0.14284   0.50806  -3.76536
C     0.80592  -0.13187  -0.39472
C     0.64638  -1.56621  -0.95552
O     0.59070  -1.79054  -2.16993
N     0.56996  -2.52635  -0.03296
C     0.18378  -3.87761  -0.38457
C     2.17016  -0.06168   0.32597
C     3.23436  -0.81664  -0.19571
C     4.52468  -0.71794   0.32948
C     4.78408   0.14007   1.39945
C     3.73563   0.89207   1.93467
C     2.44872   0.79158   1.40391
H    -1.46866  -0.52863   4.46002
H     0.10041   0.30202   4.61795
H    -1.41820   1.22758   4.80664
H    -1.65262   1.37679   2.48009
H    -1.67210  -0.16592  -2.05950
H    -3.58724  -1.55547  -2.69173
H    -4.80496  -2.90251  -0.96873
H    -4.02969  -2.81219   1.40959
H    -2.12395  -1.44657   2.04335
H     0.92563   2.84290   0.65243
H    -0.48046   3.82987   0.23879
H    -0.43626   2.96891   1.79312
H    -4.14726   2.74080  -0.80458
H    -2.62340   3.46127  -1.43222
H    -3.04575   1.80707  -1.89088
H    -0.47933   2.55905  -1.87784
H     2.61179   0.91633  -4.10596
H     2.89169  -0.32551  -2.86269
H     2.04949  -0.74926  -4.39775
H     0.53898  -2.21819   0.94662
H    -0.85088  -3.90783  -0.76700
H     0.24928  -4.51098   0.50869
H     0.84784  -4.28663  -1.16030
H     3.06925  -1.49544  -1.03278
H     5.32695  -1.31908  -0.10434
H     5.79152   0.22037   1.81394
H     3.91389   1.56604   2.77557
H     1.66902   1.40064   1.85224
