22
Generated by autodE on: 2022-06-14. E = -571.076092 Ha
C     3.58970  -0.14375   0.17907
C     2.19258   0.27205   0.54588
O     1.95678   1.06063   1.46877
C     1.08432  -0.28510  -0.22625
C     1.29700  -1.18659  -1.28927
N     1.55785  -1.92659  -2.15504
N    -0.14248   0.14774   0.17202
C    -1.38200  -0.06425  -0.20206
C    -1.73705  -0.97783  -1.31920
C    -2.36192   0.71347   0.61107
C    -3.82006   0.58482   0.29312
O    -1.94737   1.43741   1.51432
H     3.80249   0.10742  -0.87230
H     4.30895   0.36389   0.83384
H     3.70343  -1.23516   0.28005
H    -0.05860   0.81068   0.96826
H    -1.28772  -0.63048  -2.26409
H    -2.82150  -1.03673  -1.45616
H    -1.35665  -1.99428  -1.12824
H    -4.40028   1.22181   0.97191
H    -4.14321  -0.46374   0.39713
H    -4.01117   0.87888  -0.75162
