22
Generated by autodE on: 2022-07-27. E = -571.074552 Ha
O    -2.47802   0.73651   2.58602
C    -3.05815  -0.23453   0.47951
N    -0.27284  -0.04619  -0.01143
C    -0.64529   0.39537   1.16806
C     0.31913   0.94323   2.15548
C    -2.09585   0.32968   1.49483
C     0.92191  -0.14822  -0.66640
C     2.16019   0.26947  -0.14150
N     3.22591   0.58966   0.21521
C     0.80254  -0.73611  -1.99641
C     2.04838  -0.90145  -2.81915
O    -0.31421  -1.08029  -2.40697
H    -2.80747  -1.27943   0.23376
H    -4.07118  -0.19852   0.89797
H    -3.03462   0.34694  -0.45633
H    -1.00417  -0.41761  -0.64264
H     0.84530   1.82185   1.74913
H     1.08084   0.19295   2.42137
H    -0.22194   1.23920   3.06078
H     2.77825  -1.53279  -2.28758
H     2.52859   0.07578  -2.98778
H     1.79545  -1.36020  -3.78311
