40
Generated by autodE on: 2022-06-14. E = -957.198475 Ha
C     0.17814   3.95052   1.37389
N    -0.23924   2.76830   0.64551
C     0.20806   1.54235   0.97122
O     1.00707   1.34863   1.89490
C    -0.36697   0.39788   0.16674
C     0.44959  -0.52040  -0.40552
C    -0.10894  -1.76526  -1.05585
O    -0.01276  -1.91717  -2.28165
N    -0.65586  -2.69763  -0.25473
C    -0.80610  -2.65687   1.18824
C     1.92273  -0.39718  -0.50947
C     2.73670  -1.52271  -0.28347
C     4.12630  -1.42548  -0.37173
C     4.72612  -0.20600  -0.70183
C     3.92554   0.91462  -0.94790
C     2.53674   0.82002  -0.85519
C    -1.84661   0.30194   0.15196
C    -2.55156  -0.00879  -1.02469
C    -3.94425  -0.11111  -1.01087
C    -4.65447   0.10016   0.17458
C    -3.96411   0.42228   1.34872
C    -2.57362   0.52843   1.33686
H    -0.25026   4.83654   0.89006
H    -0.16260   3.91752   2.42170
H     1.27530   4.04113   1.37701
H    -0.92847   2.85622  -0.09414
H    -1.03726  -3.50481  -0.74453
H    -1.82576  -2.36195   1.48395
H    -0.09833  -1.94351   1.62596
H    -0.59747  -3.65268   1.60465
H     2.27819  -2.47865  -0.02047
H     4.74339  -2.30679  -0.18203
H     5.81349  -0.13094  -0.77604
H     4.38524   1.86702  -1.22234
H     1.91841   1.69210  -1.07300
H    -2.00469  -0.16070  -1.95616
H    -4.47717  -0.35041  -1.93410
H    -5.74400   0.02065   0.18345
H    -4.51227   0.58974   2.27874
H    -2.04026   0.76984   2.25946
