62
Generated by autodE on: 2022-06-14. E = -1528.233350 Ha. Imaginary frequency = -314.6 cm-1
C    -0.74004  -0.00130   4.25138
N    -0.73188   0.34249   2.84153
C    -0.18441  -0.47759   1.93859
O     0.38896  -1.52928   2.26571
C    -0.34052  -0.19999   0.44002
C    -1.59143  -0.87283  -0.06510
C    -1.83168  -1.09657  -1.43626
C    -3.01949  -1.67622  -1.88646
C    -4.01582  -2.04989  -0.98295
C    -3.80043  -1.83548   0.38054
C    -2.61238  -1.25926   0.83084
C    -0.90809   1.91322  -0.01600
C    -0.04876   2.80390   0.84589
C    -2.37475   1.97175   0.32779
C    -3.41162   1.98813  -0.75467
O    -2.69096   2.00146   1.51253
N    -0.60663   1.81867  -1.34431
C     0.63426   1.44162  -1.80768
C     1.79778   2.19232  -1.45379
N     2.78182   2.77209  -1.23209
C     0.61126   0.95165  -3.22999
C     1.90808   0.86155  -3.97366
O    -0.47463   0.73439  -3.75514
C     0.89331  -0.32626  -0.32630
C     0.96630  -1.54926  -1.25073
O     1.15747  -1.53358  -2.47026
N     0.86555  -2.68999  -0.54886
C     0.86377  -3.98667  -1.19388
C     2.24091  -0.04787   0.25176
C     3.38753  -0.44990  -0.47107
C     4.67490  -0.19771  -0.00052
C     4.86585   0.47202   1.21060
C     3.74728   0.88876   1.93653
C     2.45915   0.63594   1.46536
H     0.28585  -0.15976   4.61597
H    -1.19453   0.82387   4.81360
H    -1.31552  -0.92338   4.43883
H    -1.35008   1.08813   2.51410
H    -1.10309  -0.81452  -2.18790
H    -3.16159  -1.82668  -2.95914
H    -4.94662  -2.49998  -1.33496
H    -4.56359  -2.11933   1.10889
H    -2.49553  -1.10923   1.90268
H     1.01609   2.57462   0.78850
H    -0.18897   3.84083   0.49582
H    -0.35803   2.76146   1.89306
H    -4.40111   2.11843  -0.30037
H    -3.21413   2.79786  -1.47410
H    -3.39594   1.03689  -1.31195
H    -1.33425   1.47137  -1.97585
H     2.73667   0.54837  -3.32673
H     2.14572   1.86641  -4.36436
H     1.79651   0.17175  -4.81915
H     0.68977  -2.61328   0.45482
H     1.78551  -4.14204  -1.77588
H     0.00667  -4.08509  -1.88085
H     0.79375  -4.76596  -0.42509
H     3.27388  -0.95510  -1.42987
H     5.53422  -0.52511  -0.59024
H     5.87354   0.67194   1.58164
H     3.87253   1.41816   2.88382
H     1.62644   0.98935   2.06595
