57
Generated by autodE on: 2022-06-24. E = -1267.205364 Ha
C    -1.78237   3.56672   1.16067
N    -1.48303   2.16360   0.95593
C    -1.75275   1.54237  -0.19639
O    -2.36859   2.08297  -1.12421
C    -1.28481   0.06777  -0.33054
C    -2.49143  -0.85824  -0.11251
C    -2.35602  -2.24149  -0.32233
C    -3.42576  -3.10970  -0.09902
C    -4.65820  -2.61452   0.33888
C    -4.80495  -1.24296   0.55289
C    -3.73061  -0.37476   0.33281
C    -0.65681  -0.09740  -1.73707
C    -1.46073   0.48858  -2.86420
O    -1.01733   1.13156  -3.79925
C     0.83084   0.27162  -1.55669
C     1.03746   1.79583  -1.45167
C     1.69591  -0.23622  -2.71534
C     1.11854  -0.41674  -0.15500
C     1.32276  -1.96609  -0.24321
C     2.07095  -2.67037   0.86257
O     0.81692  -2.63049  -1.13346
C     2.31580   0.22983   0.53553
C     2.16786   1.17044   1.56208
C     3.28220   1.79113   2.13447
C     4.56897   1.48179   1.68694
C     4.73028   0.54206   0.66399
C     3.61450  -0.07792   0.09766
N    -0.15186  -0.20906   0.57324
C    -0.39382  -0.89619   1.83085
H    -1.14866   4.20950   0.52642
H    -2.83371   3.77458   0.91499
H    -1.60523   3.82149   2.21287
H    -0.84062   1.69144   1.58336
H    -1.40330  -2.65229  -0.65519
H    -3.29294  -4.18093  -0.26819
H    -5.49632  -3.29358   0.51189
H    -5.76061  -0.83894   0.89511
H    -3.88097   0.69024   0.50916
H    -0.69176  -1.17408  -1.96173
H    -2.52690   0.16866  -2.85909
H     0.61216   2.22628  -0.53813
H     2.10972   2.03571  -1.45385
H     0.57522   2.28937  -2.31563
H     1.56168  -1.30742  -2.90406
H     1.42374   0.31001  -3.62888
H     2.76090  -0.04426  -2.52079
H     1.56663  -3.62489   1.07033
H     2.17410  -2.07779   1.77764
H     3.08539  -2.90002   0.49691
H     1.17168   1.42749   1.91718
H     3.14016   2.52129   2.93485
H     5.44051   1.96614   2.13355
H     5.73013   0.28733   0.30454
H     3.76488  -0.81434  -0.69375
H     0.46192  -0.74924   2.50431
H    -1.27591  -0.46322   2.32325
H    -0.57583  -1.98258   1.73498
