14
Generated by autodE on: 2022-06-24. E = -270.683202 Ha
C    -1.15841   0.88200   0.63627
C    -0.78955  -0.25915  -0.26756
C    -1.92822  -0.98444  -0.91221
C     0.49466  -0.64295  -0.50567
C     1.68612  -0.03066   0.06283
O     1.72250   0.89678   0.86835
H    -0.87831   0.65532   1.67842
H    -2.23849   1.08226   0.60146
H    -0.60966   1.79766   0.36947
H    -2.52283  -0.28268  -1.52327
H    -2.61520  -1.36685  -0.13674
H    -1.59654  -1.82015  -1.54370
H     0.67808  -1.48272  -1.18228
H     2.64361  -0.48229  -0.29387
