43
Generated by autodE on: 2022-07-27. E = -996.478247 Ha
C     0.11703   1.43624   3.22873
N    -0.12188   0.35869   2.28715
C    -0.71044   0.59315   1.10193
O    -1.23302   1.66961   0.80291
C    -0.78825  -0.58468   0.15411
C    -2.09317  -0.83234  -0.45645
C    -2.22397  -1.14176  -1.82570
C    -3.48589  -1.33163  -2.38651
C    -4.63362  -1.22078  -1.59437
C    -4.51556  -0.90184  -0.23640
C    -3.25860  -0.69817   0.32770
N     0.31212  -1.26767  -0.12887
C     0.24186  -2.59966  -0.76187
C     1.59208  -0.69072   0.03896
C     2.61243  -1.46546   0.66959
C     4.05356  -0.99413   0.60615
O     2.37540  -2.54036   1.27752
C     1.72632   0.72827  -0.34317
C     2.40472   1.65664   0.47052
C     2.51014   2.99997   0.09928
C     1.92102   3.45493  -1.08280
C     1.22905   2.54753  -1.89634
C     1.13628   1.20600  -1.53504
H    -0.83163   1.84194   3.61263
H     0.70126   1.04599   4.07047
H     0.67455   2.25950   2.75465
H     0.37156  -0.51997   2.41560
H    -1.33786  -1.20075  -2.45790
H    -3.57413  -1.55928  -3.45105
H    -5.62068  -1.37323  -2.03676
H    -5.40906  -0.80945   0.38478
H    -3.17131  -0.45082   1.38757
H    -0.73050  -3.06123  -0.56211
H     1.03432  -3.20895  -0.32103
H     0.40690  -2.50373  -1.84244
H     4.24358  -0.23588  -0.16366
H     4.36052  -0.58512   1.58283
H     4.68241  -1.87799   0.41653
H     2.83045   1.32846   1.41960
H     3.04123   3.69819   0.75111
H     1.99342   4.50713  -1.36750
H     0.76438   2.88958  -2.82450
H     0.59205   0.51135  -2.17942
