43
Generated by autodE on: 2022-06-24. E = -996.481175 Ha
C     1.37314  -1.70359  -3.20908
N     1.35315  -0.73322  -2.13053
C     1.01491  -1.08733  -0.88989
O     0.82679  -2.24297  -0.49052
C     1.00052   0.01440   0.15806
C     2.28519   0.39078   0.75483
C     2.58025   1.74251   1.01948
C     3.82461   2.09616   1.53800
C     4.78236   1.11103   1.80238
C     4.49897  -0.23229   1.53131
C     3.26326  -0.59367   0.99814
N    -0.16247   0.46820   0.55145
C    -0.35688   1.18036   1.82300
C    -1.26691   0.43796  -0.35517
C    -1.05998   1.10009  -1.58582
C    -2.18457   1.17466  -2.60012
O     0.04525   1.64032  -1.91326
C    -2.50337  -0.16118   0.16966
C    -2.41496  -1.35186   0.92603
C    -3.55277  -1.95172   1.46622
C    -4.81575  -1.38637   1.25841
C    -4.92126  -0.20536   0.51608
C    -3.78212   0.40649  -0.01104
H     0.35575  -2.02846  -3.48531
H     1.94626  -2.59124  -2.90778
H     1.85025  -1.25299  -4.08840
H     1.17438   0.25958  -2.34088
H     1.84645   2.51315   0.78200
H     4.05085   3.14713   1.73003
H     5.75509   1.39168   2.21252
H     5.24653  -1.00224   1.73326
H     3.03910  -1.64065   0.78845
H     0.43298   0.91825   2.53502
H    -1.33065   0.88101   2.22840
H    -0.36711   2.26433   1.64550
H    -2.70344   2.14495  -2.52719
H    -2.93045   0.37774  -2.48853
H    -1.73532   1.11684  -3.60273
H    -1.43684  -1.81636   1.06960
H    -3.45367  -2.87403   2.04435
H    -5.70821  -1.85771   1.67664
H    -5.89949   0.25691   0.36083
H    -3.88395   1.35072  -0.54648
