57
Generated by autodE on: 2022-06-24. E = -1267.127914 Ha. Imaginary frequency = -294.2 cm-1
C    -1.26835   2.70133   2.64129
N    -1.19954   1.38032   2.04881
C    -1.47052   1.18034   0.74640
O    -1.92043   2.07081   0.02327
C    -1.38264  -0.28303   0.32402
C    -2.72780  -0.90236   0.19957
C    -2.91304  -2.10334  -0.51881
C    -4.17956  -2.66177  -0.67074
C    -5.29952  -2.03470  -0.11328
C    -5.13584  -0.84256   0.59608
C    -3.86733  -0.28127   0.75013
C    -0.65325  -0.07768  -1.94467
C    -1.03501   1.24209  -2.39453
O    -0.29810   2.20614  -2.62647
C     0.65896  -0.62245  -1.95919
C     1.84584   0.11462  -2.53392
C     0.70072  -2.10692  -2.23759
C     1.00920  -0.64158   0.35957
C     2.09401  -1.63549   0.33934
C     3.50821  -1.11312   0.16504
O     1.92779  -2.85912   0.37995
C     1.43609   0.72507   0.84468
C     1.99073   0.76045   2.14054
C     2.42061   1.95679   2.71394
C     2.30495   3.15396   2.00006
C     1.74267   3.13471   0.72308
C     1.30905   1.93366   0.15008
N    -0.30659  -1.05055   0.66796
C    -0.54407  -2.37867   1.28337
H    -0.77634   3.44026   1.99258
H    -0.75936   2.68148   3.61239
H    -2.31320   3.01842   2.79316
H    -0.77102   0.62887   2.57848
H    -2.05759  -2.59970  -0.97423
H    -4.29343  -3.58974  -1.23548
H    -6.29326  -2.47138  -0.23561
H    -6.00087  -0.34304   1.03798
H    -3.77272   0.64610   1.31472
H    -1.46303  -0.79531  -2.05668
H    -2.12825   1.34036  -2.58493
H     1.68583   0.22939  -3.62149
H     2.00494   1.11529  -2.12764
H     2.76481  -0.47175  -2.40371
H     1.69332  -2.54568  -2.08032
H    -0.03091  -2.66621  -1.63959
H     0.43991  -2.25977  -3.30025
H     4.05760  -1.81883  -0.47425
H     4.00091  -1.10164   1.15116
H     3.56844  -0.10110  -0.24865
H     2.07895  -0.16861   2.70890
H     2.84639   1.95358   3.72020
H     2.64100   4.09482   2.44211
H     1.62906   4.06413   0.16002
H     0.84851   1.96877  -0.83167
H    -1.51870  -2.34901   1.77998
H     0.23006  -2.54709   2.03775
H    -0.51683  -3.20409   0.56689
