21
Generated by autodE on: 2022-07-27. E = -587.126806 Ha
C    -3.11572   0.66473   2.13050
N    -2.16596   0.81681   1.04853
C    -1.07629   0.04934   0.95532
O    -0.79896  -0.84426   1.78529
C    -0.14985   0.27268  -0.19374
N     0.88073  -0.59851  -0.10113
C     1.97324  -0.88235  -0.78558
C     2.82422  -1.91092  -0.32768
N     3.54716  -2.75613   0.02614
C    -0.34380   1.27091  -1.23150
C     0.65918   1.40882  -2.34500
O    -1.33627   2.01851  -1.20906
H    -2.63737   0.82479   3.11008
H    -3.91639   1.40364   2.00495
H    -3.56222  -0.34272   2.13537
H    -2.28617   1.51294   0.31008
H     0.70328  -1.16536   0.76018
H     2.24161  -0.34980  -1.69384
H     0.33270   2.21623  -3.01216
H     0.73991   0.47317  -2.92144
H     1.65840   1.64906  -1.94735
