21
Generated by autodE on: 2022-06-02. E = -587.125618 Ha
C     3.21362  -1.64759  -1.00172
N     1.79836  -1.53275  -0.72853
C     1.25789  -0.37135  -0.31812
O     1.95101   0.65385  -0.15965
C    -0.20132  -0.36903  -0.06202
N    -0.79495   0.78226   0.35158
C    -0.32451   1.99711   0.59112
C    -1.20493   3.01278   1.01570
N    -1.90208   3.88029   1.36843
C    -1.07221  -1.52833  -0.22260
C    -2.55190  -1.39332   0.07319
O    -0.63243  -2.62648  -0.59733
H     3.52828  -0.96383  -1.80727
H     3.81850  -1.41105  -0.11096
H     3.43213  -2.67726  -1.31077
H     1.15897  -2.32296  -0.83091
H    -1.80369   0.68898   0.50690
H     0.73751   2.18667   0.45348
H    -3.02672  -2.36521  -0.10722
H    -3.02914  -0.64189  -0.57723
H    -2.73184  -1.10263   1.12135
