47
Generated by autodE on: 2022-06-02. E = -1330.751299 Ha. Imaginary frequency = -225.8 cm-1
C    -4.59827  -0.39521   1.55697
N    -3.53753  -0.20064   0.59039
C    -2.62391  -1.14447   0.35239
O    -2.60878  -2.24754   0.92708
C    -1.53949  -0.82620  -0.64001
C    -1.71089   0.18175  -1.69868
C    -0.91313   0.10262  -2.96905
O    -2.54479   1.08313  -1.55586
N    -0.61103  -1.80288  -0.65202
C     0.65969  -1.73541  -1.08632
C     1.50434  -2.86304  -0.88294
N     2.24076  -3.74776  -0.70871
C     1.47529  -0.07519   0.18476
C     2.48823   0.45512  -0.81091
O     2.47158   0.23473  -2.02689
N     3.44294   1.20067  -0.22840
C     4.48626   1.84787  -1.00178
C     1.98370  -0.73967   1.51901
C     0.95404  -1.76634   1.98368
C    -0.10225  -1.04592   2.37740
C     0.29612   0.40583   2.14509
O     1.71769   0.34605   2.43562
C     0.38217   0.67126   0.61518
C    -0.11650   1.90014   0.00107
O     0.30242   2.39110  -1.03751
O    -1.09745   2.46402   0.72402
C    -1.64662   3.68924   0.22130
H    -4.19417  -0.50597   2.57639
H    -5.26180   0.47747   1.53395
H    -5.18603  -1.29737   1.32654
H    -3.46131   0.65296   0.03522
H    -1.42293   0.71110  -3.72677
H    -0.79733  -0.92981  -3.32951
H     0.08875   0.52781  -2.80336
H    -0.85595  -2.53714   0.03096
H     0.93793  -1.08679  -1.91481
H     3.35061   1.41525   0.76047
H     4.07281   2.63392  -1.65482
H     5.20790   2.30183  -0.31200
H     5.00882   1.11662  -1.63576
H     3.03651  -1.03622   1.51678
H     1.07310  -2.84714   1.92857
H    -1.07719  -1.38654   2.71742
H    -0.21234   1.18021   2.72444
H    -2.46637   3.95196   0.89989
H    -0.88379   4.48176   0.22438
H    -2.02699   3.54891  -0.79905
