35
Generated by autodE on: 2022-05-29. E = -1172.329838 Ha
C     3.81574  -2.48396  -0.90203
O     2.68608  -2.05372  -0.12604
C     2.50320  -0.74457  -0.00739
O     3.25845   0.09404  -0.45161
C     1.24452  -0.40880   0.81797
C     1.66929  -0.33094   2.28031
O     0.27771  -1.46376   0.70760
C    -0.55585  -1.23797  -0.40572
C     0.03486  -1.83273  -1.62889
N     0.52469  -2.29442  -2.57286
C    -1.94598  -1.89302  -0.18220
C    -2.31923  -2.21434   1.22616
O    -2.65252  -2.08519  -1.14904
C    -0.65410   0.31199  -0.57986
C    -1.83825   1.00429   0.16872
O    -1.36638   1.02128   1.52371
C    -0.16128   1.76302   1.26602
C    -0.71085   2.95031   0.49108
F    -0.11762   4.13663   0.44586
C    -1.75554   2.47906  -0.19187
F    -2.51117   3.05320  -1.11981
C     0.56311   0.84961   0.23388
H     3.80046  -3.57921  -0.87425
H     3.71678  -2.12766  -1.93740
H     4.74932  -2.10171  -0.46592
H     0.79199  -0.15917   2.91780
H     2.14151  -1.27821   2.57725
H     2.39138   0.48502   2.42165
H    -3.35864  -2.56361   1.26229
H    -1.63965  -2.99549   1.60399
H    -2.17379  -1.33450   1.87033
H    -0.65218   0.58119  -1.64077
H    -2.82876   0.54671   0.07493
H     0.38449   2.00245   2.18326
H     1.27623   1.42510  -0.36385
