22
Generated by autodE on: 2022-05-29. E = -666.154545 Ha
C     2.89844  -2.49020  -0.38735
O     1.83220  -1.53751  -0.24475
C     2.14302  -0.26299  -0.46102
O     3.24895   0.14263  -0.76366
C     0.98324   0.65491  -0.29789
C     1.10814   2.10852  -0.49670
O    -0.10631   0.06143   0.02200
C    -1.36472   0.44634   0.26306
C    -1.80824   1.78443   0.19448
N    -2.25568   2.86237   0.15920
C    -2.28554  -0.62470   0.60680
C    -1.73006  -2.02583   0.65794
O    -3.46859  -0.36901   0.84350
H     2.45520  -3.46900  -0.17362
H     3.29677  -2.46464  -1.41174
H     3.70439  -2.26943   0.32706
H     0.82935   2.64951   0.42364
H     2.14162   2.35257  -0.76461
H     0.43014   2.44878  -1.29769
H    -0.91707  -2.09327   1.39758
H    -2.53754  -2.71847   0.92669
H    -1.30236  -2.30895  -0.31642
