39
Generated by autodE on: 2022-06-20. E = -1179.711819 Ha. Imaginary frequency = -378.4 cm-1
C    -4.86660   0.21243  -1.60847
O    -3.54002   0.57029  -1.17937
C    -3.00309  -0.18046  -0.22650
O    -3.52181  -1.14001   0.30182
C    -1.62458   0.27381   0.07719
O    -0.98228  -0.23923   1.14966
C     0.11932   0.60586   1.41366
O     0.95275   0.32974   2.23964
C    -0.06513   1.68763   0.47524
C     0.68480   2.93329   0.36741
C     0.07020   4.03615  -0.44398
O     1.79241   3.01068   0.89397
O    -1.31167   1.56741  -0.07036
C     0.78902   0.41394  -1.30681
C     2.17318   0.05460  -0.84073
C     2.18282  -1.30151  -0.17039
C     3.30965  -1.75310   0.66537
N     4.36091  -0.90462   0.76507
O     3.31946  -2.85201   1.25212
C     1.14121  -2.15524  -0.33858
N     0.01818  -1.86804  -1.07104
C    -1.06864  -2.83853  -1.11704
C    -0.22076  -0.54692  -1.46231
H    -5.57066   0.29062  -0.76832
H    -5.12821   0.92737  -2.39588
H    -4.87111  -0.81363  -2.00239
H    -0.09635   3.68968  -1.47718
H    -0.91439   4.30965  -0.03221
H     0.73707   4.90728  -0.44501
H     0.67369   1.33593  -1.87601
H     2.85541   0.07506  -1.71548
H     2.55290   0.84330  -0.16762
H     5.14851  -1.17417   1.34442
H     4.38614  -0.00451   0.30312
H     1.16578  -3.14612   0.11696
H    -1.75134  -2.58263  -1.93790
H    -0.66110  -3.84160  -1.30157
H    -1.63777  -2.85117  -0.17506
H    -0.98885  -0.40941  -2.22430
