43
Generated by autodE on: 2022-06-20. E = -1053.717748 Ha
C    -5.52734   1.53307   0.20354
C    -4.49881   0.85066  -0.33911
C    -4.68398  -0.05961  -1.52392
C    -3.15642   0.98852   0.23576
C    -2.05031   0.36425  -0.20821
C    -0.70777   0.53778   0.42018
C    -0.03051  -0.78201   0.87411
C    -0.61103  -1.44362   2.11902
C    -1.57077  -2.56775   1.91386
O    -0.29138  -0.98737   3.19787
O     0.00056  -1.69096  -0.26229
C     0.99447  -1.22488  -1.06293
O     1.30217  -1.71924  -2.11096
C     1.52686   0.00764  -0.31991
C     2.95783   0.37802  -0.64374
O     3.23924   0.73018  -1.79206
N     3.81915   0.28764   0.37706
C     5.22706   0.61510   0.26834
O     1.31821  -0.42484   1.03431
C     0.44253   1.14419  -0.49103
C     0.96245   2.44165   0.13010
C     0.04281   1.37331  -1.94723
H    -5.37825   2.19036   1.06562
H    -6.54128   1.45257  -0.19828
H    -5.73091  -0.07087  -1.85816
H    -4.38628  -1.09289  -1.27925
H    -4.05188   0.25740  -2.37000
H    -3.07069   1.66037   1.09769
H    -2.10554  -0.31289  -1.06366
H    -0.80118   1.15360   1.32450
H    -1.05829  -3.40135   1.40736
H    -2.38198  -2.23878   1.24276
H    -1.97850  -2.89576   2.87804
H     3.45598  -0.02586   1.27238
H     5.84882  -0.24833   0.54940
H     5.44808   0.89089  -0.76929
H     5.48455   1.46024   0.92518
H     1.77373   2.87041  -0.47734
H     1.33369   2.27396   1.15132
H     0.14532   3.17749   0.17816
H     0.91493   1.71082  -2.52434
H    -0.73287   2.15099  -2.00038
H    -0.35661   0.47100  -2.43038
