23
Generated by autodE on: 2022-06-20. E = -351.521383 Ha
C     3.54470   0.94103   0.92140
C     2.55379   0.32325   0.24149
C     2.85324  -0.61223  -0.90190
C     1.15903   0.55807   0.60981
C     0.07791   0.00290   0.00672
C    -1.28737   0.27022   0.41054
C    -2.41660  -0.23725  -0.14540
C    -2.43574  -1.18625  -1.30994
C    -3.77112   0.13435   0.38821
H     4.59647   0.78362   0.66667
H     3.32390   1.61970   1.75110
H     2.45227  -1.62062  -0.70602
H     3.93552  -0.69816  -1.07316
H     2.38150  -0.26260  -1.83529
H     0.99435   1.24592   1.44793
H     0.23437  -0.68397  -0.82947
H    -1.40517   0.95787   1.25680
H    -1.43741  -1.44180  -1.68777
H    -2.94892  -2.12359  -1.03120
H    -3.01859  -0.75542  -2.14322
H    -4.32445  -0.76557   0.71192
H    -4.38722   0.60332  -0.40003
H    -3.70722   0.82847   1.23903
