48
Generated by autodE on: 2022-06-11. E = -6378.608668 Ha
C     2.56752   3.74905   2.09476
O     1.75784   2.56639   1.99653
C     0.75360   2.60562   1.12249
O     0.45488   3.57034   0.45668
C    -0.01292   1.30958   1.12417
N    -0.69711   1.00203   2.16774
C    -1.33781  -0.27756   1.89824
C    -0.89330  -1.32678   2.91069
C     0.47432  -1.56407   3.10816
C     0.89624  -2.54854   4.00349
C    -0.04599  -3.30321   4.71166
C    -1.40997  -3.06342   4.52260
C    -1.83206  -2.07790   3.62492
C    -0.95979  -0.64098   0.47830
C    -0.11369   0.31803   0.01489
C     0.58625   0.42999  -1.30470
Br    2.49091   0.96537  -0.96925
Br   -0.28859   1.91522  -2.33616
C     0.60970  -0.77363  -2.24262
C     1.34781  -2.04282  -1.79607
C     1.03976  -2.61960  -0.41524
C    -0.40607  -3.03490  -0.14491
C    -1.46198  -1.92225  -0.12417
F    -2.52342  -2.38494   0.69054
C    -2.21024  -1.74245  -1.46607
O    -2.34005  -2.62649  -2.28217
O    -2.75884  -0.54081  -1.55610
C    -3.52625  -0.25273  -2.73753
H     1.95699   4.60852   2.40601
H     3.33133   3.52968   2.84908
H     3.03986   3.96679   1.12553
H    -2.43052  -0.15816   1.97017
H     1.21190  -0.97410   2.55930
H     1.96411  -2.72784   4.14873
H     0.28371  -4.07507   5.41110
H    -2.15103  -3.64580   5.07528
H    -2.89768  -1.89724   3.46922
H    -0.42886  -0.99713  -2.51135
H     1.06388  -0.43524  -3.18375
H     2.43048  -1.85254  -1.85146
H     1.12798  -2.80184  -2.56474
H     1.65716  -3.52281  -0.29012
H     1.37475  -1.92516   0.36972
H    -0.74090  -3.79687  -0.86400
H    -0.45262  -3.48189   0.85877
H    -4.39664  -0.92127  -2.79510
H    -3.84665   0.78992  -2.63913
H    -2.90129  -0.37866  -3.63276
