22
Generated by autodE on: 2022-06-11. E = -591.892224 Ha
C     4.79050  -0.11165  -0.79193
O     3.71427  -0.29538   0.14521
C     2.53101  -0.63953  -0.36559
O     2.30223  -0.81884  -1.54918
C     1.53329  -0.90865   0.67103
N     0.65346  -0.15726   1.06720
C    -0.38450   0.49287   1.43603
C    -1.63180   0.45606   0.67651
C    -2.77225   1.08980   1.20610
C    -3.98146   1.05997   0.51098
C    -4.06984   0.40014  -0.71965
C    -2.93748  -0.22678  -1.25547
C    -1.72498  -0.19854  -0.56886
H     4.97316  -1.03978  -1.35229
H     4.55636   0.70242  -1.49274
H     5.66914   0.14791  -0.19060
H    -0.31892   1.08788   2.35258
H    -2.70178   1.60081   2.16935
H    -4.86049   1.55336   0.93226
H    -5.01669   0.37884  -1.26397
H    -2.99987  -0.73557  -2.22028
H    -0.83917  -0.66973  -1.00147
