26
Generated by autodE on: 2022-06-11. E = -5786.573788 Ha
C     3.15970  -3.08676  -3.96960
O     2.04231  -2.22306  -3.68711
C     1.97974  -1.71549  -2.46782
O     2.78080  -1.91726  -1.58176
C     0.79154  -0.76312  -2.29516
F    -0.18866  -1.06316  -3.23748
C     0.20746  -0.82426  -0.95672
C    -0.30276  -0.38894   0.05202
C    -0.78969   0.61249   0.95997
Br    0.57036   0.87294   2.39848
Br   -2.49138   0.04728   1.81537
C    -1.00270   1.92494   0.18362
C     0.16218   2.34982  -0.73492
C     0.20875   1.77711  -2.17938
C     1.25711   0.69669  -2.51156
H     3.04018  -3.39959  -5.01263
H     3.14075  -3.95950  -3.30194
H     4.10364  -2.53963  -3.83734
H    -1.21985   2.71437   0.91765
H    -1.91242   1.78770  -0.42234
H     1.12360   2.17675  -0.22407
H     0.07204   3.44269  -0.82300
H     0.43396   2.62000  -2.84948
H    -0.78971   1.42209  -2.48316
H     2.17153   0.84774  -1.91776
H     1.54108   0.75713  -3.57393
