48
Generated by autodE on: 2022-06-11. E = -6378.476434 Ha. Imaginary frequency = -103.2 cm-1
C     2.94533   3.45216   2.48530
O     1.90653   2.51660   2.15318
C     0.96239   2.94722   1.31260
O     0.89873   4.06339   0.83888
C     0.06350   1.84805   0.95267
N    -1.01886   1.50743   1.39206
C    -2.04623   0.73855   1.53441
C    -2.08018  -0.36980   2.48133
C    -0.95495  -0.73881   3.24447
C    -1.00872  -1.86281   4.06437
C    -2.17815  -2.63284   4.13709
C    -3.30336  -2.26019   3.39493
C    -3.26009  -1.12974   2.57974
C    -0.76527  -0.71673  -0.40554
C     0.13452   0.05115  -0.73425
C     1.22307   0.38960  -1.62554
Br    2.94327   0.31283  -0.62328
Br    1.00104   2.25809  -2.30769
C     1.24019  -0.55206  -2.83879
C     1.55495  -2.03888  -2.60219
C     0.77647  -2.86560  -1.56339
C    -0.76602  -2.83748  -1.62874
C    -1.37981  -2.04958  -0.45158
F    -1.06064  -2.73813   0.72594
C    -2.90494  -1.98524  -0.57082
O    -3.48777  -1.07612  -1.12137
O    -3.48560  -3.05280  -0.04458
C    -4.92207  -3.09993  -0.08647
H     2.52510   4.33754   2.98336
H     3.62137   2.92032   3.16428
H     3.48313   3.76012   1.57691
H    -2.96927   1.03644   1.02699
H    -0.03923  -0.14641   3.17984
H    -0.13137  -2.14735   4.65005
H    -2.21072  -3.51815   4.77624
H    -4.21842  -2.85481   3.44631
H    -4.13319  -0.84041   1.99062
H     0.24437  -0.44641  -3.29793
H     1.96804  -0.16416  -3.56626
H     2.62556  -2.13339  -2.35986
H     1.42771  -2.51256  -3.59024
H     1.10502  -3.90806  -1.69468
H     1.09909  -2.59088  -0.54793
H    -1.12860  -2.38480  -2.56454
H    -1.18327  -3.85449  -1.57567
H    -5.20581  -4.03546   0.40792
H    -5.34354  -2.23956   0.45210
H    -5.27344  -3.09295  -1.12774
