18
Generated by autodE on: 2022-10-21. E = -472.698037 Ha
C    -1.31488   1.62888  -0.19836
N    -1.66097   0.59904   0.74326
N    -1.17533  -0.55077   0.56095
C    -1.66083  -1.61641   1.45759
N    -0.37298  -0.99314  -0.40173
C     0.77321  -0.32841  -0.70911
O     1.38444  -0.48887  -1.75875
O     1.25497   0.44453   0.29783
C     2.47976   1.13591   0.03879
H    -1.20079   1.23269  -1.22226
H    -2.10812   2.38597  -0.16890
H    -0.36548   2.11203   0.08049
H    -2.42558  -1.20248   2.12100
H    -0.80057  -1.99739   2.02326
H    -2.06949  -2.41984   0.83222
H     2.37362   1.81190  -0.82266
H     3.29584   0.42474  -0.15652
H     2.69756   1.71552   0.94417
