17
Generated by autodE on: 2022-10-21. E = -881.716880 Ha
C     2.75758  -0.06999  -0.76363
O     1.80127   0.95931  -0.49216
C     0.60688   0.60261  -0.01384
C    -0.02205  -0.54158   0.31595
Cl    0.41991  -2.21164   0.19333
C    -1.46775  -0.10574   0.65318
C    -2.13581   0.36581  -0.66131
C    -1.50473   1.50100  -0.97560
C    -0.47220   1.69884   0.15855
O    -1.20225   1.16561   1.27687
H     3.65984   0.43734  -1.12737
H     2.38196  -0.75747  -1.53606
H     2.99395  -0.63366   0.15156
H    -2.03445  -0.78377   1.30063
H    -2.90817  -0.17823  -1.20395
H    -1.61148   2.14597  -1.84684
H    -0.09086   2.71012   0.33840
