35
Generated by autodE on: 2022-10-21. E = -1354.394718 Ha. Imaginary frequency = -347.2 cm-1
C    -4.50192   2.73631  -0.32945
O    -3.76667   1.60382   0.14357
C    -2.44175   1.79889   0.35016
O    -1.90924   2.89757   0.24844
N    -1.79474   0.67963   0.77993
C     0.17233   0.58224  -0.17936
C     1.02903   0.17908   1.03470
O     0.60156  -1.17677   1.21762
C     0.90841  -1.60409  -0.12065
C     2.39319  -1.18394  -0.20351
Cl    3.51117  -1.99641  -1.24635
C     2.46687  -0.04437   0.51430
O     3.38856   0.88307   0.78080
C     4.68678   0.74156   0.19541
C     0.09976  -0.57915  -0.93717
N    -2.11397  -1.04859  -0.70746
C    -2.48198  -0.19548  -1.82597
N    -2.22396  -0.54567   0.48300
C    -2.28740  -1.50395   1.59108
H    -4.45002   3.56659   0.38975
H    -5.53976   2.39827  -0.43671
H    -4.11511   3.07344  -1.30294
H     0.09904   1.60774  -0.53391
H     0.94335   0.78139   1.94461
H     0.70012  -2.66763  -0.27832
H     5.27895   1.59296   0.55336
H     5.15915  -0.19874   0.51708
H     4.62441   0.76922  -0.90263
H     0.00865  -0.63615  -2.01871
H    -2.17578  -0.70649  -2.74639
H    -3.57894  -0.09092  -1.83410
H    -2.04303   0.81353  -1.82573
H    -1.74725  -1.09895   2.45114
H    -3.34602  -1.65129   1.85565
H    -1.85385  -2.45912   1.27628
