43
Generated by autodE on: 2022-06-20. E = -1046.792690 Ha
C    -3.90739   0.85727   0.22690
N    -2.76065  -0.02751   0.34033
C    -2.87035  -1.35798  -0.04055
C    -1.82074  -2.18120  -0.22693
C    -0.40444  -1.68704  -0.12070
C    -0.30145  -0.37668   0.68683
C    -0.29972  -0.57127   2.21472
N    -0.79129  -1.72977   2.67709
O     0.11338   0.31857   2.96503
C     0.90605   0.48840   0.24411
C     2.20840  -0.27830   0.14834
C     2.98913  -0.43150   1.30449
C     4.16510  -1.18502   1.27602
C     4.58377  -1.78852   0.08580
C     3.81788  -1.63118  -1.07309
C     2.63756  -0.88296  -1.04155
N     0.46146   1.05024  -1.03538
C     1.28274   2.10145  -1.61056
C    -0.97800   1.27117  -1.00914
C    -1.61119   0.66733  -2.20296
N    -2.08444   0.17368  -3.13899
C    -1.36717   2.69763  -0.95956
N    -1.63885   3.82313  -0.89264
C    -1.46966   0.57776   0.35181
H    -4.82249   0.31256   0.49806
H    -4.03810   1.26003  -0.79503
H    -3.79003   1.70538   0.91779
H    -3.89925  -1.71118  -0.14065
H    -2.00397  -3.22290  -0.49510
H     0.00883  -1.51550  -1.12762
H     0.25122  -2.44542   0.33292
H    -1.24996  -2.39503   2.06177
H    -0.87409  -1.85523   3.68178
H     1.03290   1.28198   1.00079
H     2.66640   0.04234   2.23370
H     4.75971  -1.29612   2.18603
H     5.50608  -2.37380   0.06051
H     4.14019  -2.09296  -2.00958
H     2.04715  -0.76123  -1.95033
H     2.31055   1.73474  -1.73143
H     0.90192   2.37026  -2.60692
H     1.31298   3.01388  -0.98383
H    -1.46480   1.39187   1.08962
