23
Generated by autodE on: 2022-06-20. E = -589.047682 Ha
C     0.57110  -1.86023   0.45769
N     0.92076  -0.47085   0.11681
C     0.01955   0.42005  -0.22798
C    -1.42740   0.31691  -0.20634
C    -2.18086  -0.49397   0.67270
C    -3.57358  -0.47780   0.62155
C    -4.24324   0.33801  -0.29678
C    -3.51018   1.16415  -1.15609
C    -2.11928   1.16528  -1.10227
C     2.29782  -0.15446   0.16880
C     3.25777  -1.14273   0.42990
N     4.09384  -1.93360   0.65264
C     2.72050   1.16896  -0.02541
N     3.07383   2.27454  -0.18517
H     0.48021  -1.96919   1.54650
H     1.36664  -2.51906   0.09408
H    -0.36617  -2.13148  -0.03447
H     0.42521   1.36937  -0.58601
H    -1.68877  -1.10895   1.42396
H    -4.14212  -1.10284   1.31358
H    -5.33496   0.34074  -0.33223
H    -4.02590   1.81506  -1.86536
H    -1.54724   1.81895  -1.76470
