43
Generated by autodE on: 2022-06-20. E = -1046.752328 Ha. Imaginary frequency = -425.0 cm-1
C    -4.10485   0.51424  -0.15586
N    -2.85114  -0.23080  -0.25876
C    -2.66828  -1.13946  -1.31548
C    -1.61651  -1.96994  -1.33185
C    -0.67372  -2.04741  -0.16219
C    -0.63864  -0.74638   0.64742
C    -0.13770  -0.84211   2.06956
N     0.45077  -1.99885   2.42738
O    -0.23852   0.11054   2.85552
C     0.80263   0.44853   0.03087
C     2.08672  -0.30176   0.10049
C     2.90351  -0.04130   1.21882
C     4.10586  -0.72071   1.41002
C     4.51625  -1.68829   0.48765
C     3.71215  -1.96834  -0.61993
C     2.50740  -1.28709  -0.81376
N     0.40003   1.11785  -1.10719
C     0.57147   0.56818  -2.43978
C    -0.71273   1.98463  -0.90371
C    -1.73267   2.05147  -1.85877
N    -2.60190   2.05905  -2.64626
C    -0.70725   2.90268   0.15969
N    -0.71737   3.63644   1.07567
C    -1.84905   0.02845   0.58792
H    -4.82737  -0.03471   0.46897
H    -4.52782   0.66068  -1.15584
H    -3.91184   1.49562   0.29523
H    -3.42639  -1.09794  -2.09731
H    -1.49463  -2.66544  -2.16369
H     0.33407  -2.33391  -0.49193
H    -1.01176  -2.87734   0.48943
H     0.65566  -2.73261   1.76035
H     0.88650  -2.04925   3.34305
H     0.70611   1.10257   0.89971
H     2.57923   0.70311   1.94904
H     4.72258  -0.49533   2.28302
H     5.45668  -2.22462   0.63407
H     4.01983  -2.72781  -1.34221
H     1.90076  -1.54379  -1.67904
H     1.61756   0.28731  -2.60190
H    -0.07327  -0.31536  -2.60811
H     0.31274   1.33589  -3.17884
H    -2.04992   0.76011   1.36913
