57
Generated by autodE on: 2022-10-24. E = -2239.801346 Ha
C    -4.44206   5.48220   3.36198
N    -3.73132   6.73910   3.21033
C    -2.40790   6.77292   3.03359
O    -1.71392   5.75926   2.93440
C    -1.73940   8.17302   2.83619
C    -2.64938   9.27296   3.27525
N    -3.36101  10.16208   3.50034
C    -0.39407   8.29070   3.56847
C     0.57626   8.62390   2.68879
C     2.00758   9.03685   2.96895
Cl    2.03538  10.88314   3.01674
Cl    3.08686   8.55378   1.57167
C     2.68619   8.55999   4.24170
C     2.65339   7.03939   4.47464
C     1.78336   6.64345   5.66693
C     0.26985   6.69571   5.46640
C    -0.40006   8.03309   5.08851
O     0.19271   9.06376   5.83550
C    -0.37182  10.36336   5.68046
O    -1.79008   7.96335   5.37420
C    -2.19968   7.75857   6.71823
C     0.02086   8.68132   1.25906
C     0.20060  10.10723   0.63970
C    -0.79311  11.14703   1.08317
O     1.07491  10.34602  -0.16496
C     0.53273   7.55053   0.30239
C     0.79290   6.19949   0.90243
O     0.51959   7.73125  -0.89981
N    -1.38072   8.38153   1.46186
C    -2.33952   8.21999   0.39310
H    -5.51870   5.68650   3.39521
H    -4.14611   4.96730   4.29008
H    -4.22876   4.81290   2.51537
H    -4.24653   7.60662   3.32008
H     3.71792   8.93137   4.19179
H     2.20236   9.07589   5.07719
H     3.68136   6.69564   4.66084
H     2.31698   6.50477   3.57226
H     2.06041   7.26377   6.53501
H     2.02101   5.60421   5.94645
H    -0.04232   5.96589   4.70673
H    -0.19222   6.37962   6.41208
H    -0.35985  10.68913   4.62907
H     0.25578  11.04542   6.26864
H    -1.40498  10.40363   6.05763
H    -3.20546   8.19320   6.80686
H    -2.25393   6.68645   6.96706
H    -1.52839   8.26486   7.42771
H    -0.41326  12.14131   0.81554
H    -1.75219  10.97950   0.56677
H    -0.98970  11.09271   2.16184
H     0.95511   5.47449   0.09449
H    -0.06498   5.90073   1.52222
H     1.67338   6.22273   1.55804
H    -2.54723   7.15907   0.16235
H    -1.96121   8.69537  -0.52104
H    -3.29041   8.71252   0.65526
