29
Generated by autodE on: 2022-10-26. E = -779.146640 Ha
C    -3.38124  -1.00318   3.06329
N    -2.11248  -0.56746   2.51132
C    -1.82168  -0.74324   1.21158
O    -2.58802  -1.29374   0.41539
C    -0.50761  -0.17550   0.76257
C    -0.00085   0.97486   1.41222
N     0.38857   1.90089   2.00718
N     0.17377  -0.68880  -0.28310
C    -0.03953  -2.09855  -0.66280
C     0.99163   0.10504  -1.02857
C     0.58934   1.50597  -1.30551
C    -0.88733   1.85360  -1.36898
O     1.41959   2.36147  -1.59111
C     2.27631  -0.39730  -1.56808
C     2.99790  -1.52450  -0.85846
O     2.80226   0.14348  -2.53563
H    -3.46459  -2.10201   3.05938
H    -3.45892  -0.64435   4.09615
H    -4.21813  -0.59622   2.47635
H    -1.42130  -0.15828   3.13303
H    -1.03449  -2.17808  -1.11447
H     0.02112  -2.74073   0.22339
H     0.70592  -2.38242  -1.40888
H    -1.04651   2.32165  -2.35269
H    -1.57095   1.00297  -1.25938
H    -1.12335   2.61013  -0.60492
H     2.56771  -1.79854   0.11227
H     4.03859  -1.19706  -0.71288
H     3.02662  -2.41345  -1.50839
