28
Generated by autodE on: 2022-10-24. E = -1460.553962 Ha
C     0.41048  -2.81796  -2.33527
O    -0.23074  -1.56494  -2.54571
C    -1.03894  -1.11208  -1.49631
O    -2.11660  -2.01654  -1.38298
C    -2.83907  -2.01162  -0.16259
C    -0.25309  -0.94192  -0.24539
C     0.39025  -0.32350   0.57522
C     0.97454   0.83311   1.21269
Cl   -0.09653   1.33694   2.60921
Cl    2.62828   0.47246   1.88142
C     1.06672   1.97378   0.18492
C    -0.22064   2.24415  -0.61827
C    -0.46717   1.41610  -1.91018
C    -1.53095   0.30121  -1.87813
H    -0.32187  -3.62843  -2.19833
H     1.01352  -3.01910  -3.23052
H     1.07512  -2.78215  -1.45423
H    -2.20676  -2.33041   0.68447
H    -3.26207  -1.01862   0.06739
H    -3.66356  -2.72789  -0.28071
H     1.37513   2.87484   0.73527
H     1.88692   1.71085  -0.50123
H    -1.09321   2.17698   0.05215
H    -0.16009   3.30216  -0.91398
H     0.48372   1.00003  -2.28156
H    -0.79637   2.12547  -2.68421
H    -2.34374   0.57308  -1.18781
H    -1.97746   0.17810  -2.87732
