37
Generated by autodE on: 2022-06-17. E = -750.710923 Ha
C     3.59198  -0.47665   1.21366
O     2.62526  -0.56055   0.15731
C     1.40269  -0.09142   0.42146
O     1.10643   0.37054   1.50790
C     0.40276  -0.31864  -0.73032
C     1.11259  -0.61813  -2.04913
C    -0.55363   0.88463  -0.86431
C     0.07496   2.23554  -0.72237
O     1.27246   2.44204  -0.65667
C    -1.82355   0.59687   0.01233
C    -3.06853   0.65187  -0.88276
C    -2.00799   1.57704   1.17837
C    -1.52690  -0.83178   0.56721
C    -2.74345  -1.72908   0.74839
N    -0.52816  -1.40086  -0.34887
C     0.09422  -2.62297   0.13311
H     3.25669  -1.05171   2.08879
H     3.75044   0.57170   1.50509
H     4.51800  -0.90327   0.81121
H     1.75323   0.22765  -2.33678
H     1.74328  -1.51421  -1.98503
H     0.35973  -0.77373  -2.83466
H    -0.89245   0.89662  -1.91573
H    -0.63912   3.09028  -0.74199
H    -3.02135  -0.09352  -1.69078
H    -3.14686   1.64744  -1.34825
H    -3.99027   0.48088  -0.30690
H    -2.80310   1.21266   1.84845
H    -2.30875   2.57514   0.82518
H    -1.08607   1.67902   1.76820
H    -1.07229  -0.70178   1.56889
H    -3.20009  -2.00383  -0.21386
H    -3.50153  -1.21596   1.35942
H    -2.47430  -2.65576   1.27684
H     0.53951  -2.51821   1.14552
H    -0.64807  -3.43203   0.18273
H     0.88510  -2.94766  -0.55668
