14
Generated by autodE on: 2022-06-17. E = -270.687339 Ha
C    -1.66238  -0.84872  -0.57954
C    -0.88586   0.37260  -0.18697
C    -1.67024   1.64927  -0.21201
C     0.42495   0.38320   0.17216
C     1.29828  -0.77545   0.23896
O     2.47923  -0.71429   0.57267
H    -2.07071  -0.71234  -1.59533
H    -2.53322  -0.95946   0.08872
H    -1.08501  -1.77998  -0.55749
H    -2.53733   1.57414   0.46695
H    -1.06419   2.51881   0.07719
H    -2.08463   1.81946  -1.22080
H     0.89899   1.33295   0.44205
H     0.85600  -1.76070  -0.03030
