23
Generated by autodE on: 2022-07-27. E = -479.959896 Ha
C    -3.19004  -0.94405   0.96323
C    -1.82949  -0.39691   0.69984
N    -1.08860  -0.68364  -0.35229
C    -1.63755  -1.60826  -1.36445
C     0.20635  -0.19684  -0.62938
C     0.83397  -0.55564  -1.94966
C     0.88650   0.58633   0.33200
O     0.48052   0.96277   1.45075
O     2.16236   0.94732  -0.06448
C     2.89807   1.74825   0.84952
H    -3.91326  -0.68908   0.16871
H    -3.56416  -0.52057   1.90507
H    -3.19487  -2.04394   1.06516
H    -1.37385   0.29369   1.40413
H    -2.58873  -2.02103  -1.02689
H    -1.79287  -1.07180  -2.30838
H    -0.93166  -2.42891  -1.53244
H     1.78102  -0.01700  -2.05341
H     1.06068  -1.63213  -2.05631
H     0.20799  -0.27601  -2.81421
H     3.06448   1.22696   1.80592
H     2.38784   2.70249   1.05760
H     3.86587   1.94870   0.37061
