34
Generated by autodE on: 2022-06-17. E = -745.374927 Ha
C     4.82231   0.70384   0.84251
C     3.71781   0.68317   0.06920
C     3.74303   1.13768  -1.36590
C     2.45052   0.20497   0.63161
C     1.28127   0.13140  -0.02748
C     0.00567  -0.35220   0.60615
C    -1.08553   0.68776   0.45211
C    -1.08116   1.99945   1.13957
C    -2.18594   2.96883   0.82915
O    -0.18480   2.24594   1.93748
N    -2.02011   0.36527  -0.37820
N    -1.76450  -0.89432  -0.83493
C    -2.63317  -1.51177  -1.62308
N    -3.35951  -2.08594  -2.33541
C    -0.66213  -1.59618  -0.07266
C    -1.30103  -2.50473   0.97567
C     0.22482  -2.37799  -1.02890
H     5.78353   1.05397   0.45585
H     4.78981   0.37028   1.88421
H     3.04069   1.97201  -1.52923
H     4.74865   1.46789  -1.66192
H     3.42983   0.32615  -2.04368
H     2.48079  -0.11131   1.68080
H     1.21032   0.44722  -1.07242
H     0.19038  -0.56494   1.66803
H    -2.05453   3.87944   1.42716
H    -2.17655   3.21900  -0.24341
H    -3.16508   2.51393   1.04440
H    -0.51147  -2.98504   1.57245
H    -1.94972  -1.92930   1.65347
H    -1.90056  -3.29227   0.49373
H     0.62080  -1.74178  -1.83138
H     1.07093  -2.80746  -0.47397
H    -0.34235  -3.20543  -1.48236
