23
Generated by autodE on: 2022-06-17. E = -351.521382 Ha
C     3.51306   0.88671  -1.08226
C     2.54030   0.39066  -0.28632
C     2.86361  -0.25380   1.03742
C     1.14234   0.47241  -0.70495
C     0.07786   0.01111  -0.00148
C    -1.29093   0.11675  -0.46408
C    -2.40537  -0.32052   0.17506
C    -2.40330  -1.00849   1.51068
C    -3.76507  -0.13761  -0.43785
H     3.27486   1.35389  -2.04286
H     4.56686   0.83856  -0.79402
H     3.94577  -0.24795   1.22959
H     2.36135   0.26996   1.86771
H     2.51220  -1.29861   1.06698
H     0.96023   0.95122  -1.67467
H     0.25166  -0.46801   0.96588
H    -1.42539   0.60429  -1.43728
H    -1.40198  -1.13220   1.94276
H    -3.02182  -0.44499   2.23149
H    -2.86685  -2.00733   1.42604
H    -3.71729   0.36957  -1.41266
H    -4.41975   0.45049   0.23027
H    -4.26698  -1.11232  -0.57526
