11
Generated by autodE on: 2022-06-17. E = -393.762486 Ha
C    -2.79525   0.60366   0.42378
C    -2.00025  -0.43415  -0.29630
O    -2.44181  -1.36680  -0.93791
C    -0.54175  -0.28771  -0.20343
N     0.62009  -0.21996  -0.15720
N     1.88504  -0.27678  -0.19846
C     2.57307   0.65580   0.45048
N     3.29736   1.40994   0.97527
H    -2.52262   0.60251   1.49198
H    -3.86603   0.39635   0.29973
H    -2.54697   1.60045   0.02298
