34
Generated by autodE on: 2022-06-17. E = -745.289186 Ha. Imaginary frequency = -180.1 cm-1
C     4.37523   1.79158   0.08260
C     3.49969   0.86112  -0.35564
C     3.51938   0.35885  -1.77583
C     2.49458   0.33028   0.56098
C     1.56572  -0.60577   0.24555
C     0.58270  -1.07527   1.19705
C    -1.35892   0.13857   0.45041
C    -1.95993   0.69091   1.68341
C    -3.13096   1.59851   1.41006
O    -1.54293   0.43838   2.79514
N    -1.33355   0.40285  -0.72443
N    -0.82925   0.22612  -1.89138
C    -1.39564   0.88525  -2.89639
N    -1.78777   1.39344  -3.87650
C    -0.39058  -2.02491   0.97154
C    -1.23582  -2.54935   2.09418
C    -0.58726  -2.72245  -0.34201
H     5.13594   2.21566  -0.57863
H     4.34851   2.15036   1.11594
H     2.54965   0.53627  -2.26963
H     4.30509   0.85475  -2.36268
H     3.69549  -0.72916  -1.80960
H     2.50262   0.73966   1.57769
H     1.54170  -1.02009  -0.76381
H     0.66577  -0.67519   2.21111
H    -3.52654   1.96882   2.36427
H    -2.81048   2.43995   0.77592
H    -3.90974   1.04754   0.85969
H    -1.05129  -3.63223   2.20572
H    -1.02676  -2.05258   3.04873
H    -2.30821  -2.44039   1.86138
H    -0.05629  -2.25373  -1.17766
H    -0.24237  -3.76718  -0.24863
H    -1.65953  -2.76780  -0.59050
