20
Generated by autodE on: 2022-06-21. E = -457.715322 Ha
C    -3.07699  -0.73802  -0.29867
N    -1.82812  -0.08213   0.05195
C    -1.85763   1.18121   0.65561
C    -0.74379   1.87266   0.94488
C     0.64442   1.36235   0.64681
C     0.57638  -0.00295  -0.01776
C     1.79799  -0.72063  -0.41515
N     2.97033  -0.08714  -0.15980
O     1.79096  -1.84488  -0.95690
C    -0.61562  -0.61471  -0.26803
H    -3.73337  -0.82070   0.58172
H    -2.86468  -1.74796  -0.67130
H    -3.61798  -0.18088  -1.08204
H    -2.85655   1.56156   0.87691
H    -0.84857   2.85007   1.42136
H     1.24292   1.31877   1.57997
H     1.18692   2.08799   0.00656
H     3.01636   0.82523   0.27555
H     3.83659  -0.54617  -0.41889
H    -0.63457  -1.59387  -0.74929
