25
Generated by autodE on: 2022-06-21. E = -611.140495 Ha
N     0.07251   2.81824  -1.55023
N     0.04726   1.81773  -1.00050
C     0.01811   0.67138  -0.37097
C     1.31896   0.09944   0.03133
C     2.49666   0.40528  -0.67995
C     3.72785  -0.11311  -0.27786
C     3.81206  -0.95601   0.83530
C     2.64935  -1.26510   1.54866
C     1.41613  -0.74096   1.15833
C    -1.31366   0.07847  -0.13154
C    -1.47402  -1.31912  -0.04984
C    -2.73617  -1.87742   0.15804
C    -3.86513  -1.06025   0.27657
C    -3.71793   0.32774   0.18509
C    -2.45756   0.89271  -0.01150
H     2.44814   1.05059  -1.56006
H     4.62723   0.13712  -0.84573
H     4.77560  -1.36664   1.14522
H     2.70117  -1.91409   2.42629
H     0.52436  -0.97434   1.74107
H    -0.60873  -1.97329  -0.16235
H    -2.83774  -2.96380   0.21759
H    -4.85141  -1.50139   0.43707
H    -4.59031   0.97928   0.27656
H    -2.35880   1.97931  -0.06561
