30
Generated by autodE on: 2022-10-13. E = -688.813030 Ha
C    -3.87673   0.51806  -1.48642
C    -2.45527   0.18905  -1.07511
O    -1.55165   0.24880  -1.92573
C    -2.22411  -0.09862   0.33250
C    -3.35772  -0.11905   1.31461
N    -0.94625  -0.09331   0.81175
C    -0.73423   0.32738   2.21114
C     0.12738  -0.51018   0.08124
C    -0.06474  -1.55998  -0.84657
N    -0.15577  -2.46918  -1.57420
C     1.47911   0.03570   0.24141
C     1.68641   1.38756   0.59093
C     2.97783   1.89758   0.71583
C     4.08874   1.08085   0.47768
C     3.89526  -0.25468   0.10704
C     2.60706  -0.77346  -0.01145
H    -4.32493   1.30143  -0.85671
H    -4.51687  -0.37577  -1.40373
H    -3.86611   0.84947  -2.53274
H    -3.52796   0.86208   1.79343
H    -4.29099  -0.40985   0.81993
H    -3.17632  -0.84750   2.11869
H    -1.28800  -0.35605   2.86734
H    -1.10113   1.34999   2.36363
H     0.32643   0.26068   2.46057
H     0.83125   2.04718   0.74569
H     3.11719   2.94683   0.98650
H     5.09908   1.48521   0.57122
H     4.75537  -0.89964  -0.08707
H     2.46729  -1.81878  -0.29470
