40
Generated by autodE on: 2022-10-07. E = -1143.851615 Ha. Imaginary frequency = -289.7 cm-1
C    -3.65009  -0.24028  -1.90407
C    -2.17416   0.04054  -1.76086
O    -1.41734  -0.19916  -2.69925
C    -1.69869   0.73853  -0.52816
C    -2.70545   1.70625   0.05937
C    -1.63213  -0.74754   1.04917
C    -2.61515  -1.79861   0.57793
O    -3.78793  -1.70248   1.04565
O    -2.22386  -2.67391  -0.23911
C    -0.28511  -1.05366   1.27103
C     0.50113  -0.36507   2.34408
O     0.06475   0.74022   2.79325
O     1.56719  -0.92777   2.72196
C     0.66548   0.21978  -0.53314
C     0.56804  -1.01711  -1.24541
N     0.67999  -2.05166  -1.77348
C     2.08996   0.63386  -0.33677
C     2.52057   1.34574   0.80087
C     3.86111   1.70315   0.94886
C     4.80316   1.35630  -0.02372
C     4.39211   0.63986  -1.15135
C     3.05292   0.28028  -1.30333
N    -0.36194   1.13701  -0.51490
C    -0.06987   2.52917  -0.14160
H    -3.78656  -0.97823  -2.70539
H    -4.11826  -0.59289  -0.97728
H    -4.15759   0.69340  -2.20084
H    -2.95203   2.53533  -0.62492
H    -2.34672   2.12676   1.00705
H    -3.63327   1.16290   0.27627
H    -2.06012  -0.01508   1.73487
H     0.10257  -2.01849   0.94240
H     1.80923   1.60662   1.58150
H     4.17179   2.25235   1.84087
H     5.85145   1.63895   0.09810
H     5.11526   0.36135  -1.92140
H     2.74848  -0.27624  -2.19105
H     0.92290   2.80239  -0.50975
H    -0.80122   3.18318  -0.62783
H    -0.11071   2.68087   0.94399
