49
Generated by autodE on: 2022-06-20. E = -1003.925162 Ha
C    -5.70428  -0.33251  -0.06983
C    -4.45728  -0.44441   0.43114
C    -4.20465  -0.97757   1.81674
C    -3.30641  -0.02749  -0.37762
C    -2.01982  -0.10054   0.00486
C    -0.86800   0.36326  -0.83445
C    -0.00416   1.50245  -0.15434
C     0.07612   2.76943  -0.99787
C    -0.54935   1.80867   1.24756
O    -0.08346   1.36204   2.27558
O    -1.62359   2.59743   1.20914
C    -2.30424   2.82908   2.45134
O     1.30710   0.97459   0.00126
C     1.24710  -0.44806  -0.04217
C     2.61855  -1.02893  -0.25669
C     3.62938  -0.30717  -0.90720
C     4.87803  -0.89040  -1.14034
C     5.13055  -2.20372  -0.73118
C     4.12850  -2.92779  -0.07688
C     2.88355  -2.34080   0.16393
C     0.19357  -0.75054  -1.14345
C     0.76590  -0.52732  -2.54821
C    -0.35353  -2.17286  -1.03674
H    -6.58217  -0.62980   0.51071
H    -5.87636   0.06108  -1.07638
H    -5.14402  -1.25561   2.31496
H    -3.68981  -0.22592   2.43874
H    -3.54988  -1.86430   1.78923
H    -3.53845   0.38343  -1.36746
H    -1.77279  -0.50936   0.98907
H    -1.26929   0.75491  -1.77840
H    -0.92059   3.20978  -1.12962
H     0.72955   3.51161  -0.51440
H     0.48866   2.52358  -1.98607
H    -3.15348   3.47975   2.21389
H    -2.66106   1.87655   2.86995
H    -1.63634   3.32076   3.17247
H     0.85050  -0.82924   0.91630
H     3.43466   0.71725  -1.22640
H     5.65833  -0.31545  -1.64526
H     6.10664  -2.65911  -0.91507
H     4.31953  -3.95118   0.25519
H     2.10756  -2.90292   0.68911
H     1.53895  -1.27362  -2.78471
H     1.21226   0.47145  -2.65687
H    -0.03672  -0.62216  -3.29598
H    -1.19923  -2.31598  -1.72657
H    -0.70077  -2.40928  -0.02073
H     0.42760  -2.90055  -1.30602
