23
Generated by autodE on: 2022-06-20. E = -351.521382 Ha
C    -3.64598   0.96501  -0.27499
C    -2.57591   0.21874   0.07701
C    -2.73675  -1.06837   0.84482
C    -1.22970   0.65573  -0.28760
C    -0.07881  -0.00060   0.00495
C     1.23292   0.47814  -0.38095
C     2.42708  -0.11431  -0.12655
C     3.71043   0.51124  -0.59526
C     2.59254  -1.40658   0.62179
H    -3.52551   1.89896  -0.83261
H    -4.66414   0.66188  -0.01544
H    -2.19483  -1.02913   1.80438
H    -2.31946  -1.92078   0.28332
H    -3.79528  -1.27759   1.05412
H    -1.16680   1.59770  -0.84571
H    -0.13418  -0.94012   0.56128
H     1.24636   1.42274  -0.93816
H     4.38109   0.71537   0.25879
H     3.54057   1.45329  -1.13702
H     4.26310  -0.17860  -1.25821
H     3.11518  -2.14807  -0.00808
H     1.64559  -1.84937   0.95626
H     3.23289  -1.25437   1.50863
