49
Generated by autodE on: 2022-06-20. E = -1003.842636 Ha. Imaginary frequency = -272.3 cm-1
C    -5.51376   0.89446   0.60113
C    -4.44981   0.06137   0.63171
C    -4.35832  -1.06018   1.63417
C    -3.34003   0.26058  -0.29350
C    -2.21124  -0.49319  -0.33627
C    -1.10322  -0.23141  -1.22111
C     0.14433   1.72347  -0.02363
C     0.03081   2.93880  -0.88396
C    -0.65353   1.52682   1.15382
O    -0.49977   0.67224   2.03138
O    -1.66612   2.43093   1.21142
C    -2.50762   2.38208   2.36476
O     1.28613   1.03367  -0.18958
C     1.47409  -0.23006   0.15037
C     2.77468  -0.79434  -0.12852
C     3.70410  -0.16453  -0.98575
C     4.92683  -0.77063  -1.26350
C     5.24741  -2.01355  -0.70064
C     4.33473  -2.64470   0.15207
C     3.11084  -2.04173   0.44006
C    -0.03991  -1.10507  -1.44280
C     0.80397  -0.88199  -2.67191
C    -0.04440  -2.51480  -0.90420
H    -6.34950   0.77946   1.29683
H    -5.56922   1.71377  -0.12223
H    -5.23932  -1.08181   2.29082
H    -3.45735  -0.95135   2.26072
H    -4.27516  -2.03813   1.13168
H    -3.43243   1.10546  -0.98527
H    -2.11229  -1.33383   0.35401
H    -1.21775   0.61348  -1.90422
H    -0.99821   3.05207  -1.25871
H     0.28486   3.87061  -0.34724
H     0.70157   2.84224  -1.74915
H    -3.34896   3.05421   2.15726
H    -2.88015   1.36606   2.54744
H    -1.96091   2.73114   3.25481
H     0.86167  -0.63942   0.94902
H     3.45659   0.80178  -1.42767
H     5.63866  -0.27272  -1.92628
H     6.20717  -2.48529  -0.92347
H     4.58154  -3.61012   0.60001
H     2.40297  -2.52828   1.11433
H     1.80659  -1.32326  -2.57347
H     0.91283   0.18908  -2.90114
H     0.32726  -1.36229  -3.54645
H    -0.67089  -3.16081  -1.54602
H    -0.43736  -2.58469   0.11952
H     0.96859  -2.94255  -0.91030
