37
Generated by autodE on: 2022-06-27. E = -879.933643 Ha
C    -0.97562   2.73644   2.61926
N    -1.15046   1.49074   1.90900
C    -0.78501   1.35983   0.60594
O    -0.16707   2.27940   0.01956
C    -1.13830   0.11243  -0.05636
C    -1.84852  -0.95589   0.54239
O    -2.34841  -0.97466   1.68132
O    -1.93203  -2.06176  -0.26279
C    -2.68056  -3.16551   0.24260
N    -0.70850  -0.00706  -1.41457
C    -1.74860  -0.02207  -2.45413
C     0.55298   0.14085  -1.73862
C     0.93315   0.42124  -3.15335
C     1.61307  -0.02845  -0.72512
C     1.59356  -1.14031   0.13768
C     2.62307  -1.32816   1.05720
C     3.66932  -0.40089   1.14353
C     3.69295   0.70456   0.28908
C     2.67681   0.88454  -0.65169
H     0.06607   3.08699   2.55425
H    -1.62035   3.54474   2.22851
H    -1.22341   2.58237   3.67787
H    -1.73153   0.74697   2.29198
H    -2.23575  -3.55693   1.17005
H    -3.72556  -2.88166   0.44072
H    -2.64845  -3.93723  -0.53694
H    -2.67663  -0.38624  -2.00588
H    -1.46088  -0.67660  -3.28614
H    -1.90537   1.00130  -2.82789
H     0.77594  -0.48687  -3.76073
H     1.99070   0.69557  -3.22806
H     0.30992   1.21799  -3.58576
H     0.78174  -1.86483   0.06761
H     2.60985  -2.20284   1.71121
H     4.46906  -0.54576   1.87350
H     4.50721   1.42979   0.35134
H     2.69369   1.75148  -1.31440
