26
Generated by autodE on: 2022-06-27. E = -689.460853 Ha
C    -3.16288   1.11459   0.53686
O    -1.79285   1.44133   0.79180
C    -0.77942   0.70113   0.34365
C    -0.80690  -0.43119  -0.41432
O    -1.96231  -0.98486  -0.88763
C    -2.38025  -2.19640  -0.25030
C     0.45401  -1.08320  -0.82898
O     0.41122  -2.08065  -1.54717
C     1.76383  -0.51848  -0.38297
C     3.00887  -1.23066  -0.80838
C     1.80319   0.60855   0.37044
C     3.09250   1.21578   0.83057
C     0.54217   1.28623   0.76682
O     0.54614   2.30750   1.44009
H    -3.74362   1.90720   1.02548
H    -3.37327   1.10811  -0.54042
H    -3.42549   0.14262   0.97814
H    -3.31675  -2.49936  -0.73721
H    -1.63129  -2.99295  -0.37222
H    -2.56502  -2.02683   0.82357
H     3.65949  -0.56037  -1.39432
H     3.59544  -1.54646   0.07027
H     2.77471  -2.11364  -1.41413
H     3.73124   1.47351  -0.03023
H     3.66392   0.49864   1.44278
H     2.91632   2.12192   1.42197
