63
Generated by autodE on: 2022-06-27. E = -1569.348134 Ha. Imaginary frequency = -334.2 cm-1
C    -3.01321   4.04866   0.07312
N    -2.12261   2.90682   0.12344
C    -0.86438   2.99865  -0.34384
O    -0.38226   4.05618  -0.75270
C    -0.05306   1.70214  -0.18486
C     0.00726   1.47962   1.33435
O    -0.32553   0.48779   1.93974
O     0.36852   2.61317   1.94192
C     0.31993   2.62467   3.37743
N     1.16457   1.62741  -0.92051
C     1.18962   2.34221  -2.21882
C     2.06507   0.65655  -0.70002
C     3.01038   0.20148  -1.76123
C     2.42023   0.24019   0.67946
C     2.87052   1.22440   1.57733
C     3.30207   0.86650   2.85676
C     3.28890  -0.47240   3.25383
C     2.88315  -1.46014   2.34835
C     2.47611  -1.10987   1.06319
C    -0.12352  -0.70952  -1.72623
O     0.28818  -0.33106  -2.98331
C     0.20060  -1.27860  -4.04460
C     0.28024  -1.95615  -1.17459
O     1.14653  -2.69079  -1.71217
C    -0.40309  -2.42366   0.08273
C     0.07503  -3.70605   0.69045
C    -1.42157  -1.72412   0.64267
C    -2.11389  -2.17853   1.89248
C    -1.86792  -0.45291   0.03601
O    -2.89994   0.11079   0.40369
C    -1.05728   0.16873  -1.08086
O    -1.81073   0.98150  -1.93183
C    -2.78012   0.30898  -2.73006
H    -2.54570   4.92438   0.54650
H    -3.27382   4.32176  -0.96400
H    -3.93571   3.80301   0.61437
H    -2.53580   1.97576   0.22837
H     0.71107   3.60164   3.68218
H    -0.71990   2.50427   3.71400
H     0.93866   1.81658   3.78924
H     1.88339   1.85277  -2.89945
H     0.19371   2.34229  -2.66655
H     1.51300   3.37245  -2.03981
H     3.50804  -0.71476  -1.42104
H     3.79629   0.95727  -1.93405
H     2.49261   0.00385  -2.70980
H     2.88498   2.27000   1.27093
H     3.64988   1.64147   3.54305
H     3.61248  -0.74969   4.25956
H     2.89313  -2.51223   2.64147
H     2.20405  -1.88451   0.35081
H     1.06893  -1.95204  -4.05933
H     0.16615  -0.69986  -4.97895
H    -0.71644  -1.88494  -3.96342
H     0.45319  -3.53458   1.71226
H    -0.75046  -4.43121   0.78082
H     0.87265  -4.15379   0.08674
H    -2.92702  -1.49455   2.16399
H    -1.40098  -2.22476   2.73253
H    -2.53288  -3.19102   1.77455
H    -3.25172   1.07738  -3.35773
H    -2.32131  -0.45302  -3.37841
H    -3.55449  -0.16742  -2.10745
