46
Generated by autodE on: 2022-06-05. E = -1259.586829 Ha
C     0.54297   4.06543   0.14764
C     0.79319   2.68881  -0.39413
O     1.33830   2.46768  -1.46952
N     0.42505   1.63286   0.41952
C     0.30806   0.26937  -0.01370
C    -0.89646  -0.16207   0.43296
N    -1.46859   0.88629   1.21654
C    -2.59466   0.90386   1.90463
N    -3.58546   0.95165   2.52264
N    -0.43246   1.84847   1.51583
C     0.22782   1.49931   2.78536
C    -1.70278  -1.42043   0.27033
F    -1.89208  -1.95305   1.55935
C    -3.05570  -1.06428  -0.22929
N    -4.10104  -0.81369  -0.66138
C    -1.12452  -2.53109  -0.60998
C    -1.07302  -2.26533  -2.11830
C    -0.50998  -0.92558  -2.59973
C     0.95777  -0.61336  -2.30525
C     1.37815  -0.42247  -0.82379
C     1.85347  -1.76968  -0.16521
C     1.86998  -1.86380   1.33587
O     2.28018  -2.65675  -0.87679
C     2.74409   0.34962  -0.70157
C     3.66345   0.33957  -1.88702
O     3.07853   0.81320   0.37120
H     1.02540   4.19237   1.12815
H     0.94744   4.79377  -0.56542
H    -0.53531   4.23284   0.28514
H     1.07274   2.18789   2.91192
H     0.58361   0.45666   2.80283
H    -0.49153   1.66493   3.59849
H    -1.77196  -3.40055  -0.42469
H    -0.14835  -2.80237  -0.20019
H    -0.48964  -3.08795  -2.56152
H    -2.09475  -2.36054  -2.51914
H    -0.61084  -0.91502  -3.69681
H    -1.14622  -0.09714  -2.24845
H     1.59614  -1.39895  -2.73075
H     1.19092   0.32109  -2.82751
H     2.52857  -2.68899   1.63580
H     2.20053  -0.91546   1.77942
H     0.85634  -2.06152   1.71509
H     3.81215  -0.69381  -2.23528
H     3.23635   0.90971  -2.72253
H     4.62488   0.77806  -1.59217
