31
Generated by autodE on: 2022-06-05. E = -809.133028 Ha
C    -2.38004   1.07753  -1.56174
C    -0.96751   0.94220  -2.03939
O    -0.66746   0.78792  -3.20400
C     0.16036   1.05090  -0.95829
C     0.45086   2.57114  -0.81554
C     1.25949   3.21868  -1.89824
O     0.01592   3.17906   0.14238
C    -0.26897   0.47119   0.30574
C    -0.38405  -0.32102   1.21423
C    -0.08599  -1.55735   1.93348
F     0.83165  -1.29744   2.95804
C    -1.27788  -2.14907   2.57877
N    -2.20530  -2.63350   3.07685
C     0.54912  -2.54832   0.93200
C     1.68279  -1.95266   0.07548
C     1.31090  -1.28448  -1.27865
C     1.42407   0.25008  -1.39517
H    -3.05251   1.23704  -2.41411
H    -2.46392   1.89957  -0.83415
H    -2.66770   0.15262  -1.03533
H     1.19253   4.31011  -1.80545
H     0.92768   2.89032  -2.89372
H     2.31294   2.91140  -1.79174
H    -0.25595  -2.94163   0.29205
H     0.92446  -3.38669   1.53927
H     2.35240  -2.79621  -0.14877
H     2.27998  -1.26221   0.69323
H     0.30625  -1.60959  -1.59712
H     2.00040  -1.68911  -2.03485
H     2.27869   0.60400  -0.79857
H     1.62281   0.51672  -2.44132
