15
Generated by autodE on: 2022-06-05. E = -450.377892 Ha
C    -2.71565  -0.69587  -0.47354
C    -1.67544   0.02638   0.32516
O    -1.91447   0.70647   1.30770
N    -0.37351  -0.24119  -0.14878
N     0.58206   0.57819   0.07556
C     0.43025   1.95560   0.60846
N     1.81655   0.27115  -0.19409
C     2.02675  -0.95816  -0.65621
N     2.37384  -1.99562  -1.06930
H    -2.66895  -0.36501  -1.52386
H    -3.71152  -0.49989  -0.05813
H    -2.50544  -1.77684  -0.46647
H     1.35034   2.49055   0.36105
H     0.28836   1.88851   1.69283
H    -0.44619   2.42169   0.14808
