46
Generated by autodE on: 2022-06-05. E = -1259.498584 Ha. Imaginary frequency = -258.4 cm-1
C     0.28254   3.90715  -0.24933
C     0.64515   2.45437  -0.41858
O     1.02690   1.98376  -1.46954
N     0.69818   1.70615   0.78806
C     0.37068  -0.29451   0.01584
C    -0.87063  -0.35821   0.03574
N    -1.49751   1.60476   0.94018
C    -2.59825   1.63258   1.68880
N    -3.62619   1.69441   2.24114
N    -0.33232   1.76440   1.55868
C    -0.16832   1.39781   2.96922
C    -2.11402  -1.04161  -0.33966
F    -3.01052  -1.05027   0.73437
C    -2.77667  -0.30242  -1.43881
N    -3.28758   0.26365  -2.31137
C    -1.83518  -2.50842  -0.72013
C    -1.07330  -2.75642  -2.02728
C     0.29208  -2.07718  -2.22728
C     1.31370  -2.28524  -1.08759
C     1.63788  -1.01693  -0.22874
C     2.23100  -1.47725   1.13040
C     3.44262  -2.36669   1.06846
O     1.70873  -1.17771   2.18462
C     2.72618  -0.08781  -0.85200
C     2.96454  -0.11724  -2.33024
O     3.40421   0.58166  -0.09504
H     1.10720   4.40857   0.28287
H     0.16415   4.35868  -1.24182
H    -0.63176   4.04212   0.34252
H    -0.85465   2.00188   3.57659
H    -0.40276   0.32925   3.08270
H     0.86900   1.59991   3.24966
H    -2.81823  -3.00003  -0.78021
H    -1.30396  -2.93674   0.14266
H    -1.71974  -2.47747  -2.87568
H    -0.94080  -3.84873  -2.09281
H     0.71667  -2.47816  -3.15980
H     0.13726  -1.00508  -2.41495
H     0.93596  -3.05400  -0.39619
H     2.25981  -2.67753  -1.48304
H     4.09009  -2.15329   0.20804
H     3.09083  -3.40751   0.96961
H     4.00603  -2.28287   2.00723
H     3.49967  -1.04950  -2.57791
H     2.02637  -0.11356  -2.89710
H     3.59056   0.73832  -2.61343
