64
Generated by autodE on: 2022-06-11. E = -1683.329527 Ha
C     0.45521  -0.28580   4.07054
N     0.57076   0.20184   2.71010
C     1.01094  -0.58186   1.72068
O     1.47535  -1.71097   1.89850
C     1.00733   0.08895   0.31800
C     2.31949   0.86979   0.21722
C     2.33030   2.18485  -0.26360
C     3.53496   2.88486  -0.37646
C     4.74057   2.27983  -0.01341
C     4.73329   0.96808   0.47083
C     3.53157   0.26798   0.59043
O    -0.07049   1.00288   0.21385
C    -1.27146   0.35195  -0.22219
C    -2.16642   1.38194  -0.89783
C    -3.45257   0.99920  -1.30971
C    -4.27808   1.90356  -1.97801
C    -3.83490   3.20718  -2.22995
C    -2.56162   3.59488  -1.80849
C    -1.72794   2.68526  -1.14795
C    -1.98173  -0.23691   1.01168
C    -2.67779   0.66659   1.83385
C    -3.24717   0.25304   3.03759
C    -3.13998  -1.08142   3.44292
C    -2.44586  -1.98537   2.63880
C    -1.86507  -1.56648   1.43634
C    -0.72715  -0.69714  -1.27665
C    -1.62354  -1.83028  -1.45537
N    -2.41903  -2.63554  -1.71228
C    -0.51033  -0.06340  -2.73879
C    -0.05824  -1.20559  -3.63445
C     1.21213  -1.43773  -3.28456
C     1.51098  -0.43176  -2.18670
O     0.68473   0.67519  -2.54549
C     0.78016  -0.93573  -0.87141
C     1.19397  -2.36898  -0.57728
O     0.44353  -3.29332  -0.34917
O     2.51277  -2.50243  -0.71156
C     3.06821  -3.78932  -0.40638
H    -0.06941  -1.25283   4.09476
H    -0.11350   0.44257   4.66037
H     1.44704  -0.42058   4.53039
H     0.09218   1.05718   2.44532
H     1.39886   2.66037  -0.56154
H     3.52690   3.91008  -0.75379
H     5.68135   2.82761  -0.10475
H     5.66871   0.48417   0.76113
H     3.53787  -0.75351   0.96873
H    -3.81196  -0.01165  -1.10865
H    -5.27466   1.59099  -2.29825
H    -4.48338   3.91732  -2.74828
H    -2.20853   4.61217  -1.99292
H    -0.73627   2.99417  -0.82357
H    -2.76573   1.71157   1.53359
H    -3.77953   0.97596   3.66002
H    -3.58838  -1.41024   4.38318
H    -2.34034  -3.02794   2.94684
H    -1.29987  -2.29708   0.86296
H    -1.33842   0.56082  -3.07913
H    -0.69421  -1.74524  -4.33444
H     1.89237  -2.21772  -3.62317
H     2.55020  -0.13569  -2.03611
H     2.85291  -4.05017   0.63963
H     4.14869  -3.69487  -0.56190
H     2.65023  -4.55579  -1.07396
