20
Generated by autodE on: 2022-06-11. E = -627.786341 Ha
C     3.48753   1.06073   0.96794
O     2.08105   1.10901   0.68270
C     1.55180   0.03763   0.08713
O     2.18279  -0.95471  -0.22590
C     0.10769   0.20735  -0.13754
C    -0.77035  -0.71867  -0.57592
C    -0.54828  -2.06146  -0.94714
N    -0.41803  -3.17374  -1.26783
C    -2.15835  -0.00802  -0.50388
C    -2.47704   0.16957   0.99554
C    -1.60300   1.08280   1.42637
C    -0.76087   1.44517   0.18379
O    -1.74744   1.31730  -0.85507
H     4.06139   0.95623   0.03586
H     3.71325   0.21499   1.63326
H     3.72801   2.00936   1.46069
H    -2.93899  -0.40436  -1.15972
H    -3.22725  -0.39859   1.54345
H    -1.43353   1.47386   2.42852
H    -0.25314   2.41333   0.16817
