64
Generated by autodE on: 2022-06-11. E = -1683.241402 Ha. Imaginary frequency = -68.7 cm-1
C     0.36372  -0.70997   4.39314
N     0.58639   0.04686   3.17636
C     1.21460  -0.48986   2.11254
O     1.79787  -1.58008   2.17305
C     1.24072   0.36274   0.87794
C     2.51362   0.91719   0.43367
C     2.57219   2.10849  -0.32571
C     3.79170   2.61423  -0.76879
C     4.98864   1.95096  -0.47476
C     4.94641   0.77532   0.28259
C     3.73243   0.26398   0.73716
O     0.15899   1.04757   0.49501
C    -1.14821   0.86793   0.49413
C    -1.87570   1.86138  -0.29213
C    -3.19293   1.58710  -0.72334
C    -3.86984   2.48565  -1.54483
C    -3.25572   3.67713  -1.94843
C    -1.95583   3.96436  -1.51663
C    -1.27166   3.06999  -0.69615
C    -1.85502  -0.02533   1.43329
C    -2.87759   0.53945   2.22416
C    -3.56072  -0.23065   3.16533
C    -3.24925  -1.58408   3.32389
C    -2.24507  -2.15710   2.53760
C    -1.55061  -1.38844   1.60587
C    -0.61164  -0.77334  -1.68550
C    -1.77107  -1.53345  -1.44752
N    -2.77099  -2.11721  -1.30170
C    -0.54112   0.30244  -2.81135
C    -0.03097  -0.43828  -4.06475
C     1.24668  -0.72729  -3.79539
C     1.49558  -0.15764  -2.38356
O     0.63996   0.99711  -2.40883
C     0.70567  -1.06340  -1.41221
C     1.24450  -2.25698  -0.76609
O     0.58140  -3.11795  -0.20657
O     2.57772  -2.32201  -0.89582
C     3.23626  -3.43945  -0.28698
H     0.09788  -1.74869   4.15095
H    -0.46193  -0.25053   4.95028
H     1.26067  -0.72463   5.03381
H     0.10998   0.93633   3.07159
H     1.65289   2.62907  -0.58041
H     3.80620   3.53705  -1.35373
H     5.94269   2.34727  -0.82926
H     5.87146   0.24615   0.52396
H     3.71919  -0.65426   1.32105
H    -3.66937   0.64792  -0.44148
H    -4.88252   2.25019  -1.87986
H    -3.78931   4.38010  -2.59199
H    -1.47335   4.89787  -1.81514
H    -0.26888   3.31148  -0.34636
H    -3.12075   1.59710   2.11476
H    -4.33791   0.23118   3.77828
H    -3.78595  -2.18951   4.05780
H    -1.99518  -3.21434   2.64905
H    -0.77374  -1.86665   1.01536
H    -1.40834   0.96126  -2.91067
H    -0.64170  -0.69942  -4.92795
H     1.97377  -1.29419  -4.37524
H     2.52210   0.08999  -2.10675
H     2.90311  -4.38051  -0.74843
H     4.30758  -3.28935  -0.46312
H     3.02566  -3.46309   0.79059
