39
Generated by autodE on: 2022-06-19. E = -1138.686096 Ha
C    -3.98076  -0.18442   0.46665
N    -3.59524   1.21201   0.35495
C    -2.42058   1.69983  -0.06279
O    -2.16181   2.89972  -0.17753
C    -1.34865   0.69167  -0.38801
N    -1.04752   0.38522  -1.59231
N     0.01850  -0.50753  -1.54629
C     0.59854  -0.92400  -2.66365
N     1.14270  -1.28768  -3.62970
C     0.26313  -1.04311  -0.18468
O    -0.41550  -2.22146   0.06618
C    -0.33784  -3.27045  -0.90612
C     1.77808  -1.14340   0.04385
O     2.31659  -2.22716   0.15682
C     2.53098   0.13351   0.07995
C     3.98048   0.08512  -0.28425
C     1.93907   1.27137   0.54501
C     2.70360   2.54736   0.70730
C     0.55372   1.24527   1.05680
O     0.11065   2.11468   1.78551
C    -0.41520   0.09192   0.66271
O    -1.13865  -0.35484   1.75751
C    -0.37659  -0.86883   2.85123
H    -4.30961  -0.41117   1.49132
H    -4.80413  -0.41548  -0.22646
H    -3.13281  -0.83615   0.22985
H    -4.29541   1.91620   0.58401
H     0.69350  -3.44952  -1.23798
H    -0.71869  -4.17117  -0.40824
H    -0.97925  -3.04395  -1.77241
H     4.20545   0.84124  -1.05318
H     4.60697   0.32833   0.59039
H     4.26759  -0.90564  -0.65600
H     3.23404   2.79979  -0.22362
H     3.47103   2.44063   1.49300
H     2.04030   3.37498   0.98539
H    -1.10239  -1.14552   3.62629
H     0.31110  -0.11053   3.25783
H     0.19261  -1.76333   2.55436
