13
Generated by autodE on: 2022-06-19. E = -449.162423 Ha
C    -3.00332  -0.29404  -0.85330
N    -2.63549  -0.19353   0.54754
C    -1.40210  -0.05627   1.04475
O    -1.09262   0.03854   2.22967
C    -0.31283  -0.01708   0.05335
N     0.68829   0.02186  -0.53826
N     1.66931   0.04709  -1.34604
C     2.88673   0.19260  -0.83891
N     4.00812   0.31550  -0.52594
H    -2.10416  -0.27677  -1.48387
H    -3.64769   0.54794  -1.14638
H    -3.53907  -1.23550  -1.04368
H    -3.37759  -0.21767   1.24562
