26
Generated by autodE on: 2022-06-19. E = -689.460855 Ha
C    -2.96282  -1.32415   0.18520
O    -2.18122  -0.55575  -0.73528
C    -0.90608  -0.26757  -0.34055
C    -0.50707   0.98035   0.03497
O    -1.22331   2.09934   0.13969
C    -2.63412   2.14060  -0.09815
C     0.93703   1.23223   0.37952
O     1.27872   2.36322   0.69687
C     1.90589   0.10733   0.33984
C     3.32529   0.39932   0.71771
C     1.49641  -1.13182  -0.02897
C     2.43785  -2.29310  -0.08523
C     0.07299  -1.37323  -0.41485
O    -0.29353  -2.48083  -0.80411
H    -3.94859  -1.46064  -0.27898
H    -2.50876  -2.30821   0.37365
H    -3.08024  -0.78482   1.13986
H    -2.92641   3.18270   0.08310
H    -2.86847   1.86270  -1.13381
H    -3.17080   1.48236   0.59984
H     4.00889   0.15006  -0.11051
H     3.45749   1.45614   0.97789
H     3.63397  -0.21832   1.57726
H     3.26427  -2.09058  -0.78672
H     2.90003  -2.46695   0.90059
H     1.92286  -3.20737  -0.40194
