77
Generated by autodE on: 2022-07-04. E = -1824.598759 Ha
C    -5.98358  -3.72458  -5.88024
O    -5.06195  -2.76303  -5.34035
C    -3.95648  -2.53068  -6.03555
O    -3.72750  -3.08595  -7.09385
C    -2.99908  -1.57370  -5.29007
C    -2.34861  -2.60160  -4.32986
C    -1.38510  -3.48147  -4.84024
C    -0.79712  -4.45075  -4.02462
C    -1.18513  -4.57346  -2.68862
C    -2.18030  -3.73028  -2.18398
C    -2.76510  -2.75953  -2.99981
C    -3.89267  -0.48010  -4.61354
C    -3.23369   0.80522  -4.12578
C    -2.15184   0.68741  -3.05611
C    -0.85422  -0.05744  -3.39623
C    -0.08330   0.14393  -4.74726
C     0.53680   1.56826  -4.75091
C     1.91478   1.79109  -4.92051
C     2.45952   3.07694  -4.87480
C     1.63954   4.18607  -4.65294
C     0.26717   3.98851  -4.49697
C    -0.27250   2.70083  -4.55176
C     1.03973  -0.93336  -4.69273
C     1.19233  -1.93226  -5.65953
C     2.18348  -2.91416  -5.54490
C     3.04462  -2.92553  -4.44890
C     2.90479  -1.93620  -3.46891
C     1.91993  -0.95653  -3.59289
C    -0.93469  -0.08911  -6.01852
C    -2.01403  -0.87720  -6.24654
C    -2.32032  -0.85152  -7.74722
C    -3.69139  -0.36879  -8.02038
N    -4.75990   0.02958  -8.23121
C    -1.96563  -2.18273  -8.50705
C    -2.70947  -2.46773  -9.77376
O    -0.97561  -2.79073  -8.15634
O    -1.40920   0.06116  -8.32535
C    -0.53449   0.61978  -7.32638
C     0.88267   0.41425  -7.84841
C    -0.99100   2.12545  -7.31014
C    -0.03971   3.18862  -7.76611
O    -2.15731   2.36335  -7.05582
H    -6.80785  -3.78330  -5.16080
H    -6.35273  -3.38893  -6.85938
H    -5.49392  -4.70304  -5.98439
H    -1.09096  -3.40627  -5.88528
H    -0.02963  -5.10813  -4.43917
H    -0.72334  -5.32683  -2.04621
H    -2.50354  -3.82334  -1.14456
H    -3.52790  -2.10835  -2.57622
H    -4.45679  -0.94793  -3.79861
H    -4.64586  -0.18861  -5.35930
H    -4.04683   1.42416  -3.71095
H    -2.85516   1.36499  -4.99152
H    -2.57496   0.17184  -2.17676
H    -1.91143   1.70175  -2.70499
H    -0.13660   0.19262  -2.60408
H    -1.01942  -1.13101  -3.29753
H     2.58513   0.95205  -5.09667
H     3.53519   3.20722  -5.01520
H     2.06470   5.19153  -4.61269
H    -0.39872   4.84038  -4.34129
H    -1.34823   2.59555  -4.46466
H     0.51862  -1.98060  -6.50910
H     2.26589  -3.68040  -6.31963
H     3.81502  -3.69443  -4.35395
H     3.56878  -1.92376  -2.60113
H     1.84845  -0.19093  -2.81980
H    -2.55757  -1.61606 -10.45858
H    -3.78834  -2.55482  -9.58969
H    -2.32294  -3.38509 -10.23544
H     1.06601  -0.65352  -8.00789
H     1.64034   0.80903  -7.16561
H     0.98677   0.92288  -8.81621
H     0.94003   3.10392  -7.27878
H    -0.47763   4.17764  -7.58525
H     0.12500   3.05862  -8.84945
