56
Generated by autodE on: 2022-07-04. E = -1233.606863 Ha
C     0.75187  -5.97961   1.22279
O     1.87523  -5.37589   1.88415
C     2.25267  -4.17175   1.45510
O     1.69546  -3.57204   0.56104
C     3.50232  -3.66690   2.20069
C     4.71311  -4.40741   1.61791
C     5.64133  -5.04369   2.45041
C     6.76198  -5.67918   1.90703
C     6.96407  -5.68868   0.52425
C     6.03803  -5.05745  -0.31285
C     4.92019  -4.41976   0.22997
C     3.31114  -3.85885   3.63884
C     3.02524  -3.58214   4.78274
C     2.66743  -2.77405   5.95424
C     3.93468  -2.53662   6.79666
C     4.32478  -1.26905   7.24484
C     5.46758  -1.11552   8.04008
C     6.23420  -2.22568   8.39829
C     5.85002  -3.49729   7.95624
C     4.71207  -3.64744   7.16357
C     1.58836  -3.42305   6.83174
C     1.24235  -2.83120   8.05629
C     0.23275  -3.37801   8.85084
C    -0.44453  -4.53022   8.43540
C    -0.10405  -5.12629   7.21866
C     0.90516  -4.57465   6.42188
C     2.07646  -1.47106   5.31531
C     2.90777  -0.80854   4.19527
C     2.62725  -1.23430   2.72537
C     3.66028  -2.12644   2.00706
H     0.59615  -6.94592   1.71561
H     0.97164  -6.12592   0.15549
H    -0.14088  -5.34748   1.33137
H     5.48689  -5.03911   3.53128
H     7.47870  -6.16995   2.56989
H     7.83846  -6.18718   0.09942
H     6.18543  -5.06118  -1.39542
H     4.20268  -3.93173  -0.43307
H     3.74332  -0.38552   6.98225
H     5.75660  -0.11731   8.37787
H     7.12616  -2.10359   9.01727
H     6.43998  -4.37535   8.23013
H     4.41561  -4.64327   6.82460
H     1.77197  -1.93805   8.39427
H    -0.02361  -2.90435   9.80167
H    -1.23121  -4.96128   9.05914
H    -0.62406  -6.02748   6.88445
H     1.16410  -5.04357   5.47018
H     1.08357  -1.73551   4.91990
H     1.89612  -0.75234   6.12793
H     3.98320  -0.91256   4.41291
H     2.70161   0.27109   4.26277
H     1.62609  -1.69061   2.65157
H     2.56825  -0.31086   2.12827
H     3.62139  -1.93458   0.92506
H     4.67483  -1.86314   2.34335
