32
Generated by autodE on: 2022-06-17. E = -748.063225 Ha
C    -0.08471   2.53166   1.20857
C     0.21194   1.89549  -0.11517
O     0.64933   2.51578  -1.06816
C    -0.04362   0.38180  -0.24760
C     1.29463  -0.34072  -0.07984
C     2.32848  -0.12372  -1.00473
C     3.55154  -0.78201  -0.86574
C     3.75939  -1.66428   0.20041
C     2.73540  -1.87907   1.12586
C     1.50935  -1.21924   0.98925
C    -0.75488   0.04295  -1.58075
C    -1.71251  -1.07015  -1.17101
C    -2.12267  -0.63685   0.24536
C    -2.58689  -1.76192   1.15918
C    -3.16680   0.42151   0.17592
N    -3.96110   1.26643   0.13346
O    -0.94351  -0.03837   0.79069
H     0.35919   1.94403   2.02650
H    -1.17501   2.52905   1.37086
H     0.29071   3.56300   1.22024
H     2.17542   0.56875  -1.83421
H     4.34577  -0.60600  -1.59510
H     4.71613  -2.18073   0.30805
H     2.88714  -2.56606   1.96197
H     0.71134  -1.39012   1.71077
H    -1.30928   0.92058  -1.94345
H    -0.04559  -0.25997  -2.35958
H    -1.18979  -2.03399  -1.08700
H    -2.57187  -1.18674  -1.84397
H    -3.50530  -2.21764   0.76175
H    -2.78740  -1.38015   2.17052
H    -1.79806  -2.52570   1.20917
