26
Generated by autodE on: 2022-06-17. E = -669.324476 Ha
C     1.36818   3.21696   0.31553
C     0.15239   2.33259   0.46765
O    -0.91896   2.77720   0.89610
C     0.27961   0.92803   0.10563
O     1.48870   0.61704  -0.33624
C     2.13462  -0.48264  -0.62405
C     3.50960  -0.31999  -1.17521
C     1.58520  -1.76079  -0.39600
N     1.22719  -2.85789  -0.20721
C    -0.83000  -0.02742   0.14860
C    -1.63867  -0.13236   1.29707
C    -2.73001  -1.00057   1.31325
C    -3.03683  -1.76875   0.18483
C    -2.24707  -1.66267  -0.96493
C    -1.15188  -0.80041  -0.98587
H     1.08365   4.25034   0.55136
H     2.16875   2.89230   0.99926
H     1.77415   3.16510  -0.70631
H     4.19112  -1.07377  -0.75296
H     3.51493  -0.44200  -2.27328
H     3.88375   0.68572  -0.93665
H    -1.39967   0.46406   2.17799
H    -3.34381  -1.08057   2.21339
H    -3.89244  -2.44785   0.20044
H    -2.48752  -2.25239  -1.85234
H    -0.55011  -0.71250  -1.89291
