35
Generated by autodE on: 2022-06-17. E = -762.615216 Ha
C     4.78002  -1.93949  -1.12805
C     3.96713  -1.02025  -0.56984
C     4.48491   0.05402   0.34847
C     2.53085  -1.06126  -0.86223
C     1.61358  -0.21129  -0.36660
C     0.16206  -0.33659  -0.67395
N    -0.46161   0.91858  -1.19067
C    -0.01228   2.11160  -0.78079
N     0.40443   3.16469  -0.49997
N    -1.85938   0.74982  -1.07098
N    -2.02076   0.00752   0.13315
C    -3.13999   0.16804   0.88994
C    -4.17939   1.12319   0.35627
O    -3.30092  -0.46272   1.93923
C    -0.77490  -0.71117   0.52868
C    -0.97672  -2.22310   0.58077
C    -0.25026  -0.16965   1.86203
H     4.38563  -2.71381  -1.79295
H     5.85643  -1.94167  -0.93511
H     4.25272   1.05726  -0.04600
H     5.57327  -0.02437   0.47879
H     4.00976  -0.01155   1.34141
H     2.19986  -1.85943  -1.53630
H     1.91126   0.59341   0.30959
H     0.01313  -1.07953  -1.46957
H    -2.13058   0.14348  -1.85149
H    -4.99896   1.18097   1.08321
H    -3.74483   2.12038   0.19465
H    -4.57277   0.77627  -0.61139
H    -0.00376  -2.71860   0.72261
H    -1.42100  -2.59047  -0.35620
H    -1.63364  -2.49837   1.41672
H    -0.98540  -0.34965   2.65529
H     0.68469  -0.68047   2.13168
H    -0.05622   0.91193   1.80812
