23
Generated by autodE on: 2022-06-17. E = -351.521380 Ha
C     3.48003  -0.78609  -1.25364
C     2.53427  -0.30318  -0.41805
C     2.90510   0.39124   0.86741
C     1.11951  -0.44859  -0.75496
C     0.07840  -0.00854  -0.00438
C    -1.30865  -0.17844  -0.38666
C    -2.40295   0.23472   0.30146
C    -3.78558  -0.01826  -0.22981
C    -2.35592   0.96299   1.61467
H     3.20743  -1.28975  -2.18625
H     4.54552  -0.69074  -1.02656
H     2.51542   1.42260   0.88853
H     2.47048  -0.12655   1.73861
H     3.99565   0.43138   0.99830
H     0.90271  -0.96053  -1.70033
H     0.28672   0.50272   0.93943
H    -1.47699  -0.69916  -1.33716
H    -3.77075  -0.55616  -1.18909
H    -4.38067  -0.60658   0.49168
H    -4.33084   0.93241  -0.37063
H    -1.33843   1.14223   1.98496
H    -2.86683   1.93829   1.52821
H    -2.90788   0.39672   2.38563
