12
Generated by autodE on: 2022-06-17. E = -411.054235 Ha
C    -2.77263   0.59810   0.28029
C    -1.68635  -0.36398  -0.05474
O    -1.84819  -1.51984  -0.40496
N    -0.37981   0.20453   0.07472
N     0.52036  -0.64746  -0.21594
N     1.79291  -0.47169  -0.20472
C     2.21788   0.74092   0.15111
N     2.73807   1.74603   0.44162
H    -2.64426   0.94429   1.31881
H    -3.75367   0.12553   0.15395
H    -2.68664   1.48673  -0.36566
H     0.20934  -1.60395  -0.49694
