35
Generated by autodE on: 2022-06-17. E = -762.549932 Ha. Imaginary frequency = -334.1 cm-1
C     4.93510  -0.85588  -1.55074
C     4.01434  -0.45530  -0.64378
C     4.35131   0.52036   0.45302
C     2.65508  -0.96259  -0.74101
C     1.64066  -0.66385   0.12085
C     0.30899  -1.15195  -0.04381
N    -0.65547   0.41578  -1.69208
C     0.16323   1.37073  -1.28567
N     0.99235   2.16639  -1.04942
N    -1.84410   0.35240  -1.11071
N    -1.89302   0.46285   0.20806
C    -3.14323   0.66480   0.78176
C    -4.22093   1.23885  -0.10481
O    -3.33508   0.42341   1.96812
C    -0.71088  -1.02473   0.95076
C    -1.73384  -2.13796   0.97039
C    -0.33564  -0.43023   2.28756
H     4.67465  -1.55979  -2.34671
H     5.96485  -0.48980  -1.51783
H     3.71480   1.41765   0.38048
H     5.40363   0.83187   0.39897
H     4.16959   0.08068   1.44742
H     2.44435  -1.62937  -1.58471
H     1.84226  -0.00181   0.96379
H     0.13542  -1.86246  -0.85456
H    -2.46623  -0.32616  -1.56696
H    -5.08857   1.50057   0.51324
H    -4.52411   0.48705  -0.85311
H    -3.85828   2.12165  -0.65085
H    -2.60142  -1.88626   1.59436
H    -2.07406  -2.38526  -0.04738
H    -1.26817  -3.04506   1.39298
H    -1.22242  -0.30635   2.91791
H     0.37016  -1.10247   2.80400
H     0.14813   0.54947   2.17482
