31
Generated by autodE on: 2022-07-27. E = -875.548177 Ha
C     2.67529  -0.24320  -2.99523
N     2.28857   0.07526  -1.63543
C     1.00576   0.00618  -1.24411
O     0.10666  -0.40052  -1.99984
C     0.66865   0.45659   0.13137
N    -0.54315   0.20582   0.64197
C    -1.55896  -0.60528   0.35534
C    -2.75763  -0.31255   1.17610
C    -3.99614  -1.14095   1.00689
O    -2.70203   0.60706   1.99642
C    -1.45750  -1.79283  -0.53537
C    -0.26804  -2.70365  -0.35789
O    -2.39685  -2.11590  -1.25026
C     1.41289   1.41973   0.96395
O     0.95204   1.89017   1.99464
O     2.62928   1.72280   0.50455
C     3.40863   2.65090   1.27646
H     2.28807   0.49688  -3.71540
H     2.28849  -1.23092  -3.28563
H     3.77014  -0.25608  -3.05698
H     2.95565   0.52198  -1.01314
H    -0.77284   0.81506   1.45367
H    -3.77060  -2.21206   1.12453
H    -4.39748  -1.01151  -0.00919
H    -4.74090  -0.82770   1.74934
H     0.57201  -2.24878   0.18223
H    -0.62176  -3.57087   0.22575
H     0.07025  -3.06621  -1.33820
H     3.58404   2.25308   2.28593
H     4.35670   2.76218   0.73885
H     2.89072   3.61771   1.34448
