30
Generated by autodE on: 2022-06-09. E = -746.809149 Ha
C    -2.42218   2.93333  -0.62206
N    -1.61818   1.73776  -0.46747
C    -1.96094   0.76168   0.39784
O    -3.02441   0.80259   1.03858
C    -1.05512  -0.40115   0.52417
C     0.25670  -0.62243   0.27906
C     1.36796   0.23228  -0.13244
C     2.36633  -0.29010  -0.97970
C     3.43261   0.50712  -1.39775
C     3.53452   1.83168  -0.96079
C     2.56347   2.35373  -0.09861
C     1.49089   1.56396   0.31419
C     0.41858  -2.16285   0.48610
C    -0.33610  -2.85761  -0.66461
C    -1.62783  -2.62846  -0.40782
C    -1.62899  -1.79334   0.88966
O    -0.49777  -2.36418   1.57122
H    -1.95179   3.58122  -1.37178
H    -2.50415   3.48929   0.32624
H    -3.44243   2.68702  -0.95639
H    -0.73778   1.67257  -0.96574
H     2.29509  -1.32322  -1.32663
H     4.19042   0.09017  -2.06506
H     4.37347   2.45293  -1.28264
H     2.64718   3.38156   0.26201
H     0.75074   1.97060   1.00467
H     1.42903  -2.51264   0.72146
H     0.13332  -3.35301  -1.51370
H    -2.51258  -2.88576  -0.98922
H    -2.53664  -1.79363   1.50056
