61
Generated by autodE on: 2022-06-09. E = -1622.317266 Ha. Imaginary frequency = -250.9 cm-1
C     3.98805  -2.41191  -1.76157
N     3.12877  -1.82191  -0.75465
C     2.40554  -0.71736  -1.00551
O     2.54441  -0.04210  -2.02350
C     1.51963  -0.28833   0.15940
C     2.29479   0.60972   1.11376
O     1.98208   0.74543   2.28278
O     3.40794   1.08594   0.57425
C     4.17679   1.99254   1.37575
N     0.75152  -1.12424   0.90236
C    -0.35396  -1.89795   0.68464
C    -1.19557  -1.92506   1.91042
C    -2.51777  -2.63212   1.95373
O    -0.79327  -1.31513   2.90736
C    -0.56800  -2.91669  -0.35715
C     0.59221  -3.53473  -1.09155
O    -1.70637  -3.34233  -0.56504
C    -1.32015   0.43686  -0.54845
C    -2.07578   0.73659   0.65358
C    -3.45679   0.43322   0.74077
C    -4.18829   0.74285   1.88322
C    -3.56938   1.36333   2.97577
C    -2.20529   1.65997   2.91372
C    -1.46389   1.34591   1.77620
C    -1.99881   0.08166  -1.90738
C    -1.30743  -1.10504  -2.55834
C    -0.10077  -0.65311  -2.91369
C    -0.07110   0.80285  -2.48387
O    -1.46550   1.17050  -2.70612
C    -0.04287   0.93849  -0.90758
C     0.32619   2.35736  -0.48254
O     1.22564   2.67455   0.29945
N    -0.44715   3.28895  -1.07160
C    -0.24716   4.70491  -0.83771
H     4.68195  -1.66084  -2.16574
H     3.39768  -2.82184  -2.59869
H     4.56621  -3.22376  -1.30400
H     2.94036  -2.34663   0.09266
H     4.50312   1.50402   2.30467
H     5.04353   2.27262   0.76666
H     3.57277   2.87952   1.61352
H     0.67972  -0.76234   1.87413
H    -2.38816  -3.71268   1.79351
H    -3.18236  -2.27070   1.15937
H    -2.96922  -2.44896   2.93746
H     1.38221  -3.84877  -0.39504
H     0.21461  -4.40669  -1.64074
H     1.02828  -2.83163  -1.81130
H    -3.96084  -0.05428  -0.09348
H    -5.25219   0.49820   1.92341
H    -4.14721   1.60742   3.87003
H    -1.70674   2.13114   3.76384
H    -0.39927   1.56785   1.76624
H    -3.09066   0.08716  -1.90495
H    -1.72874  -2.10131  -2.65137
H     0.72614  -1.18326  -3.37793
H     0.61106   1.47266  -3.01071
H    -1.17435   2.96705  -1.70731
H     0.77004   5.01812  -1.12174
H    -0.39409   4.95644   0.22493
H    -0.97202   5.26800  -1.43834
