51
Generated by autodE on: 2022-10-22. E = -1425.217650 Ha
C    -8.07169  -0.19367  -5.20893
N    -7.16904  -0.78746  -4.24306
C    -7.49630  -1.81919  -3.46268
O    -8.58407  -2.40021  -3.46322
C    -6.38755  -2.27285  -2.48383
C    -5.79030  -3.65110  -2.86017
O    -5.13269  -4.29486  -2.07446
O    -6.02019  -3.97361  -4.11899
C    -5.48658  -5.23055  -4.57909
O    -5.27923  -1.39113  -2.51980
C    -5.13574  -0.67839  -1.28657
C    -3.67608  -0.78345  -0.84830
C    -5.50335   0.73371  -1.57028
N    -5.77229   1.81493  -1.89194
C    -6.15275  -1.34330  -0.34875
C    -6.85464  -2.26092  -1.02836
C    -7.96694  -3.21623  -0.56265
C    -8.15885  -4.33837  -1.51459
N    -8.33969  -5.28348  -2.15958
C    -7.57390  -3.92325   0.67479
N    -7.27214  -4.52480   1.61788
C    -9.37009  -2.49857  -0.43286
C    -9.66553  -1.69856   0.83070
C    -8.70835  -0.56410   1.20521
C    -7.44031  -1.05955   1.91594
C    -6.13559  -0.89786   1.11333
C    -5.07884  -1.69921   1.79915
N    -4.28066  -2.32901   2.35644
O    -5.75744   0.46607   1.03801
C    -5.33731   1.12661   2.22456
H    -7.71647  -0.36453  -6.23719
H    -8.14811   0.89060  -5.04017
H    -9.06398  -0.64599  -5.09669
H    -6.23575  -0.40128  -4.13337
H    -4.39412  -5.24213  -4.46391
H    -5.76509  -5.30436  -5.63570
H    -5.93424  -6.05236  -4.00306
H    -3.44690  -1.83981  -0.65484
H    -3.03986  -0.41739  -1.66647
H    -3.48343  -0.18307   0.04869
H   -10.12938  -3.28790  -0.52398
H    -9.44911  -1.86889  -1.32669
H   -10.67044  -1.27767   0.66678
H    -9.76272  -2.38339   1.68999
H    -9.24100   0.11293   1.88840
H    -8.45306   0.04113   0.32008
H    -7.27711  -0.50742   2.85118
H    -7.55095  -2.10213   2.23106
H    -4.49094   0.60302   2.69977
H    -5.00966   2.12579   1.90955
H    -6.15674   1.23231   2.95315
