35
Generated by autodE on: 2022-06-18. E = -949.213255 Ha
C     3.60958   2.00561  -0.33817
N     2.48314   1.12572  -0.08906
C     2.55170  -0.17470  -0.36405
O     3.54460  -0.76451  -0.79847
C     1.24892  -0.98129  -0.12753
C     1.60276  -2.18678   0.64100
N     1.85484  -3.13779   1.25433
C     0.56012  -1.33664  -1.46866
C    -0.39829  -0.16365  -1.64938
C    -0.82462   0.14362  -0.19768
C    -1.02986   1.66566  -0.00809
O    -0.08734   2.37485   0.36516
N    -2.22908   2.14506  -0.33787
C    -2.52503   3.56476  -0.29258
C    -2.08218  -0.65459   0.19673
O    -3.12101  -0.51757  -0.46562
N    -1.95660  -1.44452   1.26466
C    -3.02666  -2.26708   1.79175
O     0.28722  -0.23580   0.61646
H     4.46474   1.75028   0.30739
H     3.30279   3.03745  -0.12837
H     3.94307   1.93724  -1.38548
H     1.58493   1.52532   0.21431
H     0.01021  -2.28063  -1.35501
H     1.29212  -1.44567  -2.27770
H     0.12431   0.70595  -2.07035
H    -1.26343  -0.39934  -2.27948
H    -2.94408   1.47129  -0.61289
H    -3.55028   3.72296  -0.64732
H    -1.83286   4.13110  -0.93464
H    -2.43802   3.95797   0.73241
H    -1.04560  -1.46385   1.71464
H    -3.93779  -2.08224   1.21091
H    -3.21776  -2.02124   2.84721
H    -2.76886  -3.33519   1.72357
