29
Generated by autodE on: 2022-07-27. E = -870.464863 Ha
C     4.13259   1.72289  -0.53965
N     2.82900   1.11900  -0.34457
C     2.68542  -0.21661  -0.25963
O     3.62942  -1.01484  -0.33266
C     1.31131  -0.73052  -0.05550
C     1.12356  -2.12556   0.04544
N     1.05230  -3.29029   0.02387
O     0.33193   0.13928  -0.17007
C    -0.95736   0.15134   0.03069
C    -1.64981   1.35364  -0.49917
O    -2.86917   1.51814  -0.31497
N    -0.90717   2.21985  -1.20964
C    -1.49924   3.40453  -1.79953
C    -1.57218  -0.85220   0.93186
O    -0.84204  -1.55470   1.64739
N    -2.91433  -0.90003   0.94941
C    -3.62012  -1.72236   1.90991
H     4.63983   1.28169  -1.41046
H     4.00140   2.79799  -0.71097
H     4.78164   1.57980   0.34010
H     2.02787   1.71876  -0.17896
H     0.06574   2.00759  -1.40052
H    -2.26181   3.13945  -2.54975
H    -1.98218   4.02759  -1.03144
H    -0.70867   3.98724  -2.28644
H    -3.39269  -0.14037   0.45887
H    -4.67869  -1.77262   1.62705
H    -3.54577  -1.31634   2.93343
H    -3.20237  -2.73920   1.91898
