29
Generated by autodE on: 2022-06-18. E = -870.461561 Ha
C    -2.04580  -3.89742   0.28085
N    -2.20074  -2.45516   0.29459
C    -1.14940  -1.63825   0.46881
O     0.01701  -2.03310   0.58167
C    -1.46154  -0.19491   0.62223
C    -2.63921   0.25992   1.24807
N    -3.64479   0.60540   1.73334
O    -0.50991   0.72258   0.53503
C     0.62465   0.70136  -0.10857
C     0.79204  -0.16372  -1.30830
O    -0.20572  -0.63794  -1.86941
N     2.04851  -0.31628  -1.75181
C     2.32803  -0.99878  -2.99805
C     1.54070   1.81916   0.23965
O     2.68098   1.88367  -0.25461
N     1.08865   2.71455   1.13221
C     1.91269   3.82540   1.56523
H    -2.97709  -4.35019  -0.07931
H    -1.22278  -4.18568  -0.38917
H    -1.82389  -4.29195   1.28606
H    -3.13328  -2.05909   0.22212
H     2.74759   0.29586  -1.32320
H     3.39896  -1.23181  -3.04609
H     2.06014  -0.38362  -3.87412
H     1.75282  -1.93373  -3.05133
H     0.15177   2.61143   1.50780
H     1.35437   4.41118   2.30466
H     2.84791   3.46790   2.02416
H     2.17917   4.47869   0.71922
