35
Generated by autodE on: 2022-06-18. E = -949.098535 Ha. Imaginary frequency = -212.1 cm-1
C     4.15217   1.82391  -0.70275
N     2.88953   1.23000  -0.30683
C     2.67790  -0.09315  -0.41624
O     3.52671  -0.89022  -0.83459
C     1.33349  -0.59951  -0.02943
C     1.22791  -1.99329   0.21875
N     1.26217  -3.15533   0.31042
C     0.17478  -0.98336  -2.29608
C    -1.12155  -0.88194  -1.90445
C    -0.89943   0.22915   0.34115
C    -1.61299   1.49999   0.02954
O    -2.84939   1.57291   0.14023
N    -0.87052   2.52283  -0.42359
C    -1.48364   3.76800  -0.84318
C    -1.48552  -0.83176   1.20815
O    -0.73557  -1.53387   1.89997
N    -2.82420  -0.93814   1.20981
C    -3.50091  -1.83980   2.11953
O     0.41074   0.30708   0.22886
H     4.39355   1.57025  -1.74600
H     4.98083   1.47245  -0.06676
H     4.07259   2.91357  -0.61074
H     2.18533   1.81249   0.13283
H     0.70313  -1.93795  -2.29185
H     0.69251  -0.13699  -2.75611
H    -1.71495   0.00681  -2.12722
H    -1.66553  -1.75251  -1.52953
H     0.11622   2.37774  -0.60132
H    -2.10536   3.62995  -1.74328
H    -0.69174   4.49264  -1.06664
H    -2.12471   4.17366  -0.04677
H    -3.32972  -0.17792   0.75004
H    -4.56426  -1.88215   1.85360
H    -3.41092  -1.51163   3.16932
H    -3.07429  -2.85062   2.04451
