35
Generated by autodE on: 2022-06-19. E = -1028.016118 Ha
C     1.98502  -2.11007  -1.97189
N     1.66008  -0.91814  -1.21546
C     1.77425  -0.83841   0.11376
O     2.25224  -1.72190   0.83499
C     1.19460   0.43002   0.77122
C     2.22776   1.07511   1.67577
O     0.79269   1.36906  -0.24522
C    -0.60987   1.41934  -0.41525
C    -1.10152   2.68513   0.16964
N    -1.45624   3.68446   0.63855
C    -0.93748   1.39718  -1.94806
C    -2.28122   1.89529  -2.36966
O    -0.06391   1.04793  -2.71224
C    -1.18226   0.21907   0.39753
C    -1.39693  -1.05013  -0.41627
O    -1.83047  -1.00721  -1.55715
C    -1.14879  -2.33727   0.25876
C    -0.58018  -2.42971   1.47670
C    -0.12633  -1.24338   2.23526
O     0.23973  -1.32972   3.39593
C    -0.13491   0.08845   1.51003
H     1.19196  -2.29751  -2.70990
H     2.94315  -2.00346  -2.50589
H     2.05625  -2.96634  -1.28971
H     1.25536  -0.12026  -1.71085
H     2.50195   0.37814   2.47874
H     1.80795   1.98895   2.11898
H     3.13103   1.33032   1.10265
H    -2.52783   1.49606  -3.36142
H    -2.23507   2.99646  -2.43087
H    -3.05732   1.63229  -1.63735
H    -2.17279   0.46630   0.80934
H    -1.45448  -3.22589  -0.29861
H    -0.42568  -3.39652   1.96189
H    -0.29544   0.86707   2.26731
