23
Generated by autodE on: 2022-06-19. E = -646.296729 Ha
C    -3.15812  -0.16224  -2.37798
N    -2.05482  -0.13942  -1.44027
C    -2.16905  -0.52558  -0.15777
O    -3.20677  -0.93843   0.36973
C    -0.91660  -0.43688   0.66805
C    -0.89871  -0.84545   2.08096
O     0.10279   0.01535   0.04225
C     1.39258   0.25754   0.36219
C     1.94551  -0.01076   1.63026
N     2.48436  -0.20477   2.64881
C     2.20565   0.82089  -0.69424
C     1.54605   1.08135  -2.02741
O     3.39858   1.07378  -0.49139
H    -4.05324  -0.53664  -1.86867
H    -3.36255   0.84842  -2.76439
H    -2.93045  -0.81993  -3.23126
H    -1.15026   0.18194  -1.77093
H    -0.17406  -1.66266   2.23674
H    -1.89881  -1.17991   2.37450
H    -0.58524  -0.00258   2.72003
H     0.68555   1.75927  -1.91345
H     2.28267   1.52948  -2.70609
H     1.16888   0.14189  -2.46252
