12
Generated by autodE on: 2022-06-19. E = -381.636080 Ha
O    -0.19828  -2.56009   0.72010
C    -0.10710  -1.38234   0.38958
C    -1.31051  -0.52421   0.26517
C    -1.21052   0.76612  -0.09927
C     0.10707   1.38227  -0.38984
O     0.19829   2.56012  -0.71997
C     1.31051   0.52422  -0.26514
C     1.21052  -0.76611   0.09930
H    -2.26964  -0.99952   0.48403
H    -2.08240   1.41722  -0.19700
H     2.26966   0.99958  -0.48384
H     2.08242  -1.41717   0.19719
