35
Generated by autodE on: 2022-06-19. E = -1027.941277 Ha. Imaginary frequency = -296.8 cm-1
C     2.89497  -2.60001  -0.79174
N     2.20007  -1.33229  -0.68204
C     2.39249  -0.52672   0.37518
O     3.25231  -0.70961   1.23925
C     1.42921   0.62738   0.50352
C     1.76128   1.73621   1.43369
O     0.70115   0.78265  -0.57580
C    -0.41650   1.49540  -0.75222
C    -0.59205   2.78732  -0.18696
N    -0.81161   3.85195   0.23372
C    -1.15759   1.10525  -1.97800
C    -2.34172   1.94524  -2.34908
O    -0.80350   0.11824  -2.61035
C    -1.43431   0.28261   1.14381
C    -2.30796  -0.46917   0.21750
O    -3.41362  -0.05017  -0.11964
C    -1.80579  -1.77335  -0.27591
C    -0.73767  -2.36764   0.28544
C    -0.01781  -1.73963   1.41862
O     0.79689  -2.37629   2.08258
C    -0.32134  -0.32109   1.71321
H     2.65766  -3.24917   0.06700
H     2.57970  -3.09716  -1.71649
H     3.98479  -2.45088  -0.81875
H     1.42154  -1.13692  -1.30571
H     2.31948   1.32538   2.28246
H     0.88205   2.27900   1.79491
H     2.41610   2.44666   0.89653
H    -2.89152   1.46152  -3.16566
H    -1.99988   2.94289  -2.67181
H    -3.00114   2.08836  -1.47979
H    -1.85123   1.20210   1.55660
H    -2.37906  -2.23975  -1.08015
H    -0.38271  -3.35113  -0.03146
H     0.12023   0.07866   2.62637
