37
Generated by autodE on: 2022-06-01. E = -1045.517150 Ha
C     3.79357   2.06208   1.82047
N     2.59112   1.58457   1.16102
C     2.35250   0.27905   0.98722
O     3.08805  -0.62845   1.38102
C     1.07889  -0.04381   0.23968
C     1.20979  -0.30995  -1.21936
O     0.49303  -1.03492  -1.87767
O     2.30578   0.28591  -1.69121
C     2.61055   0.07236  -3.07807
N    -0.04271  -0.25928   0.89653
C     0.02567  -0.37824   2.37336
C    -1.27532  -0.17940   0.25871
C    -1.43119   0.90436  -0.73257
O    -0.48655   1.66240  -1.04447
N    -2.65883   1.06964  -1.26356
C    -2.95467   2.16617  -2.15874
C    -2.34022  -1.07670   0.62942
O    -3.52238  -0.97392   0.28693
O    -1.91977  -2.12241   1.37560
C    -2.92474  -3.02796   1.83916
H     4.68860   1.87642   1.20468
H     3.69784   3.14049   1.99403
H     3.92856   1.55314   2.78589
H     1.94826   2.25002   0.74044
H     3.52519   0.64223  -3.27567
H     2.77538  -0.99681  -3.27299
H     1.78615   0.43952  -3.70584
H     0.55911   0.49653   2.76562
H     0.56520  -1.29277   2.64454
H    -0.98597  -0.38876   2.78111
H    -3.40338   0.48070  -0.88997
H    -3.91937   1.97747  -2.64724
H    -3.01509   3.13416  -1.63126
H    -2.17596   2.25449  -2.93055
H    -2.39851  -3.77976   2.43953
H    -3.43426  -3.51225   0.99322
H    -3.66911  -2.50540   2.45824
