36
Generated by autodE on: 2022-07-27. E = -788.389861 Ha
C     3.14127   0.73437  -2.39358
C     1.72299   0.24094  -2.57098
O     1.30223   0.02257  -3.74276
C     0.89088  -0.00434  -1.43930
N    -0.32216  -0.56626  -1.81886
C    -1.46900  -0.83454  -1.23171
C    -2.44551  -1.68443  -1.98249
C    -1.80834  -0.34651   0.10975
C    -1.49708   0.96987   0.50522
C    -1.80192   1.41361   1.78992
C    -2.41974   0.55275   2.70449
C    -2.75953  -0.74632   2.31353
C    -2.46921  -1.18991   1.02263
C     1.27382   0.12871  -0.02658
C     1.84030   1.31908   0.46903
C     2.16370   1.45537   1.82107
C     1.91452   0.41014   2.71542
C     1.35808  -0.78281   2.23788
C     1.04953  -0.92379   0.88618
H     3.17166   1.83237  -2.49604
H     3.57786   0.47414  -1.42093
H     3.75759   0.31291  -3.20158
H    -0.26281  -0.79890  -2.82305
H    -2.14139  -1.80551  -3.03264
H    -2.50552  -2.69164  -1.53394
H    -3.45685  -1.25211  -1.94160
H    -1.01792   1.64718  -0.20149
H    -1.55003   2.43542   2.08222
H    -2.64284   0.89701   3.71696
H    -3.24922  -1.42074   3.01970
H    -2.72516  -2.21008   0.73144
H     1.99749   2.15884  -0.21027
H     2.59486   2.39290   2.18098
H     2.15114   0.52248   3.77606
H     1.16424  -1.61005   2.92514
H     0.61557  -1.85996   0.53039
