36
Generated by autodE on: 2022-06-24. E = -788.388434 Ha
C     2.55293  -2.81561   1.04341
C     1.21464  -2.11414   1.02947
O     0.23023  -2.67187   1.58956
C     1.06012  -0.85098   0.37464
N    -0.25751  -0.43330   0.40724
C    -0.90356   0.68664   0.15689
C    -0.17691   1.93483  -0.21965
C    -2.36841   0.68191   0.29137
C    -3.05468  -0.29565   1.04789
C    -4.44355  -0.27403   1.14924
C    -5.18823   0.71775   0.49909
C    -4.52414   1.69311  -0.24954
C    -3.13237   1.68051  -0.34895
C     2.09647  -0.16655  -0.41612
C     3.35800   0.13266   0.13483
C     4.35270   0.73993  -0.63462
C     4.10742   1.07359  -1.97058
C     2.85908   0.78312  -2.53270
C     1.86873   0.16495  -1.76874
H     2.37601  -3.89980   1.09492
H     3.11966  -2.52821   1.94498
H     3.17458  -2.58084   0.16952
H    -0.81355  -1.21720   0.78151
H     0.81578   1.96112   0.24667
H    -0.74390   2.81509   0.10873
H    -0.02734   2.01701  -1.30970
H    -2.50918  -1.07006   1.59286
H    -4.94932  -1.03427   1.74886
H    -6.27735   0.73067   0.58068
H    -5.09243   2.47165  -0.76374
H    -2.63554   2.44506  -0.94730
H     3.55028  -0.09995   1.18387
H     5.32230   0.96492  -0.18325
H     4.88325   1.55537  -2.57022
H     2.65895   1.03040  -3.57827
H     0.90592  -0.07604  -2.22467
