20
Generated by autodE on: 2022-06-24. E = -457.715330 Ha
C     3.11344  -0.62424  -0.08179
N     1.81883  -0.03095   0.21078
C     1.75910   1.22544   0.82683
C     0.60350   1.87486   1.03834
C    -0.73999   1.32044   0.63340
C    -0.57346  -0.02232  -0.05932
C    -1.73345  -0.76685  -0.57594
N    -2.94527  -0.18186  -0.40119
O    -1.64231  -1.87372  -1.14514
C     0.65454  -0.59055  -0.22323
H     3.65070  -0.06037  -0.86343
H     2.97073  -1.65509  -0.42966
H     3.74072  -0.64468   0.82246
H     2.72473   1.63640   1.12682
H     0.63763   2.84874   1.53201
H    -1.26615   2.04272  -0.02365
H    -1.39747   1.22825   1.52245
H    -3.76844  -0.65909  -0.75197
H    -3.06114   0.71946   0.04409
H     0.74571  -1.55546  -0.72455
