52
Generated by autodE on: 2022-06-24. E = -1280.861941 Ha
C     0.50817  -3.35374  -1.06486
N    -0.42178  -2.23632  -0.97113
C    -1.59494  -2.42146  -0.30229
C    -2.55518  -1.46504  -0.16643
C    -3.72714  -1.77534   0.66026
N    -4.68494  -0.81841   0.75808
O    -3.86219  -2.86090   1.26159
C    -2.35927  -0.17289  -0.91595
C    -0.89230   0.25133  -0.95628
C     0.14225  -0.89822  -1.08120
C     1.12115  -0.53632   0.08896
C     2.48909  -1.15303   0.10073
C     3.30804  -1.01140  -1.02889
C     4.59294  -1.55729  -1.03890
C     5.07142  -2.24939   0.07845
C     4.25959  -2.38607   1.20765
C     2.97400  -1.83807   1.22151
O     0.38298  -0.91012   1.32117
C    -0.55807   0.04244   1.49820
O    -1.33305   0.02286   2.42234
C    -0.38127   1.02182   0.31524
C    -0.95847   2.40367   0.44055
C    -2.13029   2.64664   1.17409
C    -2.69283   3.92679   1.20359
C    -2.09786   4.97716   0.50095
C    -0.93794   4.73839  -0.24341
C    -0.37662   3.46084  -0.27810
N     1.07914   0.91301   0.09169
C     1.92830   1.55525   1.09606
H     1.05542  -3.52794  -0.12356
H    -0.04160  -4.26852  -1.32482
H     1.24314  -3.15478  -1.85649
H    -1.74959  -3.41546   0.12361
H    -5.49359  -1.00352   1.34085
H    -4.61867   0.07537   0.28958
H    -2.70718  -0.29028  -1.95758
H    -2.94395   0.65707  -0.49455
H    -0.73980   0.95358  -1.78361
H     0.69683  -0.82684  -2.02431
H     2.94367  -0.47226  -1.90519
H     5.22232  -1.44251  -1.92429
H     6.07576  -2.67913   0.06867
H     4.62702  -2.92183   2.08591
H     2.34266  -1.94763   2.10267
H    -2.60474   1.83427   1.72159
H    -3.60433   4.09991   1.78058
H    -2.53766   5.97689   0.52810
H    -0.46801   5.55025  -0.80349
H     0.52058   3.28042  -0.87134
H     1.73571   1.21098   2.12879
H     2.98073   1.35548   0.85659
H     1.77214   2.64008   1.06152
