20
Generated by autodE on: 2022-06-24. E = -457.715326 Ha
C    -3.06187  -0.80744  -0.27306
N    -1.77999  -0.13462  -0.40656
C    -1.71908   1.11308  -1.03991
C    -0.58517   1.82577  -1.13017
C     0.73102   1.35720  -0.56056
C     0.56260   0.01213   0.12711
C     1.69727  -0.66002   0.78003
N     2.88573  -0.00714   0.72974
O     1.60565  -1.76426   1.35432
C    -0.64246  -0.62395   0.16158
H    -2.90523  -1.80751   0.15029
H    -3.54689  -0.91611  -1.25557
H    -3.74379  -0.24810   0.38959
H    -2.66484   1.46281  -1.45761
H    -0.61660   2.78873  -1.64503
H     1.49418   1.29845  -1.36401
H     1.13113   2.11496   0.14385
H     3.69355  -0.43483   1.16900
H     2.99977   0.88903   0.27376
H    -0.73486  -1.58801   0.66434
