32
Generated by autodE on: 2022-06-24. E = -823.117389 Ha
C     0.02000  -1.79451   0.68233
N    -0.05293  -0.41862   0.19167
C    -1.17963   0.23618  -0.07410
C    -2.56441  -0.11843   0.18148
C    -2.95102  -0.91677   1.27777
C    -4.29825  -1.21032   1.48569
C    -5.27498  -0.71054   0.61852
C    -4.89925   0.09805  -0.46037
C    -3.55687   0.39654  -0.67973
O    -0.89253   1.37497  -0.70640
C     0.52541   1.48506  -0.87594
O     0.98399   2.47238  -1.44506
C     1.04659   0.32791  -0.26851
C     2.45535   0.00086  -0.09474
C     2.95005  -0.73008   1.00832
C     4.31495  -0.99068   1.13976
C     5.22624  -0.51773   0.19056
C     4.75295   0.22478  -0.89714
C     3.38988   0.47796  -1.04285
H     0.88368  -2.28194   0.21798
H     0.12801  -1.82100   1.77397
H    -0.88917  -2.32975   0.38872
H    -2.20926  -1.28165   1.98713
H    -4.58719  -1.82551   2.34051
H    -6.32848  -0.94435   0.78717
H    -5.65782   0.49554  -1.13817
H    -3.26363   1.02160  -1.52418
H     2.27142  -1.07697   1.78697
H     4.66942  -1.55864   2.00354
H     6.29408  -0.72015   0.30017
H     5.45212   0.60452  -1.64643
H     3.03285   1.05174  -1.89849
