43
Generated by autodE on: 2022-06-20. E = -1066.847327 Ha. Imaginary frequency = -371.1 cm-1
C     3.14326   1.76914   2.55278
N     1.90831   1.95025   3.28717
C     0.64244   1.80088   2.80812
O    -0.34783   1.91774   3.55096
N     0.59517   1.53298   1.44378
O    -0.73887   1.44722   1.10620
C    -0.92791   0.83416  -0.04300
C    -2.30781   0.63225  -0.45885
C    -2.58521   0.41839  -1.82120
C    -3.88947   0.14619  -2.23511
C    -4.92460   0.09071  -1.29640
C    -4.65464   0.31352   0.06158
C    -3.35486   0.57997   0.48305
C    -0.15675  -1.11751   0.46406
C     1.05525  -0.68522   1.00731
C     2.28803  -0.57351   0.15336
C     2.10829  -1.23553  -1.19758
C     3.21956  -1.32134  -2.15568
N     4.39602  -0.76917  -1.76271
O     3.12003  -1.86308  -3.27584
C     0.91407  -1.78123  -1.56659
N    -0.20469  -1.75492  -0.79865
C    -1.35804  -2.58215  -1.12229
H     3.05504   2.19116   1.54313
H     3.43612   0.70990   2.45815
H     3.95020   2.29759   3.07899
H     1.96000   2.04124   4.29629
H    -0.15855   0.96854  -0.81065
H    -1.77073   0.46011  -2.54737
H    -4.09986  -0.02303  -3.29343
H    -5.94536  -0.12463  -1.62060
H    -5.46518   0.27158   0.79275
H    -3.13093   0.74134   1.53931
H    -0.96553  -1.40440   1.13741
H     1.17211  -0.70634   2.08752
H     3.14268  -1.01125   0.70233
H     2.54454   0.49561   0.03375
H     5.18191  -0.79824  -2.40276
H     4.51186  -0.29574  -0.87597
H     0.81726  -2.28385  -2.53063
H    -1.26068  -3.59526  -0.69224
H    -1.45532  -2.66972  -2.21256
H    -2.27350  -2.12498  -0.72813
