12
Generated by autodE on: 2022-10-21. E = -469.079195 Ha
C     2.92500   0.55593  -0.09238
O     1.66469  -0.10515   0.11569
C     0.56941   0.57866  -0.20648
O     0.54603   1.70481  -0.65873
C    -0.65870  -0.19656   0.04967
C    -1.93792   0.33834  -0.22449
N    -2.97967   0.80336  -0.45870
N    -0.56501  -1.42088   0.54651
N    -0.45014  -2.45670   0.96857
H     3.05235   0.80688  -1.15491
H     3.69209  -0.15891   0.22531
H     2.97945   1.47093   0.51413
