31
Generated by autodE on: 2022-10-21. E = -618.602863 Ha
C    -1.48413   3.23483  -0.17794
O    -0.57187   2.13948  -0.15515
C    -1.02759   0.92698   0.22899
C    -0.26820  -0.19865   0.36697
C     1.15931  -0.39320   0.13082
C     1.68925  -1.69660  -0.00944
C     3.05043  -1.90591  -0.23862
C     3.92965  -0.82252  -0.33102
C     3.42453   0.47593  -0.19122
C     2.06513   0.69072   0.03329
C    -1.27648  -1.33158   0.57393
C    -1.98965  -1.55866  -0.79614
C    -2.81959  -0.25222  -0.96848
C    -2.49319   0.54359   0.34042
C    -2.38597  -0.60616   1.35748
H    -0.90194   4.11340  -0.48468
H    -1.91567   3.41735   0.81912
H    -2.29500   3.06857  -0.90431
H     1.02359  -2.55866   0.05530
H     3.42656  -2.92666  -0.34645
H     4.99509  -0.98661  -0.50870
H     4.09920   1.33367  -0.25715
H     1.69156   1.70814   0.14133
H    -0.87154  -2.24311   1.03040
H    -1.26381  -1.71693  -1.60662
H    -2.64405  -2.44292  -0.75249
H    -2.54595   0.31977  -1.86663
H    -3.89871  -0.46192  -1.01894
H    -3.19349   1.35543   0.56499
H    -2.06302  -0.27087   2.35393
H    -3.31543  -1.19082   1.44198
