43
Generated by autodE on: 2022-10-21. E = -1087.664724 Ha. Imaginary frequency = -382.8 cm-1
C     2.00321   2.72020   1.74877
O     1.77494   1.97370   0.54503
C     2.43237   0.81739   0.41808
O     3.23424   0.39257   1.23292
C     2.03305   0.08358  -0.78425
C     2.86640  -0.94126  -1.27791
N     3.51697  -1.83280  -1.65907
N     1.22019   0.75805  -1.69735
N     0.06532   0.83213  -1.84897
C    -0.93948  -0.32208  -0.52761
C    -1.79886   0.74417   0.03567
C    -1.39995   1.53890   1.13018
C    -2.21784   2.56458   1.60656
C    -3.45337   2.82610   1.00613
C    -3.86127   2.04887  -0.08193
C    -3.04406   1.02437  -0.56334
C    -1.49158  -1.35575  -1.52237
C    -2.33967  -2.36468  -0.69667
C    -1.26340  -3.12743   0.13017
C     0.07910  -2.46956  -0.34642
C    -0.24908  -2.21025  -1.82355
C     0.01485  -1.07353   0.23294
O     0.29041  -0.80493   1.50708
C     1.14404  -1.70452   2.22992
H     1.34242   3.59228   1.68928
H     3.05342   3.03992   1.80802
H     1.75298   2.11317   2.63016
H    -0.44355   1.35453   1.60988
H    -1.88324   3.16510   2.45614
H    -4.09187   3.62916   1.38170
H    -4.82308   2.24113  -0.56370
H    -3.38151   0.43572  -1.41678
H    -2.00448  -0.91855  -2.38709
H    -2.87995  -3.04329  -1.37260
H    -3.08150  -1.85849  -0.06411
H    -1.24067  -4.19952  -0.11226
H    -1.40681  -3.02904   1.21486
H     0.98263  -3.04371  -0.11665
H    -0.49954  -3.13908  -2.35517
H     0.54002  -1.69332  -2.38127
H     0.62259  -2.65299   2.42437
H     2.07138  -1.88933   1.67273
H     1.37426  -1.20546   3.17824
