14
Generated by autodE on: 2022-06-23. E = -270.683216 Ha
C    -1.32478  -0.86305   0.14936
C    -0.71539   0.47594  -0.15334
C    -1.67304   1.58057  -0.47062
C     0.62599   0.70800  -0.14711
C     1.65837  -0.27495   0.14472
O     1.48606  -1.45633   0.43641
H    -1.06458  -1.18967   1.16910
H    -0.92984  -1.63897  -0.52485
H    -2.41934  -0.83075   0.05665
H    -2.37865   1.71732   0.36777
H    -1.16806   2.53446  -0.67616
H    -2.29038   1.30250  -1.34302
H     0.98949   1.71327  -0.37934
H     2.69896   0.12714   0.08637
