32
Generated by autodE on: 2022-06-23. E = -859.450311 Ha
C     4.49266  -0.58450   0.37321
O     3.18804  -0.12293   0.73369
C     2.23940  -0.19111  -0.22149
O     2.50096  -0.60870  -1.34763
C     0.92143   0.21835   0.22304
C     0.49179   0.52444   1.56208
C     1.48495   0.78538   2.66994
O    -0.72580   0.61027   1.84061
N    -0.07713   0.37203  -0.76748
C     0.25569   1.20049  -1.94374
C    -1.31171   0.00143  -0.54503
C    -1.64644  -1.10920   0.43907
C    -2.99033  -1.05320   1.10073
O    -0.88755  -2.05379   0.54461
C    -2.46278   0.49259  -1.39211
C    -2.83950   1.93862  -1.30862
O    -3.10021  -0.34189  -2.01004
H     5.11283  -0.46065   1.26915
H     4.90470   0.01088  -0.45485
H     4.46641  -1.64361   0.07725
H     1.95678  -0.16199   2.97278
H     0.93399   1.19840   3.52504
H     2.28788   1.46658   2.36345
H     0.37726   2.24428  -1.62564
H     1.19374   0.82823  -2.36393
H    -0.52972   1.11045  -2.70189
H    -2.94805  -1.60123   2.05112
H    -3.71886  -1.55470   0.44205
H    -3.32610  -0.02083   1.26355
H    -1.96872   2.60655  -1.27780
H    -3.37838   2.06879  -0.35297
H    -3.51182   2.20023  -2.13669
