46
Generated by autodE on: 2022-06-23. E = -1130.090811 Ha. Imaginary frequency = -286.6 cm-1
C     4.58081   1.18387  -0.14751
O     3.28673   0.67360  -0.51653
C     2.40073   0.52859   0.46198
O     2.60951   0.80274   1.62178
C     1.06486  -0.01584  -0.05905
C     1.29150  -1.47136  -0.40464
C     0.34174  -2.37917  -1.11699
O     2.37185  -1.91868  -0.02773
C    -0.16322  -0.57503   1.71721
C     0.38426  -1.86080   2.14440
O    -0.10760  -2.97304   1.98394
C    -1.53488  -0.36292   1.36801
C    -2.46250  -1.49975   1.04945
C    -2.19080   0.75642   2.13913
C    -1.15954   0.67309  -0.72899
C    -1.54033  -0.20868  -1.88241
C    -0.64980  -0.13915  -3.10404
O    -2.60300  -0.81265  -1.92965
C    -2.11012   1.79614  -0.49087
C    -3.54397   1.65379  -0.94489
O    -1.77213   2.81645   0.10535
N     0.21507   0.92988  -0.54748
C     0.74415   2.31456  -0.62656
H     4.48074   2.18357   0.29829
H     5.06294   0.50337   0.56822
H     5.15814   1.23455  -1.07708
H     0.51858  -3.39642  -0.74443
H    -0.70882  -2.12135  -0.99196
H     0.58342  -2.36122  -2.19081
H     0.32328   0.25764   2.22919
H     1.35765  -1.75975   2.67797
H    -3.40569  -1.12766   0.62989
H    -2.70133  -2.01285   1.99916
H    -2.03921  -2.25298   0.38113
H    -2.33850   0.39104   3.17128
H    -1.56370   1.65464   2.19244
H    -3.18078   1.02268   1.74712
H    -0.95923   0.76938  -3.65091
H     0.41813  -0.03072  -2.88350
H    -0.83072  -1.00954  -3.74794
H    -3.60469   1.59234  -2.04235
H    -4.01295   0.74531  -0.54575
H    -4.09041   2.53977  -0.59809
H     0.84398   2.77318   0.36526
H     0.07794   2.92133  -1.23989
H     1.72001   2.27619  -1.12063
