48
Generated by autodE on: 2022-06-07. E = -1480.375112 Ha
C    -1.81094   3.73736  -0.52042
N    -1.24686   2.40857  -0.65228
C    -1.97121   1.30834  -0.45816
O    -3.17429   1.32557  -0.16520
C    -1.16931  -0.02685  -0.55458
C    -1.97017  -1.24555  -1.12234
O    -1.35747  -2.30440  -1.27854
N    -3.25097  -1.06697  -1.44906
C    -4.06315  -2.16533  -1.93587
C    -0.63222  -0.38704   0.82260
C    -1.54767  -0.50286   2.01054
F    -1.04796  -1.27896   2.97910
F    -1.80597   0.70359   2.54777
F    -2.72981  -1.03683   1.64973
C     0.69380  -0.56696   0.80728
C     1.60389  -0.82815   1.97662
C     2.62277  -1.91727   1.83814
O     1.49583  -0.13570   2.97261
C     1.22928  -0.38129  -0.61563
C     1.61661  -1.71245  -1.15942
N     1.91354  -2.73520  -1.61803
C     2.41834   0.58810  -0.67784
C     2.34668   1.76772   0.07863
C     3.38137   2.70137   0.02254
C     4.49594   2.46639  -0.79093
C     4.56976   1.29277  -1.54384
C     3.53484   0.35293  -1.48582
N     0.06412   0.17243  -1.30527
C     0.03058   0.12809  -2.75457
H    -2.62974   3.89183  -1.24013
H    -1.02339   4.47579  -0.71105
H    -2.21262   3.89417   0.49287
H    -0.26608   2.27240  -0.88688
H    -3.68789  -0.20721  -1.11165
H    -5.02421  -1.77024  -2.28729
H    -3.55933  -2.67487  -2.76952
H    -4.25260  -2.91060  -1.14501
H     2.14132  -2.85291   1.51424
H     3.35715  -1.64339   1.06214
H     3.14185  -2.05823   2.79478
H     1.48127   1.95324   0.71732
H     3.31902   3.61432   0.61884
H     5.30625   3.19768  -0.83439
H     5.43587   1.10192  -2.18132
H     3.60363  -0.56233  -2.07590
H    -0.07695  -0.89619  -3.15515
H    -0.81318   0.73286  -3.11539
H     0.95787   0.56555  -3.15279
