12
Generated by autodE on: 2022-06-07. E = -567.273812 Ha
C    -3.40529   0.46922  -0.19834
C    -2.40020  -0.59506  -0.50717
O    -2.67026  -1.68811  -0.97269
C    -1.00255  -0.26163  -0.21557
C     0.15226   0.01185   0.02277
C     1.55412   0.33639   0.30845
F     1.71802   1.64838   0.53178
F     1.98636  -0.31842   1.39562
F     2.34902  -0.00183  -0.71691
H    -3.34921   0.72778   0.87214
H    -3.15886   1.38343  -0.76343
H    -4.41312   0.11877  -0.45615
