48
Generated by autodE on: 2022-06-07. E = -1480.266543 Ha. Imaginary frequency = -126.5 cm-1
C    -3.26496   3.11905   0.39884
N    -2.13636   2.25495   0.11274
C    -2.23538   1.25748  -0.78919
O    -3.25036   1.09747  -1.47913
C    -1.10084   0.28027  -0.89520
C    -1.46552  -0.98965  -1.65001
O    -0.92753  -1.22333  -2.73791
N    -2.39269  -1.79093  -1.11484
C    -2.86008  -2.97005  -1.81652
C    -0.79911  -0.25776   1.51501
C    -2.11455  -0.21559   2.18500
F    -2.31439   0.96606   2.79676
F    -3.16741  -0.39063   1.35205
F    -2.20761  -1.17167   3.12152
C     0.41807  -0.29064   1.72480
C     1.79983  -0.28790   2.14043
C     2.47676  -1.61972   2.29058
O     2.35625   0.77631   2.40432
C     1.24492  -0.14983  -0.90047
C     1.01213  -1.55178  -0.79342
N     0.93522  -2.71014  -0.69063
C     2.66660   0.21947  -1.08528
C     3.25926   1.31816  -0.43182
C     4.61686   1.58881  -0.60297
C     5.40526   0.77212  -1.41821
C     4.82975  -0.32987  -2.05963
C     3.47549  -0.60950  -1.89006
N     0.19454   0.70203  -1.01599
C     0.48166   2.13619  -1.22922
H    -3.62357   3.61181  -0.51689
H    -2.94807   3.88719   1.11490
H    -4.10336   2.54870   0.83277
H    -1.35485   2.26913   0.75839
H    -2.82943  -1.52813  -0.23981
H    -3.37761  -2.70536  -2.75311
H    -2.01497  -3.62915  -2.06730
H    -3.55714  -3.51394  -1.16767
H     2.06918  -2.12014   3.18553
H     2.27315  -2.27691   1.43343
H     3.55679  -1.46747   2.41806
H     2.67147   1.93977   0.23895
H     5.06215   2.44076  -0.08469
H     6.46786   0.98918  -1.54828
H     5.43802  -0.97482  -2.69738
H     3.03352  -1.47026  -2.39522
H     1.37892   2.21874  -1.84973
H    -0.35714   2.58708  -1.76371
H     0.64791   2.65239  -0.27639
