23
Generated by autodE on: 2022-06-17. E = -351.521382 Ha
C    -3.69510   0.70391  -0.38412
C    -2.56525  -0.03499  -0.32629
C    -2.59979  -1.53292  -0.49066
C    -1.27738   0.61755  -0.09900
C    -0.07649  -0.00833  -0.01540
C     1.17251   0.68943   0.21271
C     2.40850   0.13896   0.31744
C     3.61644   1.00068   0.55403
C     2.69360  -1.33253   0.21415
H    -4.67173   0.24144  -0.55207
H    -3.66709   1.79136  -0.26411
H    -3.62574  -1.89190  -0.65383
H    -1.98039  -1.85336  -1.34486
H    -2.19292  -2.03998   0.40002
H    -1.30652   1.70825   0.01179
H    -0.03857  -1.09566  -0.12391
H     1.09516   1.77922   0.30901
H     4.13227   0.70492   1.48532
H     4.35502   0.87058  -0.25741
H     3.35929   2.06790   0.62255
H     1.79881  -1.94502   0.04421
H     3.18584  -1.69125   1.13540
H     3.40506  -1.52734  -0.60778
