12
Generated by autodE on: 2022-06-17. E = -411.042440 Ha
C    -2.48110  -0.25149  -0.31430
C    -1.08953  -0.55737   0.12898
O    -0.69274  -0.52115   1.28068
N    -0.25696  -1.03118  -0.91290
N     0.98579  -0.76479  -0.93559
N     1.73231   0.14982  -0.39472
C     1.18940   1.13461   0.30333
N     0.87040   2.09825   0.88618
H    -3.10935  -0.02175   0.55488
H    -2.89492  -1.10186  -0.87730
H    -2.45554   0.61249  -0.99935
H     1.53471  -1.38061  -1.55540
