35
Generated by autodE on: 2022-06-17. E = -762.551868 Ha. Imaginary frequency = -405.4 cm-1
C     3.25279   1.83817   2.82812
C     2.73993   0.98800   1.90991
C     3.60545   0.31132   0.88002
C     1.30567   0.74114   1.89114
C     0.67092  -0.13815   1.06338
C    -0.75006  -0.27988   0.99318
N    -1.24117   1.02363  -0.88078
C    -0.29720   2.03511  -0.74394
C    -0.67343   3.10528   0.23143
O     0.78620   2.02062  -1.33236
N    -0.85075   0.07093  -1.70959
N    -1.49463  -1.07881  -1.46106
C    -1.18103  -2.09899  -2.25142
N    -0.99538  -3.04941  -2.90788
C    -1.39234  -1.45545   0.46534
C    -0.61947  -2.75693   0.48579
C    -2.86464  -1.58683   0.75823
H     4.32261   2.06093   2.86413
H     2.60887   2.33104   3.56254
H     4.65940   0.60037   0.99352
H     3.27313   0.58119  -0.13618
H     3.53608  -0.78618   0.95729
H     0.70489   1.30831   2.61039
H     1.26862  -0.74675   0.37942
H    -1.36117   0.39448   1.59669
H    -1.75171   3.12087   0.43173
H    -0.13783   2.91004   1.17709
H    -0.33254   4.08242  -0.13953
H     0.16182   0.02767  -1.92136
H     0.38687  -2.66321   0.05590
H    -1.16051  -3.54596  -0.05505
H    -0.50970  -3.08743   1.53186
H    -3.00459  -1.90982   1.80394
H    -3.38300  -0.62792   0.61822
H    -3.32913  -2.34190   0.10744
