51
Generated by autodE on: 2022-06-06. E = -1701.540768 Ha
C     3.65157   3.14065  -0.59026
N     2.95452   1.87294  -0.54608
C     1.79973   1.73948   0.11111
O     1.30515   2.64948   0.77986
C     1.05741   0.35907  -0.01310
C     2.10682  -0.80356  -0.14362
O     3.04341  -0.74872  -0.96096
N     1.92515  -1.84316   0.66769
C     2.71351  -3.05031   0.52848
N     0.19678   0.14596   1.12063
C     0.67328   0.33254   2.47971
C    -1.19255  -0.12539   0.86356
C    -1.59486  -1.55143   1.35428
C    -3.03873  -1.97456   1.34981
O    -0.72848  -2.32850   1.71767
C    -2.02523   0.90943   1.69371
C    -1.76842   2.38400   1.52730
O    -2.77850   0.52159   2.56897
C    -1.37161  -0.02399  -0.70496
C    -2.53147   0.89475  -1.09011
C    -1.52049  -1.43217  -1.43590
C    -1.80452  -1.15318  -2.90500
C    -0.64017  -0.74011  -3.41488
C     0.34718  -0.81075  -2.26396
O    -0.16504  -1.89675  -1.48248
C     0.07059   0.35657  -1.25577
Cl    0.09422   1.93040  -2.15731
H     4.58994   3.01255  -1.14382
H     3.88318   3.50540   0.42276
H     3.04345   3.91006  -1.09459
H     3.30222   1.04933  -1.04112
H     1.02832  -1.89814   1.16214
H     2.52769  -3.70106   1.39237
H     3.78484  -2.80924   0.48446
H     2.44645  -3.59770  -0.39208
H     0.21693  -0.41207   3.14844
H     1.76019   0.17996   2.51696
H     0.46743   1.33878   2.88126
H    -3.10440  -3.00512   0.97100
H    -3.68409  -1.30622   0.76767
H    -3.39322  -1.97390   2.39111
H    -2.72863   2.87877   1.31660
H    -1.41341   2.76640   2.49780
H    -1.02807   2.62830   0.76266
H    -2.66472   0.92488  -2.17693
H    -2.38165   1.92467  -0.75868
H    -3.46221   0.51351  -0.64309
H    -2.17232  -2.16155  -0.95347
H    -2.78308  -1.20769  -3.37997
H    -0.41442  -0.37106  -4.41398
H     1.40023  -0.94324  -2.51541
