35
Generated by autodE on: 2022-06-06. E = -894.996693 Ha
C    -3.38033   2.72449   1.47464
N    -2.36810   1.72120   1.20105
C    -1.64469   1.73934   0.07665
O    -1.73949   2.57202  -0.82303
C    -0.64343   0.60274  -0.01126
C    -1.12545  -0.78784   0.35159
O    -1.49144  -1.01446   1.50907
N    -1.20914  -1.63159  -0.67957
C    -1.61892  -3.01361  -0.50343
N     0.57639   0.78169  -0.38978
C     1.07946   2.07023  -0.90830
C     1.53542  -0.30208  -0.26538
C     2.06489  -0.58117   1.03828
C     1.60829   0.27781   2.20791
O     2.88494  -1.49603   1.24622
C     1.81636  -0.94700  -1.50644
C     2.88410  -2.00827  -1.58739
O     1.13919  -0.66345  -2.52481
H    -3.63325   2.69218   2.54100
H    -2.99947   3.72373   1.22159
H    -4.29266   2.54214   0.88389
H    -2.25593   0.92251   1.82656
H    -0.73829  -1.36607  -1.54739
H    -2.44533  -3.06612   0.21731
H    -1.95343  -3.41303  -1.46867
H    -0.78637  -3.63133  -0.12824
H     2.12495   1.92027  -1.19130
H     1.01413   2.83193  -0.11866
H     0.47465   2.38317  -1.76463
H     0.61731  -0.05355   2.55787
H     1.53136   1.34478   1.95226
H     2.32526   0.14894   3.02944
H     2.58493  -2.89204  -1.00254
H     3.83723  -1.66087  -1.16414
H     3.01288  -2.29450  -2.64045
