35
Generated by autodE on: 2022-07-27. E = -894.998997 Ha
C     3.51531   2.77268  -1.08523
N     2.31479   1.96084  -1.01257
C     1.90345   1.37567   0.11670
O     2.44724   1.44560   1.21759
C     0.65466   0.52833  -0.03396
C     0.62726  -0.45608  -1.17823
O     0.39057   0.03411  -2.28512
N     0.95719  -1.71230  -0.91420
C     0.97887  -2.72945  -1.95105
N    -0.36543   0.69108   0.70363
C    -0.44548   1.76097   1.71278
C    -1.40164  -0.31493   0.72834
C    -1.01095  -1.53043   1.36888
C    -2.04377  -2.60493   1.61576
O     0.17865  -1.74197   1.70975
C    -2.65771   0.00128   0.10347
C    -2.72378   1.28639  -0.70520
O    -3.64828  -0.75149   0.13528
H     3.76350   3.14360  -0.08338
H     4.36801   2.18804  -1.46665
H     3.34299   3.62452  -1.75627
H     1.79301   1.76266  -1.86538
H     0.96368  -1.97879   0.07670
H     1.47018  -3.62635  -1.55585
H    -0.04101  -2.99248  -2.27462
H     1.53719  -2.36500  -2.82443
H     0.03806   1.39796   2.63036
H     0.04926   2.67231   1.35832
H    -1.50281   1.95528   1.91709
H    -1.57214  -3.40963   2.19610
H    -2.40717  -3.00775   0.65771
H    -2.92389  -2.21482   2.14509
H    -3.73800   1.40139  -1.10912
H    -2.47432   2.17286  -0.10218
H    -2.00098   1.24408  -1.53665
