51
Generated by autodE on: 2022-06-06. E = -1701.434668 Ha. Imaginary frequency = -167.4 cm-1
C     3.70113   2.91817  -0.77636
N     3.09642   1.66931  -0.36906
C     2.02005   1.65816   0.43136
O     1.57469   2.68860   0.95249
C     1.29090   0.32939   0.58105
C     1.96326  -0.91141   0.03914
O     2.75918  -0.86199  -0.92155
N     1.79739  -2.02854   0.74336
C     2.33261  -3.28417   0.26286
N     0.31508   0.33852   1.53018
C     0.65436   0.99150   2.83801
C    -1.00664  -0.17148   1.49598
C    -1.30705  -1.58586   1.67906
C    -2.69631  -2.12719   1.45560
O    -0.44346  -2.38838   2.08107
C    -2.05736   0.82053   1.80215
C    -1.78399   2.30600   1.65146
O    -3.20734   0.48001   2.09954
C    -1.44872   0.06702  -1.20001
C    -2.74248   0.78599  -1.10224
C    -1.39991  -1.37234  -1.75362
C    -1.64684  -1.19067  -3.27271
C    -0.52568  -0.62654  -3.73237
C     0.39468  -0.49308  -2.49614
O     0.00589  -1.65002  -1.74567
C    -0.23157   0.58955  -1.59509
Cl    0.01041   2.27174  -1.95956
H     4.59547   2.70236  -1.37372
H     3.99116   3.51785   0.09957
H     3.00529   3.52285  -1.38246
H     3.31582   0.78679  -0.84306
H     1.04466  -2.07193   1.44902
H     2.04389  -4.07828   0.96262
H     3.43053  -3.25130   0.19247
H     1.93565  -3.52435  -0.73782
H     0.47217   0.21609   3.59569
H     1.71030   1.26435   2.86659
H     0.04743   1.86965   3.06387
H    -2.59367  -3.18696   1.18065
H    -3.26456  -1.58330   0.69431
H    -3.26426  -2.06860   2.39689
H    -2.64465   2.74263   1.12656
H    -1.76268   2.77008   2.65010
H    -0.85674   2.54598   1.12035
H    -3.20867   0.72982  -2.10501
H    -2.61086   1.84574  -0.86107
H    -3.44677   0.32866  -0.39624
H    -1.98079  -2.13824  -1.23253
H    -2.57324  -1.43442  -3.79119
H    -0.27575  -0.28559  -4.73616
H     1.47148  -0.44278  -2.65789
