35
Generated by autodE on: 2022-06-17. E = -857.890765 Ha
C    -0.34064   3.25058  -0.08151
N     0.05858   1.90522  -0.46860
C     1.20147   1.39368   0.06351
C     1.73342   0.18724  -0.28049
C     2.94429  -0.25661   0.41725
N     3.53979  -1.38805  -0.03996
O     3.43047   0.35777   1.38990
C     1.08907  -0.56426  -1.41764
C    -0.43141  -0.38515  -1.44069
C    -0.96633   1.00827  -0.98915
C    -2.05861   0.57985   0.06298
C    -3.11577   1.56929   0.45986
N    -2.56690  -0.69755  -0.43194
C    -1.24511  -1.35672  -0.51815
C    -1.24172  -2.81084  -0.91090
C    -0.78367  -1.07320   0.90675
O    -0.08771  -1.72191   1.64797
O    -1.30685   0.13306   1.23798
H     0.51130   3.93681  -0.18864
H    -0.69622   3.30456   0.96170
H    -1.14481   3.59943  -0.74328
H     1.71447   2.02782   0.79104
H     3.21204  -1.89017  -0.85456
H     4.38043  -1.71202   0.42491
H     1.30677  -1.64132  -1.37648
H     1.49791  -0.20751  -2.38035
H    -0.79925  -0.58928  -2.45592
H    -1.48589   1.51607  -1.81333
H    -3.83942   1.08590   1.13135
H    -2.68499   2.43872   0.96974
H    -3.64322   1.91767  -0.44013
H    -2.95514  -0.57030  -1.37047
H    -1.89206  -3.39403  -0.24290
H    -1.59757  -2.92831  -1.94544
H    -0.22430  -3.22246  -0.84458
