20
Generated by autodE on: 2022-06-17. E = -457.715317 Ha
C     3.05949   0.85587  -0.11968
N     1.82499   0.08852  -0.10680
C     1.86803  -1.29026  -0.34904
C     0.76407  -2.05276  -0.39417
C    -0.62661  -1.50368  -0.19052
C    -0.57509  -0.00324   0.04776
C    -1.80264   0.77891   0.26390
N    -2.96602   0.08143   0.23123
O    -1.80840   2.01018   0.46791
C     0.60797   0.67342   0.07240
H     3.53380   0.83318  -1.11494
H     2.84194   1.89951   0.13968
H     3.77709   0.45509   0.61379
H     2.86932  -1.69909  -0.49665
H     0.87883  -3.12216  -0.58554
H    -1.26190  -1.74447  -1.06750
H    -1.12047  -2.02243   0.65683
H    -3.00186  -0.91506   0.05857
H    -3.83681   0.58246   0.36872
H     0.61543   1.75054   0.24663
