44
Generated by autodE on: 2022-06-01. E = -1315.411130 Ha
C    -2.29056  -3.70835   0.84616
O    -1.64919  -2.42419   0.80469
C    -2.42340  -1.37094   0.52112
O    -3.61908  -1.44091   0.31447
C    -1.62985  -0.13001   0.49011
C    -1.91032   1.03419  -0.12244
C    -3.09592   1.41272  -0.95353
F    -4.21078   1.55130  -0.21736
F    -3.36012   0.50752  -1.91302
F    -2.87882   2.58831  -1.57475
C    -0.63713   1.86783  -0.01824
O    -0.10771   1.41389   1.23211
C    -0.18437   0.01501   0.95269
C     0.68069  -0.10239  -0.35107
C     2.16402   0.00550  -0.08182
C     2.90836  -1.06702   0.61324
C     4.25538  -0.87887   0.97659
C     4.96331  -1.88695   1.62738
C     4.33944  -3.10509   1.92624
C     3.00349  -3.30464   1.56932
C     2.29090  -2.29371   0.91882
N     2.71913   1.08774  -0.48560
C     1.74951   1.95021  -1.18862
C     1.81073   3.35565  -0.58858
C     2.15236   1.99918  -2.66732
C     0.35824   1.24709  -1.04853
H    -3.06432  -3.72215   1.62706
H    -1.50072  -4.43141   1.07796
H    -2.74708  -3.93862  -0.12710
H    -0.75918   2.95336  -0.04028
H     0.13186  -0.58704   1.80870
H     0.42076  -1.00377  -0.92022
H     4.73599   0.07128   0.74097
H     6.00752  -1.72482   1.90510
H     4.89503  -3.89510   2.43700
H     2.50978  -4.25191   1.79808
H     1.24828  -2.46925   0.65036
H     1.58418   3.34177   0.48694
H     2.82059   3.77333  -0.71814
H     1.09585   4.02569  -1.08953
H     2.10722   0.99466  -3.11638
H     1.47069   2.65931  -3.22598
H     3.17825   2.38227  -2.77822
H    -0.12727   1.13365  -2.02469
