22
Generated by autodE on: 2022-06-01. E = -442.579618 Ha
C     3.31944   0.84098   1.22391
C     2.65879   0.37725  -0.04524
C     3.28130   0.75767  -1.36054
N     1.60846  -0.34187  -0.00678
C     0.64388  -1.12956   0.03297
C    -0.73957  -0.60283   0.03019
C    -1.03354   0.77225  -0.07700
C    -2.35456   1.21576  -0.07742
C    -3.40404   0.29295   0.03175
C    -3.12707  -1.07330   0.13893
C    -1.80243  -1.51703   0.13557
H     3.37647   1.94259   1.24633
H     2.77350   0.49630   2.11262
H     4.35632   0.46487   1.27233
H     2.71204   0.35344  -2.20860
H     3.33272   1.85552  -1.45754
H     4.31806   0.38188  -1.41356
H    -0.21350   1.49034  -0.16101
H    -2.57306   2.28314  -0.16207
H    -4.43933   0.64250   0.03200
H    -3.94463  -1.79302   0.22341
H    -1.57128  -2.58185   0.21573
