20
Generated by autodE on: 2022-06-18. E = -457.715330 Ha
C    -3.04332  -0.89444  -0.17026
N    -1.82659  -0.10462  -0.07400
C    -1.90823   1.24961   0.27438
C    -0.82256   2.01373   0.47290
C     0.58758   1.49315   0.34154
C     0.57659   0.01249  -0.00176
C     1.82828  -0.74451  -0.16362
N     2.97622  -0.03966  -0.00119
O     1.86621  -1.96275  -0.43160
C    -0.59065  -0.66889  -0.17713
H    -2.80303  -1.88282  -0.58189
H    -3.76862  -0.40469  -0.83797
H    -3.51784  -1.03007   0.81662
H    -2.92369   1.63837   0.36979
H    -0.96755   3.06404   0.73599
H     1.14971   1.67791   1.27975
H     1.13757   2.07428  -0.42739
H     3.86162  -0.52231  -0.10797
H     2.98619   0.95100   0.20523
H    -0.56851  -1.73238  -0.42056
