16
Generated by autodE on: 2022-06-18. E = -492.339061 Ha
C     3.63839   0.93582   0.72243
O     2.26885   0.57957   0.99369
C     1.69630  -0.26695   0.14233
O     2.22225  -0.77025  -0.82919
C     0.34235  -0.61653   0.57254
N    -0.75499  -0.21851   0.26499
C    -1.96982   0.15326   0.03811
C    -2.66287   1.18091   0.89117
C    -2.65011  -0.44275  -1.06320
N    -3.24274  -0.90667  -1.95344
H     4.27218   0.03778   0.72477
H     3.71637   1.44329  -0.24937
H     3.93392   1.61405   1.53045
H    -1.99879   1.50189   1.70456
H    -2.93978   2.05978   0.28739
H    -3.58462   0.75998   1.32322
