36
Generated by autodE on: 2022-06-18. E = -950.047406 Ha. Imaginary frequency = -411.0 cm-1
C     4.48498   2.09311  -0.11795
O     3.30429   1.34419   0.22644
C     3.04408   0.26985  -0.51559
O     3.74030  -0.15153  -1.41872
C     1.73290  -0.31082  -0.21457
N     1.32811  -1.10091   0.62329
C     0.20698  -1.75425   0.94490
C    -0.59036  -1.29190   2.13319
C     0.13508  -3.12806   0.56996
N     0.01773  -4.24552   0.25599
C    -0.91420  -1.06099  -1.15794
C    -2.28719  -0.78546  -0.59446
C    -2.32239   0.59890   0.01947
C    -3.30829   0.99460   1.03971
N    -4.20942   0.05039   1.40735
O    -3.33696   2.13046   1.55377
C    -1.45057   1.54749  -0.41867
N    -0.46876   1.31072  -1.34256
C     0.49992   2.35725  -1.63232
C    -0.10495  -0.02515  -1.59246
H     4.50914   2.94414   0.57157
H     5.38243   1.47190   0.00963
H     4.41972   2.44341  -1.15794
H    -0.59535  -0.19471   2.17258
H    -0.16753  -1.68487   3.07330
H    -1.62513  -1.65216   2.05545
H    -0.72414  -2.04793  -1.58060
H    -2.56215  -1.56532   0.13326
H    -3.04652  -0.87064  -1.40129
H    -4.88307   0.27873   2.13027
H    -4.20242  -0.88796   1.02926
H    -1.50755   2.56796  -0.03613
H     1.24682   2.45561  -0.82663
H    -0.01648   3.31872  -1.75344
H     1.02528   2.12240  -2.56782
H     0.61637  -0.16325  -2.39692
