38
Generated by autodE on: 2022-06-19. E = -1046.444962 Ha
C    -3.71961   2.41648   1.55827
N    -3.05472   1.15061   1.32598
C    -2.17100   0.98687   0.32825
O    -1.87627   1.88873  -0.47355
C    -1.52072  -0.33845   0.22883
N    -1.71549  -1.29558   1.07137
N    -1.02215  -2.39795   0.67450
C     0.05971  -1.97405  -0.24754
C     0.53050  -3.09855  -1.15625
C     1.23954  -1.53605   0.64804
O     1.64536  -2.31133   1.50199
C     1.85533  -0.20399   0.49452
O     2.85836   0.00802   1.36056
C     3.15905   1.33067   1.82576
C     1.43574   0.66435  -0.48279
O     2.13675   1.78406  -0.71855
C     1.45888   2.98982  -1.11021
C     0.34942   0.27777  -1.41381
O     0.29140   0.77862  -2.52601
C    -0.64351  -0.77261  -0.94564
C    -1.55766  -1.18524  -2.10655
H    -2.99352   3.21575   1.77810
H    -4.39749   2.30988   2.41342
H    -4.30522   2.72607   0.67819
H    -3.23704   0.36080   1.93702
H    -0.72878  -2.98668   1.45407
H     1.28929  -2.72647  -1.86036
H     0.98442  -3.89363  -0.54736
H    -0.30916  -3.52289  -1.72091
H     3.69967   1.19451   2.77182
H     3.79180   1.87248   1.11124
H     2.23418   1.89847   2.00803
H     2.06380   3.81741  -0.71636
H     1.39788   3.06075  -2.20404
H     0.45013   3.03152  -0.67710
H    -0.97201  -1.54470  -2.96344
H    -2.14528  -0.31626  -2.43166
H    -2.24716  -1.97832  -1.78770
