12
Generated by autodE on: 2022-06-19. E = -356.895548 Ha
C     2.21473   0.46040  -0.49270
N     1.54076  -0.78970  -0.19468
C     0.21157  -0.94599  -0.05165
O    -0.33852  -2.00169   0.27374
C    -0.60211   0.23531  -0.37296
N    -1.28291   1.06518   0.14695
N    -1.89764   2.04315   0.58476
H     3.16287   0.24746  -1.00388
H     1.59533   1.07358  -1.16321
H     2.42951   1.04628   0.41603
H     2.10086  -1.59934   0.06233
H    -2.86520   1.76746   0.81147
