18
Generated by autodE on: 2022-10-20. E = -493.596210 Ha
C    -2.07694  -1.95387   0.72161
N    -1.36115  -1.10383   0.39622
C    -0.48932  -0.14471   0.03436
C    -1.01049   1.07749  -0.52071
C    -2.51141   1.20500  -0.65920
O    -0.26710   2.01127  -0.88104
C     0.92793  -0.49893   0.26930
O     1.23681  -1.59771   0.76440
N     1.82429   0.44473  -0.08960
C     3.25267   0.28378   0.05741
H    -2.75958  -2.74384   1.01491
H    -2.91445   0.41048  -1.30778
H    -2.74997   2.18466  -1.09237
H    -3.00592   1.10777   0.32084
H     1.42784   1.30063  -0.48411
H     3.45960  -0.69138   0.51460
H     3.67956   1.07031   0.70107
H     3.76488   0.32824  -0.91802
