8
Generated by autodE on: 2022-10-20. E = -651.547895 Ha
C    -2.79488  -0.18184  -0.72132
O    -1.80953  -0.92163   0.04127
C    -0.61547  -0.41607   0.07862
C     0.51279   0.02082   0.13941
Cl    2.05773   0.61254   0.22882
H    -3.72923  -0.74865  -0.63718
H    -2.48021  -0.11566  -1.77320
H    -2.91766   0.82503  -0.29591
