26
Generated by autodE on: 2022-10-20. E = -1145.128679 Ha. Imaginary frequency = -378.9 cm-1
C    -3.04608  -1.58502   1.84544
N    -2.03563  -0.56921   1.62973
C    -1.94274   0.07678   0.44513
O    -2.74439  -0.13825  -0.47447
C    -0.81950   1.03297   0.29999
C    -0.53378   1.89347  -0.86553
C    -1.37285   1.75782  -2.10685
O     0.40079   2.69487  -0.81460
N     0.02157   1.20020   1.31016
C     1.10936   1.02472   1.76589
C     1.97661  -0.49483   0.35729
O     3.14249  -0.50387   0.97871
C     4.10119  -1.41837   0.40713
C     1.13758  -0.81310  -0.49109
Cl    0.26419  -1.55090  -1.70362
H    -2.97323  -1.94211   2.87989
H    -2.91262  -2.44224   1.16479
H    -4.05693  -1.18047   1.68171
H    -1.33781  -0.41817   2.34927
H    -1.32981   0.73019  -2.49501
H    -2.42939   1.96506  -1.88463
H    -0.99397   2.46257  -2.85884
H     1.74698   1.37187   2.58226
H     5.01403  -1.32297   1.00796
H     3.71716  -2.44879   0.45843
H     4.30354  -1.14607  -0.64018
