91
Generated by autodE on: 2022-07-05. E = -2166.533647 Ha
C   -10.69350  -3.95241 -13.46762
N   -11.14371  -2.80046 -12.71424
C   -10.67079  -2.47922 -11.50018
O    -9.71147  -3.06005 -10.98883
C   -11.25547  -1.19899 -10.78616
C   -12.43341  -0.54002 -11.55294
C   -13.55270  -1.25403 -12.01048
C   -14.61833  -0.61680 -12.64799
C   -14.59411   0.76545 -12.84601
C   -13.47757   1.48926 -12.42177
C   -12.40977   0.84198 -11.79505
C   -11.52664  -1.47680  -9.24865
C   -10.64019  -0.76207  -8.51771
C   -10.38807  -0.68975  -6.99068
C    -9.91440  -2.00632  -6.53712
N    -9.53111  -3.04714  -6.19815
C    -9.28065   0.34594  -6.62692
O    -9.39082   1.53284  -6.84171
O    -8.28260  -0.19301  -5.94636
C    -7.27951   0.70146  -5.43022
C   -11.60729  -0.15430  -6.12998
C   -12.45861  -1.17561  -5.39524
C   -13.43790  -1.96284  -6.25062
C   -12.82796  -2.87892  -7.31831
C   -12.69091  -2.41735  -8.82890
C   -14.03699  -1.71592  -9.10093
C   -14.11372  -0.31453  -9.11490
C   -15.33561   0.34598  -9.24714
C   -16.52332  -0.38380  -9.34925
C   -16.46939  -1.77812  -9.27854
C   -15.24214  -2.43372  -9.13954
C   -12.46117  -3.77421  -9.55560
C   -13.29281  -4.32545 -10.53885
C   -13.01465  -5.57068 -11.11649
C   -11.89850  -6.30341 -10.71415
C   -11.06299  -5.77445  -9.72550
C   -11.34220  -4.53135  -9.16102
C    -9.73092   0.09667  -9.39780
C   -10.15026   1.58859  -9.33617
O    -9.52240   2.51288  -9.81620
O   -11.39639   1.72969  -8.88116
C   -11.98050   3.03474  -8.94566
C    -8.23960  -0.18090  -9.13849
C    -7.84681  -1.52233  -9.00047
C    -6.51716  -1.85974  -8.74803
C    -5.54628  -0.85940  -8.64158
C    -5.92142   0.47604  -8.80131
C    -7.25568   0.81450  -9.04728
N   -10.14200  -0.27086 -10.73715
C    -9.27317  -0.05148 -11.86471
H   -10.37516  -3.65544 -14.47885
H   -11.50025  -4.69692 -13.55915
H    -9.84595  -4.41219 -12.94696
H   -11.92722  -2.27353 -13.08197
H   -13.61214  -2.32511 -11.85437
H   -15.47578  -1.20805 -12.97705
H   -15.43095   1.27096 -13.33342
H   -13.42923   2.56922 -12.58105
H   -11.54524   1.42640 -11.49278
H    -6.51902   0.05991  -4.97222
H    -6.84378   1.29278  -6.24501
H    -7.72672   1.36793  -4.67927
H   -12.21449   0.46377  -6.80353
H   -11.18903   0.52363  -5.37517
H   -13.03349  -0.61637  -4.63910
H   -11.80766  -1.86149  -4.82716
H   -14.16532  -1.27086  -6.69798
H   -14.02082  -2.60816  -5.57393
H   -13.49686  -3.74563  -7.40229
H   -11.88107  -3.29211  -6.96152
H   -13.20476   0.27522  -9.02790
H   -15.35392   1.43818  -9.27374
H   -17.48167   0.12807  -9.46413
H   -17.38955  -2.36601  -9.32239
H   -15.23884  -3.51898  -9.04388
H   -14.18350  -3.80014 -10.87146
H   -13.68424  -5.96275 -11.88569
H   -11.68017  -7.27439 -11.16493
H   -10.17799  -6.32621  -9.39956
H   -10.65437  -4.13120  -8.41652
H   -11.40361   3.73985  -8.32991
H   -12.01549   3.39320  -9.98407
H   -12.99666   2.92762  -8.54856
H    -8.59129  -2.30888  -9.10543
H    -6.24069  -2.91018  -8.63038
H    -4.50488  -1.11958  -8.43789
H    -5.17362   1.26890  -8.72482
H    -7.53070   1.86042  -9.15243
H    -8.78782   0.93056 -11.77354
H    -8.48309  -0.81964 -11.96866
H    -9.86313  -0.03809 -12.79244
