44
Generated by autodE on: 2022-07-27. E = -1071.738706 Ha
C    -1.77269  -3.18018  -3.56597
N    -1.18494  -2.10830  -2.78604
C    -1.08651  -2.18677  -1.44776
O    -1.43163  -3.18238  -0.80190
C    -0.53101  -0.95968  -0.77399
C    -1.10084   0.34791  -1.13106
C    -2.48682   0.47279  -1.33124
C    -3.04133   1.70064  -1.69967
C    -2.21880   2.81424  -1.88225
C    -0.83409   2.69459  -1.69557
C    -0.27690   1.47743  -1.31556
N     0.39969  -1.10216   0.16011
C     1.15426  -2.37035   0.26132
C     0.66010  -0.11701   1.12262
C    -0.44003   0.55189   1.76662
O    -0.35404   1.58793   2.43051
O    -1.63493  -0.08838   1.63595
C    -2.78404   0.59711   2.12605
C     2.04210   0.31055   1.32079
C     2.49920   0.85472   2.54423
C     3.82152   1.26676   2.69812
C     4.73846   1.14262   1.64632
C     4.30654   0.60437   0.43034
C     2.98008   0.20324   0.26593
H    -1.65464  -2.94983  -4.63139
H    -1.27412  -4.13664  -3.34862
H    -2.84596  -3.29733  -3.34255
H    -0.93598  -1.23839  -3.24668
H    -3.13524  -0.39141  -1.17385
H    -4.12097   1.78508  -1.84175
H    -2.65060   3.77434  -2.17370
H    -0.18445   3.55873  -1.85143
H     0.80092   1.39356  -1.17125
H     2.06035  -2.19222   0.84528
H     0.52919  -3.10794   0.77801
H     1.42055  -2.73903  -0.73673
H    -2.73323   0.72933   3.21762
H    -2.88899   1.58352   1.64979
H    -3.64632  -0.03004   1.86793
H     1.80660   0.94565   3.38010
H     4.14490   1.68049   3.65691
H     5.77475   1.46385   1.77384
H     5.00432   0.50746  -0.40541
H     2.65947  -0.18936  -0.70151
