47
Generated by autodE on: 2022-07-05. E = -1094.719587 Ha
C    -3.95915   3.87080   1.81224
O    -3.31535   3.35132   0.63325
C    -2.47538   2.34112   0.80121
O    -2.21821   1.81914   1.86051
C    -1.79574   1.95564  -0.53506
C    -2.76147   2.05169  -1.63971
N    -3.49267   2.12251  -2.53697
C    -1.19111   0.62905  -0.43638
C    -0.30669  -0.16208  -0.19738
C     1.01634  -0.72233   0.09234
C     1.57692  -1.34101  -1.19918
C     0.79193  -2.28519  -1.88084
C     1.26091  -2.90719  -3.03775
C     2.53006  -2.59220  -3.53762
C     3.31719  -1.65403  -2.86790
C     2.84449  -1.03167  -1.70551
C     0.98892  -1.76213   1.22321
C     2.03405  -2.68597   1.36136
C     2.04993  -3.58704   2.42981
C     1.01872  -3.57879   3.37401
C    -0.02411  -2.65637   3.24545
C    -0.03681  -1.75297   2.17908
C     1.81821   0.52646   0.60320
C     1.71446   1.81541  -0.23937
C     0.60093   2.83394   0.13598
C    -0.61300   2.97417  -0.79919
H    -3.20542   4.25726   2.51239
H    -4.54960   3.08168   2.29793
H    -4.61064   4.67975   1.46431
H    -0.19866  -2.53716  -1.49398
H     0.63439  -3.64005  -3.55188
H     2.90054  -3.07589  -4.44448
H     4.30921  -1.39872  -3.24821
H     3.48164  -0.30598  -1.20063
H     2.84183  -2.70521   0.62763
H     2.87135  -4.30189   2.52114
H     1.02782  -4.28721   4.20576
H    -0.83460  -2.63838   3.97822
H    -0.84768  -1.02612   2.09299
H     2.86888   0.21868   0.70800
H     1.46153   0.73436   1.62311
H     1.64662   1.56552  -1.31043
H     2.67747   2.33566  -0.12193
H     1.06269   3.83314   0.14918
H     0.26051   2.65784   1.16938
H    -1.04434   3.98236  -0.71492
H    -0.30413   2.83495  -1.84573
