42
Generated by autodE on: 2022-06-20. E = -1123.967220 Ha
C    -3.19563   4.07648  -0.83775
O    -2.54635   2.80572  -0.65808
C    -1.61056   2.74516   0.28108
O    -1.26736   3.67917   0.97821
C    -1.00198   1.38316   0.42040
N    -1.65727   0.32120   0.15062
C    -0.84776  -0.84607   0.50218
C    -1.69503  -1.86114   1.30374
C    -3.09215  -2.11418   0.82305
O    -1.21520  -2.42225   2.26782
C    -0.38881  -1.63126  -0.76377
C    -0.45295  -0.96131  -2.10253
O    -0.05358  -2.79401  -0.62683
C     0.34744  -0.29707   1.35602
C     1.66509  -1.05653   1.23776
C     2.29361  -0.78509  -0.10328
C     3.05285  -1.77597  -0.87368
N     3.34782  -2.94257  -0.24839
O     3.41790  -1.58187  -2.05244
C     2.13277   0.45502  -0.64931
N     1.41219   1.46427  -0.09802
C     1.31669   2.74024  -0.79143
C     0.41591   1.18668   0.95058
H    -2.45675   4.84569  -1.10392
H    -3.71793   4.37042   0.08377
H    -3.91170   3.93460  -1.65468
H    -3.70857  -1.22828   1.04393
H    -3.11689  -2.25430  -0.26839
H    -3.51080  -2.99056   1.33414
H     0.21121  -1.48359  -2.80309
H    -0.20729   0.10653  -2.05731
H    -1.49425  -1.04144  -2.46200
H     0.00422  -0.33119   2.39709
H     1.46009  -2.12503   1.38878
H     2.32678  -0.74006   2.06350
H     3.84371  -3.65947  -0.76617
H     3.08684  -3.12908   0.71109
H     2.62545   0.69407  -1.59415
H     1.21388   3.55803  -0.06471
H     0.45827   2.77844  -1.48632
H     2.23230   2.90620  -1.37302
H     0.60453   1.84892   1.80788
