20
Generated by autodE on: 2022-06-20. E = -457.715347 Ha
C     3.14423   0.20820  -0.40504
N     1.80252  -0.28971  -0.14919
C     1.63491  -1.55811   0.42086
C     0.43409  -2.03811   0.78087
C    -0.84888  -1.26276   0.60979
C    -0.56571   0.10815   0.01762
C    -1.65088   1.07027  -0.23293
N    -2.89885   0.66079   0.10770
O    -1.46894   2.20083  -0.72898
C     0.69969   0.49480  -0.30880
H     3.69050   0.40264   0.53378
H     3.71965  -0.52169  -0.99477
H     3.08276   1.14429  -0.97417
H     2.55613  -2.12966   0.54735
H     0.38310  -3.04070   1.21165
H    -1.37209  -1.17294   1.58376
H    -1.55472  -1.83168  -0.02995
H    -3.67548   1.29632  -0.03812
H    -3.08301  -0.24246   0.52514
H     0.87482   1.48559  -0.73112
