22
Generated by autodE on: 2022-06-20. E = -666.175266 Ha
C     4.59465  -0.13364  -0.79897
O     3.23840   0.16723  -0.40537
C     2.30763  -0.67940  -0.80792
O     2.45459  -1.68307  -1.47074
C     0.99475  -0.27043  -0.35346
N    -0.11320  -0.07704  -0.04389
C    -1.34121   0.23329   0.35918
C    -2.43108  -0.66061  -0.04221
C    -2.05533  -1.85982  -0.88160
O    -3.59854  -0.44956   0.28424
C    -1.41717   1.46144   1.16990
C    -2.75688   1.90595   1.68874
O    -0.39192   2.10022   1.41080
H     5.20774   0.66778  -0.37382
H     4.67367  -0.14287  -1.89478
H     4.89535  -1.10914  -0.39260
H    -1.33828  -2.50184  -0.34489
H    -1.56855  -1.54251  -1.81786
H    -2.96064  -2.43431  -1.11438
H    -3.45947   2.07246   0.85897
H    -2.61928   2.83195   2.26265
H    -3.20330   1.12737   2.32506
