42
Generated by autodE on: 2022-06-20. E = -1123.884007 Ha. Imaginary frequency = -355.2 cm-1
C    -2.32407   4.04240  -1.96398
O    -1.87033   2.72170  -1.60149
C    -1.94255   2.40252  -0.31739
O    -2.38625   3.09398   0.57293
C    -1.33776   1.08280  -0.04305
N    -1.54321  -0.05622  -0.40957
C    -1.23433  -1.28836   0.02951
C    -1.97545  -1.70941   1.23944
C    -1.69719  -3.06393   1.83206
O    -2.80101  -0.95046   1.74805
C    -0.38959  -2.13086  -0.82076
C    -0.03584  -1.59687  -2.18632
O     0.05719  -3.20642  -0.41621
C     0.40875  -0.18779   1.78221
C     1.60568  -1.02999   1.45046
C     2.31614  -0.47629   0.23213
C     3.20715  -1.28084  -0.62473
N     3.19884  -2.62672  -0.42296
O     3.95136  -0.77273  -1.48369
C     2.18295   0.84266  -0.07204
N     1.34344   1.69849   0.59016
C     1.18993   3.05954   0.09324
C     0.30689   1.13383   1.36794
H    -1.73851   4.79949  -1.42345
H    -2.15857   4.12573  -3.04340
H    -3.39098   4.15359  -1.72685
H    -0.64860  -3.13312   2.15834
H    -2.36564  -3.20948   2.69083
H    -1.84964  -3.85951   1.08897
H     0.48058  -0.62942  -2.09651
H    -0.94853  -1.42744  -2.77980
H     0.61687  -2.31452  -2.69865
H    -0.25817  -0.51475   2.57870
H     1.29985  -2.07944   1.32451
H     2.29048  -1.04057   2.32573
H     3.69812  -3.18610  -1.10805
H     2.40066  -3.06730   0.02305
H     2.75563   1.27874  -0.89221
H     2.17898   3.50950  -0.06627
H     0.64939   3.66102   0.83548
H     0.63698   3.09151  -0.86061
H    -0.27132   1.84757   1.95840
