35
Generated by autodE on: 2022-10-06. E = -991.213542 Ha
C    -0.53207   0.95231   2.64472
N    -0.54917   0.77052   1.20810
C     0.45091  -0.14725   0.66948
C     1.87555   0.34471   0.77885
C     2.19784   1.70849   0.73495
C     3.53166   2.12571   0.76290
C     4.56392   1.18381   0.82743
C     4.25175  -0.17904   0.86612
C     2.91719  -0.59271   0.84474
C    -0.01242  -0.33035  -0.78728
C     0.67973  -1.52426  -1.47034
O     0.33612  -2.67964  -1.09745
O     1.57320  -1.25723  -2.31510
C    -1.51417  -0.47826  -0.60285
C    -2.40701  -0.31783  -1.84485
O    -1.84947  -0.06865  -2.94373
O    -3.64372  -0.47442  -1.65460
C    -1.85648   0.50791   0.56879
C    -2.50384   1.82776   0.12371
C    -2.79187  -0.18450   1.48364
N    -3.51541  -0.71650   2.22074
H    -0.72251   0.01488   3.20813
H     0.45003   1.33734   2.95681
H    -1.28957   1.69177   2.94542
H     0.39574  -1.13925   1.16529
H     1.39430   2.44455   0.68174
H     3.76643   3.19284   0.73354
H     5.60647   1.51039   0.84974
H     5.05069  -0.92308   0.91662
H     2.67306  -1.65799   0.87605
H     0.22462   0.58083  -1.35370
H    -1.68591  -1.50109  -0.23553
H    -3.52171   1.66396  -0.25267
H    -2.54149   2.53095   0.96879
H    -1.89489   2.26794  -0.67894
