25
Generated by autodE on: 2022-10-13. E = -536.088385 Ha
C    -3.86960   0.07638  -0.27719
C    -2.51801  -0.57616  -0.19327
C    -2.41634  -1.96802  -0.24691
N    -2.34391  -3.14069  -0.30997
N    -1.35406   0.15197  -0.02705
C    -1.49697   1.61734  -0.09395
C    -0.16640  -0.40372   0.22760
C     1.15077   0.19236   0.17691
C     1.52686   1.32068  -0.59418
C     2.84344   1.78119  -0.58954
C     3.82782   1.13433   0.16518
C     3.48176  -0.00079   0.90928
C     2.17059  -0.46708   0.91056
H    -4.62420  -0.70118  -0.45901
H    -4.15786   0.59873   0.65317
H    -3.94327   0.80359  -1.10334
H    -2.40418   1.90979   0.44352
H    -0.63961   2.09173   0.38774
H    -1.57690   1.94768  -1.13809
H    -0.20697  -1.46488   0.47887
H     0.80123   1.82309  -1.23204
H     3.10545   2.65100  -1.19703
H     4.85630   1.50202   0.16296
H     4.24173  -0.52601   1.49299
H     1.91013  -1.35440   1.49292
