25
Generated by autodE on: 2022-10-06. E = -536.094303 Ha
C    -2.69243  -1.71200  -0.64109
C    -2.47288  -0.35036  -0.06644
C    -3.56008   0.42178   0.34879
N    -4.51666   1.01722   0.68859
N    -1.19246   0.14250   0.05803
C    -1.03978   1.47325   0.67483
C    -0.12797  -0.53683  -0.37676
C     1.28091  -0.24361  -0.20546
C     1.86438   0.51941   0.83608
C     3.24712   0.69132   0.90658
C     4.09351   0.10738  -0.04114
C     3.53787  -0.67351  -1.06237
C     2.15992  -0.85078  -1.13933
H    -2.37155  -1.77698  -1.69831
H    -3.75780  -1.97287  -0.59589
H    -2.12101  -2.48040  -0.08633
H    -0.94249   1.37879   1.76406
H    -0.15954   1.97070   0.25944
H    -1.92558   2.07346   0.44452
H    -0.35725  -1.42877  -0.95565
H     1.24781   0.95348   1.62033
H     3.66834   1.28140   1.72423
H     5.17482   0.24798   0.02224
H     4.18511  -1.14820  -1.80386
H     1.73609  -1.46371  -1.93865
