10
Generated by autodE on: 2022-10-06. E = -455.051697 Ha
O     2.25944   1.09408  -0.47334
C     1.93971   0.16892   0.32279
O     2.72678  -0.44902   1.09335
C     0.48754  -0.26001   0.37889
C    -0.48754   0.26001  -0.37890
C    -1.93971  -0.16893  -0.32279
O    -2.25944  -1.09407   0.47335
O    -2.72678   0.44901  -1.09335
H     0.24304  -1.05408   1.09260
H    -0.24305   1.05409  -1.09261
