23
Generated by autodE on: 2022-06-17. E = -351.521383 Ha
C    -3.36888  -1.40830   0.98308
C    -2.49102  -0.53159   0.44777
C    -2.95859   0.73679  -0.21915
C    -1.05664  -0.80543   0.50928
C    -0.07726  -0.00944   0.01119
C     1.33302  -0.32885   0.10003
C     2.36926   0.40911  -0.37247
C     3.78690  -0.05880  -0.20132
C     2.22054   1.72026  -1.09079
H    -3.02609  -2.32817   1.46684
H    -4.44710  -1.22852   0.95137
H    -2.53518   1.62596   0.27695
H    -4.05448   0.81798  -0.19681
H    -2.62973   0.77747  -1.27089
H    -0.76848  -1.73996   1.00568
H    -0.35632   0.92387  -0.48526
H     1.57360  -1.27136   0.60668
H     4.38072   0.68719   0.35698
H     4.28323  -0.17093  -1.18211
H     3.84645  -1.01967   0.33062
H     2.67703   1.65891  -2.09458
H     1.17866   2.04463  -1.20870
H     2.76928   2.51432  -0.55411
