14
Generated by autodE on: 2022-06-17. E = -565.380532 Ha
C    -3.38594   0.36283  -0.01980
N    -1.94492   0.48163  -0.12902
C    -1.12928  -0.49196   0.31242
O    -1.50548  -1.53999   0.84035
C     0.30468  -0.21085   0.10273
O     1.19920  -1.13007   0.46311
N     2.43099  -0.77582   0.20421
O     2.36243   0.41969  -0.34496
C     1.00818   0.88320  -0.46054
O     0.73117   1.95388  -0.94189
H    -3.73572  -0.57473  -0.47820
H    -3.84994   1.20926  -0.53931
H    -3.70987   0.36900   1.03326
H    -1.54364   1.31792  -0.54725
