23
Generated by autodE on: 2022-10-06. E = -663.315700 Ha
C    -2.92560  -1.71819  -0.07326
C    -1.49542  -1.25075  -0.11600
O    -0.56122  -2.03143  -0.26442
C    -1.27856   0.21193  -0.04610
C    -2.41655   1.05785  -0.05024
N    -3.38562   1.70612  -0.02600
N    -0.04594   0.76988  -0.22087
C     0.03163   2.08937  -0.88843
C     1.08387   0.15307   0.19224
C     1.01793  -0.74228   1.28981
N     1.02893  -1.42268   2.23538
C     2.41486   0.40922  -0.42771
C     3.60504  -0.17858   0.27668
O     2.51360   1.03914  -1.47105
H    -3.41043  -1.37236   0.85358
H    -3.49931  -1.30519  -0.91765
H    -2.94342  -2.81396  -0.11724
H     0.93333   2.61485  -0.57024
H     0.03076   1.94477  -1.97572
H    -0.85274   2.66472  -0.59385
H     3.64398   0.16169   1.32349
H     4.51822   0.12036  -0.25224
H     3.53339  -1.27809   0.29382
