23
Generated by autodE on: 2022-10-13. E = -663.310145 Ha
C    -3.60196  -0.95592   0.11081
C    -2.27597  -1.07305  -0.59070
O    -2.10233  -1.83837  -1.52863
C    -1.17379  -0.22652  -0.05306
C    -1.42014   0.48678   1.14691
N    -1.68265   1.10747   2.09831
N     0.04332  -0.10868  -0.64643
C     0.16398  -0.39809  -2.09411
C     1.16557   0.23559   0.04842
C     1.18310  -0.02912   1.44231
N     1.25057  -0.29625   2.57534
C     2.38436   0.88323  -0.51922
C     3.51434   1.10038   0.45331
O     2.47626   1.25140  -1.68342
H    -4.33533  -1.58510  -0.40819
H    -3.94494   0.09048   0.12596
H    -3.51215  -1.28565   1.15840
H     0.37632  -1.46734  -2.21655
H     0.98890   0.20134  -2.47929
H    -0.77001  -0.13899  -2.59540
H     3.19860   1.75862   1.27809
H     3.83127   0.14474   0.89992
H     4.35496   1.55894  -0.08134
