36
Generated by autodE on: 2022-10-06. E = -908.532147 Ha. Imaginary frequency = -169.9 cm-1
C    -3.32273   1.31372  -0.26705
N    -2.01308   1.90029  -0.02831
C    -0.86022   1.25394  -0.56824
N    -0.78887   1.13176  -1.98902
N     0.33334   1.84730  -0.08864
C     1.56347  -0.09844   0.39770
C     1.53369   0.33807   1.75989
N     1.71036   0.69199   2.85259
C     2.96752   0.02530  -0.25432
C     4.05162  -0.80894   0.33070
O     3.07015   0.81077  -1.16468
N     0.61465  -0.78337  -0.21120
C     0.92457  -1.52831  -1.44994
C    -0.76681  -0.42325   0.03325
C    -1.10362  -0.33151   1.44741
N    -1.47806  -0.23418   2.54029
C    -1.75583  -1.45471  -0.64563
C    -2.17596  -2.62436   0.18468
O    -2.12244  -1.28376  -1.78411
H    -3.50066   0.35593   0.25719
H    -4.08988   2.01942   0.08017
H    -3.47700   1.15176  -1.34205
H    -1.88433   2.12658   0.95774
H    -1.50758   0.50381  -2.34455
H    -0.91510   2.05796  -2.40085
H     0.98018   2.14403  -0.81667
H     0.24746   2.50577   0.68426
H     3.73806  -1.86572   0.34436
H     4.97421  -0.68093  -0.24911
H     4.21457  -0.50812   1.37937
H     1.99179  -1.76428  -1.47885
H     0.37464  -2.47645  -1.43024
H     0.63541  -0.93037  -2.32089
H    -2.89279  -2.28452   0.95013
H    -2.66023  -3.36850  -0.45919
H    -1.31649  -3.06151   0.71533
