47
Generated by autodE on: 2022-06-19. E = -923.822315 Ha
C     5.19633   0.12186   0.31482
C     3.95283   0.32086   0.79634
C     3.70501   1.08207   2.07185
C     2.79686  -0.20446   0.06167
C     1.51418  -0.08097   0.44657
C     0.36082  -0.62847  -0.33065
C    -0.73490   0.45479  -0.71726
C    -0.57948   0.77686  -2.16216
N    -0.53990   0.96551  -3.30700
C    -0.49577   1.77990   0.03727
O     0.19099   2.67301  -0.41210
O    -1.06642   1.80279   1.23023
C    -0.80507   2.95699   2.04829
N    -1.99557  -0.17005  -0.41337
C    -3.17701   0.42305  -1.00373
C    -1.84723  -1.64258  -0.36563
C    -1.83991  -2.26904  -1.77389
C    -2.99917  -2.26766   0.42444
C    -0.45975  -1.76837   0.35570
C    -0.58514  -1.54142   1.87001
C     0.23628  -3.11193   0.12829
H     5.36108  -0.43079  -0.61520
H     6.07860   0.50486   0.83536
H     3.05520   1.95444   1.88947
H     3.18574   0.45382   2.81461
H     4.64654   1.43578   2.51484
H     3.01885  -0.73037  -0.87426
H     1.27990   0.43710   1.37945
H     0.75216  -1.02775  -1.27449
H    -1.36200   2.79674   2.97796
H     0.27194   3.03614   2.25477
H    -1.15358   3.86806   1.54260
H    -3.20572   1.49950  -0.77055
H    -3.23350   0.31706  -2.10546
H    -4.07883  -0.03039  -0.57050
H    -1.81808  -3.36650  -1.71413
H    -2.75835  -1.98732  -2.31049
H    -0.98373  -1.94642  -2.38320
H    -3.19472  -1.73280   1.36304
H    -2.76238  -3.31574   0.66175
H    -3.92573  -2.26873  -0.16910
H    -1.08338  -0.59307   2.10760
H     0.41183  -1.52811   2.33429
H    -1.14829  -2.36031   2.33942
H     1.20525  -3.12377   0.65161
H     0.43076  -3.31037  -0.93468
H    -0.37059  -3.93866   0.53012
