23
Generated by autodE on: 2022-06-19. E = -351.521383 Ha
C     3.33741  -0.84053  -1.56566
C     2.45155  -0.58571  -0.57763
C     2.87022  -0.59054   0.87042
C     1.05671  -0.29689  -0.90484
C     0.07445  -0.02181  -0.01021
C    -1.29478   0.26013  -0.39018
C    -2.32915   0.54960   0.43921
C    -3.70174   0.82071  -0.10860
C    -2.21977   0.62879   1.93548
H     3.03025  -0.83625  -2.61604
H     4.38692  -1.05893  -1.34954
H     2.29836  -1.33662   1.44692
H     3.94013  -0.81966   0.97476
H     2.67763   0.38686   1.34329
H     0.80328  -0.30738  -1.97180
H     0.31861  -0.00871   1.05553
H    -1.50234   0.23395  -1.46682
H    -4.43711   0.10898   0.30797
H    -4.04996   1.82657   0.18783
H    -3.73288   0.75099  -1.20584
H    -2.52929   1.62844   2.28851
H    -1.20933   0.43010   2.31522
H    -2.91258  -0.08983   2.40797
