24
Generated by autodE on: 2022-06-19. E = -572.272460 Ha
C     3.39065   1.01711  -0.34479
O     2.36317   0.17245   0.17162
C     1.09972   0.40249  -0.28963
O     0.85603   1.31858  -1.07718
C     0.15582  -0.52865   0.24318
C     0.54774  -1.62821   1.01928
N     0.86268  -2.55327   1.66788
N    -1.21152  -0.43983  -0.15844
C    -1.77363  -1.62028  -0.83772
C    -1.89938   0.67079  -0.04508
C    -1.40422   1.80531   0.77129
C    -3.22104   0.81533  -0.72109
H     3.48504   0.90825  -1.43634
H     4.32097   0.69560   0.14010
H     3.19368   2.07361  -0.10713
H    -2.84755  -1.70870  -0.64269
H    -1.26638  -2.51128  -0.45123
H    -1.58897  -1.54589  -1.91927
H    -0.88928   2.52987   0.11849
H    -2.26121   2.31736   1.23222
H    -0.68731   1.47423   1.53505
H    -3.47227   1.87910  -0.81960
H    -4.00490   0.34371  -0.10178
H    -3.24212   0.34143  -1.71141
