41
Generated by autodE on: 2022-06-05. E = -4781.362831 Ha
C    -2.48331   3.37208   0.38051
C    -2.17543   1.93450   0.07403
O    -2.96139   1.22143  -0.51296
C    -0.86255   1.32221   0.68188
C     0.35040   2.24444   0.81960
C     0.62491   3.30360  -0.05335
C     1.78826   4.06384   0.09851
C     2.69522   3.77299   1.11897
C     2.42826   2.71556   1.99434
C     1.26532   1.96101   1.84546
N    -1.40602   1.00315   2.00855
C    -1.42401  -0.27620   2.10465
C    -0.85481  -0.99354   0.94411
C    -0.50975  -0.02741   0.04050
C     0.10833  -0.13421  -1.32724
Cl   -0.43460   1.25992  -2.37802
Br    2.10508   0.05411  -1.11511
C    -0.14384  -1.39493  -2.14318
C    -1.61581  -1.85177  -2.18197
C    -1.84112  -3.17544  -1.44797
C    -1.94434  -3.15175   0.07931
C    -0.82321  -2.51250   0.91276
Cl    0.82573  -3.14089   0.45879
Cl   -1.06668  -3.14587   2.62838
H    -2.19598   3.98686  -0.48764
H    -1.94378   3.74377   1.25938
H    -3.56935   3.47274   0.51568
H    -0.05148   3.54105  -0.87057
H     1.98362   4.88710  -0.59266
H     3.60510   4.36699   1.23332
H     3.12975   2.47508   2.79668
H     1.07252   1.13070   2.52647
H    -1.83429  -0.77359   2.98384
H     0.23462  -1.19320  -3.15334
H     0.48531  -2.19241  -1.73890
H    -1.90385  -1.99274  -3.23380
H    -2.28353  -1.07017  -1.78689
H    -1.05261  -3.88702  -1.74323
H    -2.79028  -3.61639  -1.79171
H    -2.86200  -2.62428   0.38755
H    -2.04043  -4.19122   0.42269
