20
Generated by autodE on: 2022-06-05. E = -4264.610107 Ha
Cl   -1.85332   1.74722  -2.66978
C    -0.80755   0.34026  -2.19447
Cl    0.26303  -0.07505  -3.61507
C     0.02668   0.65160  -1.05626
C     0.59149   0.43221  -0.00682
C     0.96163  -0.31536   1.16727
Cl    2.71258  -0.11654   1.58052
Br   -0.11811   0.37208   2.71099
C     0.64017  -1.80070   0.91713
C    -0.75723  -2.10422   0.34033
C    -0.94820  -2.06812  -1.20206
C    -1.68947  -0.86709  -1.82432
H     0.78705  -2.32940   1.87018
H     1.41388  -2.16525   0.22236
H    -0.98355  -3.13015   0.66608
H    -1.51217  -1.46962   0.83300
H    -1.55096  -2.94848  -1.46923
H     0.01880  -2.21122  -1.71132
H    -2.45202  -0.49292  -1.12369
H    -2.20949  -1.17094  -2.74464
