41
Generated by autodE on: 2022-06-05. E = -4781.248490 Ha. Imaginary frequency = -173.1 cm-1
C    -1.71335   3.02654  -0.12016
C    -1.58097   1.98587   0.96150
O    -2.56733   1.36465   1.35848
C    -0.24206   1.69156   1.53109
C     1.03649   2.39895   1.31197
C     1.10345   3.77766   1.04756
C     2.33552   4.39732   0.82439
C     3.52044   3.65896   0.87773
C     3.46607   2.29071   1.16884
C     2.23922   1.66836   1.38334
N    -0.24706   0.67468   2.35803
C    -0.37847  -0.45951   2.71543
C    -0.56738  -1.47215   0.55205
C    -0.31631  -0.67694  -0.35124
C    -0.14113  -0.31497  -1.73749
Cl   -1.74466   0.28587  -2.37422
Br    1.18888   1.17213  -1.98063
C     0.35339  -1.49642  -2.58379
C    -0.49843  -2.77435  -2.54272
C    -0.29879  -3.76011  -1.36887
C    -1.31257  -3.70276  -0.21302
C    -0.92736  -2.81834   0.97884
Cl    0.48813  -3.54979   1.87333
Cl   -2.34904  -2.77579   2.12907
H    -1.83803   4.01815   0.34553
H    -0.83933   3.06524  -0.78194
H    -2.61775   2.80514  -0.70085
H     0.19657   4.37993   1.02964
H     2.36682   5.46957   0.61677
H     4.48189   4.14708   0.70187
H     4.38589   1.70294   1.21614
H     2.20395   0.59567   1.58469
H    -0.57723  -0.94239   3.67551
H     1.37734  -1.72208  -2.24686
H     0.42497  -1.13602  -3.62032
H    -1.56443  -2.51298  -2.64212
H    -0.24015  -3.31479  -3.46608
H    -0.38158  -4.77460  -1.78606
H     0.72822  -3.68785  -0.97522
H    -2.27822  -3.32386  -0.58172
H    -1.49302  -4.70930   0.19092
