37
Generated by autodE on: 2022-05-31. E = -3491.341027 Ha
C    -1.88128   2.61126   1.68179
C    -2.25275   1.87580   0.43004
O    -3.39700   1.80495   0.01737
C    -1.14204   1.17454  -0.35795
N     0.19936   1.61230  -0.00896
C     1.14217   0.59688  -0.44935
C     1.29675   0.65428  -1.93096
N     1.35769   0.75318  -3.08613
C     2.51624   0.71744   0.20443
C     3.60258   0.00048  -0.31579
C     4.84503   0.04519   0.31947
C     5.01346   0.81076   1.47828
C     3.93211   1.52816   1.99649
C     2.68551   1.48062   1.36451
C     0.40724  -0.73842  -0.10889
C     0.56176  -1.23469   1.36387
C    -0.10579  -2.60055   1.41062
C    -1.42064  -2.35582   1.37025
C    -1.54272  -0.83827   1.31250
O    -0.39755  -0.41470   2.05788
C    -1.10921  -0.36771  -0.12081
Br   -2.16103  -1.28021  -1.51065
H    -1.29096   1.96081   2.34364
H    -1.23479   3.46703   1.42586
H    -2.78763   2.96941   2.18686
H    -1.37989   1.34419  -1.42273
H     0.42083   2.54100  -0.36657
H     3.47768  -0.59905  -1.22083
H     5.68471  -0.51863  -0.09331
H     5.98614   0.84839   1.97422
H     4.05572   2.12919   2.90042
H     1.83823   2.02987   1.77327
H     0.68583  -1.52171  -0.81972
H     1.56106  -1.13570   1.79639
H     0.41779  -3.55582   1.37721
H    -2.25027  -3.05815   1.30851
H    -2.46717  -0.38933   1.69021
