13
Generated by autodE on: 2022-05-31. E = -2881.097878 Ha
Br    1.67646   0.62295  -0.18878
C    -0.06599  -0.06368  -0.28768
C    -1.07601   0.26376  -1.09680
C    -2.26068  -0.56703  -0.54663
C    -2.63944   0.02420   0.83329
C    -1.62127  -0.29401   1.63714
C    -0.64008  -1.07868   0.73354
O    -1.56566  -1.76258  -0.12538
H    -1.12653   0.99779  -1.89877
H    -3.07604  -0.78797  -1.24374
H    -3.52980   0.61841   1.03638
H    -1.44316  -0.03542   2.68024
H     0.07229  -1.75760   1.21395
