24
Generated by autodE on: 2022-05-31. E = -610.171915 Ha
C     4.59928  -1.16547   0.64092
C     3.10482  -1.09385   0.80373
O     2.51050  -1.78978   1.64848
C     2.37216  -0.20909  -0.06594
N     1.04526  -0.20310   0.09239
C     0.06846   0.47713  -0.52075
C     0.46013   1.38448  -1.53837
N     0.79679   2.12631  -2.37309
C    -1.34309   0.30978  -0.17123
C    -1.77127  -0.62675   0.79379
C    -3.12356  -0.75519   1.10461
C    -4.08109   0.03935   0.46377
C    -3.66858   0.96759  -0.49708
C    -2.31771   1.10334  -0.81275
H     4.85578  -2.10459   0.12081
H     4.99966  -0.32471   0.05819
H     5.07648  -1.19913   1.63189
H     2.83098   0.42741  -0.82028
H     0.76301  -0.85518   0.84092
H    -1.05865  -1.27393   1.30949
H    -3.43182  -1.48743   1.85420
H    -5.13957  -0.06675   0.71081
H    -4.40395   1.59411  -1.00691
H    -2.01260   1.83435  -1.56418
