37
Generated by autodE on: 2022-05-31. E = -3491.268324 Ha. Imaginary frequency = -298.4 cm-1
C    -1.90166   2.68349   1.56777
C    -2.11663   2.09835   0.19283
O    -3.23052   2.07516  -0.33272
C    -0.98103   1.50828  -0.51242
N     0.28090   1.65625  -0.06659
C     1.33672   0.95663  -0.56160
C     1.30059   0.64251  -1.95218
N     1.27726   0.38311  -3.08805
C     2.62238   0.91610   0.14927
C     3.78536   0.48559  -0.51953
C     5.00405   0.40344   0.15277
C     5.09131   0.75286   1.50402
C     3.94215   1.17799   2.17867
C     2.71815   1.25306   1.51484
C     0.23673  -1.17133  -0.11954
C     0.56049  -1.35092   1.37359
C    -0.15891  -2.63746   1.82564
C    -1.46086  -2.33035   1.82340
C    -1.52118  -0.85766   1.36990
O    -0.31013  -0.34735   1.94838
C    -1.10064  -0.81540  -0.12107
Br   -2.33991  -1.33786  -1.46721
H    -1.38595   1.97263   2.23191
H    -1.27247   3.58711   1.50066
H    -2.87303   2.95503   1.99975
H    -1.12126   1.26994  -1.56498
H     0.39423   1.99166   0.88885
H     3.73372   0.21399  -1.57558
H     5.89285   0.06752  -0.38611
H     6.04677   0.69056   2.02932
H     3.99415   1.44575   3.23631
H     1.83737   1.55905   2.08241
H     0.76668  -1.69290  -0.91366
H     1.59981  -1.21477   1.68833
H     0.33102  -3.58966   2.02742
H    -2.32566  -2.95901   2.03204
H    -2.40166  -0.27506   1.65900
