24
Generated by autodE on: 2022-10-07. E = -609.450261 Ha
C     4.88951   0.07516  -0.16711
N     3.63922  -0.63911  -0.01975
C     2.44642  -0.00582  -0.08022
O     2.35645   1.22560  -0.27171
C     1.26161  -0.83746   0.08861
N     0.09859  -0.20260   0.02664
C    -1.15941  -0.64356   0.13688
C    -1.41774  -2.08899   0.37116
C    -2.15615   0.39707   0.00756
O    -1.89665   1.58596  -0.18949
O    -3.42069  -0.05777   0.12451
C    -4.46248   0.91446   0.00857
H     4.94272   0.59620  -1.13674
H     5.71779  -0.64151  -0.10875
H     5.02148   0.82985   0.62579
H     3.65502  -1.63937   0.14849
H     1.29550  -1.91189   0.25738
H     0.19077   0.81304  -0.13635
H    -2.49250  -2.28979   0.43831
H    -0.99592  -2.70490  -0.44451
H    -0.93738  -2.43178   1.30627
H    -4.43613   1.40138  -0.97785
H    -4.37047   1.68276   0.79095
H    -5.40460   0.36670   0.13086
