10
Generated by autodE on: 2022-10-07. E = -455.046575 Ha
O     2.16796  -0.69127   0.02300
C     1.35537  -0.17413  -0.78607
O     1.11879  -0.55577  -1.96173
C     0.66583   1.10302  -0.34267
C    -0.49530   1.22121   0.32280
C    -1.36887   0.08102   0.79066
O    -2.39479   0.40578   1.45459
O    -1.03080  -1.10081   0.49847
H     1.20259   2.02094  -0.62014
H    -0.87022   2.22001   0.57479
