33
Generated by autodE on: 2022-06-17. E = -839.639328 Ha
C     4.21780   0.95754  -0.54150
N     2.92750   0.29560  -0.50622
C     1.94147   0.72004   0.29744
O     2.06527   1.65569   1.09410
C     0.62241  -0.00943   0.17386
N     0.58949  -1.24180  -0.62808
C    -0.78666  -1.56631  -0.34624
C    -1.26788  -2.92821  -0.74698
O    -0.86782  -1.45036   1.15088
C     0.02371  -0.49998   1.50050
O     0.22615  -0.16138   2.63930
C    -1.52236  -0.33164  -0.89956
C    -2.92250  -0.14624  -0.37891
O    -3.81959   0.31758  -1.05358
C    -0.52855   0.84339  -0.51681
C    -1.12598   1.90065   0.41444
C    -0.00330   1.51647  -1.78529
H     4.63019   1.05018   0.47373
H     4.90664   0.36312  -1.15363
H     4.14100   1.96971  -0.97184
H     2.71660  -0.41966  -1.19469
H     1.20827  -1.95555  -0.23191
H    -1.19340  -3.03419  -1.83824
H    -2.31799  -3.06293  -0.45085
H    -0.65733  -3.70576  -0.26508
H    -1.58732  -0.41503  -1.99182
H    -3.10293  -0.44382   0.67853
H    -0.34496   2.60883   0.72415
H    -1.91005   2.46137  -0.11530
H    -1.57443   1.47455   1.32296
H     0.68948   2.33452  -1.53528
H     0.51207   0.80014  -2.43927
H    -0.84817   1.94746  -2.34359
