14
Generated by autodE on: 2022-06-17. E = -270.683227 Ha
C    -1.51142  -1.39079  -1.14147
C    -0.66134  -0.41091  -0.39614
C    -1.34575   0.84481   0.06282
C     0.65413  -0.67566  -0.16639
C     1.58778   0.18818   0.54067
O     1.34321   1.28531   1.03746
H    -2.36981  -1.69408  -0.51644
H    -1.94439  -0.90761  -2.03514
H    -0.95591  -2.28708  -1.45005
H    -1.26544   0.96084   1.15520
H    -0.86316   1.73555  -0.37029
H    -2.40788   0.84414  -0.21910
H     1.07541  -1.61547  -0.53506
H     2.62205  -0.22718   0.61668
