33
Generated by autodE on: 2022-06-17. E = -839.597932 Ha. Imaginary frequency = -498.7 cm-1
C     3.88339   1.73894   0.96450
N     2.62702   1.01763   0.98948
C     2.19472   0.31338  -0.07455
O     2.82130   0.22778  -1.14076
C     0.88120  -0.33266   0.08047
N     0.44501  -1.29980  -0.81669
C    -0.82809  -1.60647  -0.43001
C    -1.60795  -2.72310  -1.01830
O    -0.84992  -1.47374   0.95415
C     0.18410  -0.61188   1.31099
O     0.32369  -0.21096   2.45153
C    -1.70690   0.18121  -0.92384
C    -2.98668   0.06148  -0.23141
O    -3.99087  -0.43346  -0.73467
C    -0.72720   1.16012  -0.53354
C    -0.91000   2.04612   0.67127
C     0.04626   1.80011  -1.65929
H     3.92121   2.43149   0.10960
H     3.97961   2.31604   1.89212
H     4.74324   1.05371   0.88320
H     2.06836   0.99103   1.83971
H     0.69160  -1.24100  -1.80353
H    -1.25693  -3.68126  -0.60349
H    -2.67662  -2.61008  -0.79530
H    -1.46783  -2.72845  -2.10772
H    -1.78296  -0.02768  -1.99655
H    -3.01830   0.41658   0.82218
H     0.06358   2.42326   1.01692
H    -1.51581   2.92446   0.38565
H    -1.40708   1.55622   1.51682
H     0.39627   1.06499  -2.39880
H    -0.62304   2.50268  -2.18823
H     0.90603   2.37899  -1.29395
