39
Generated by autodE on: 2022-06-25. E = -977.040287 Ha
C    -3.58874   3.34759  -1.00983
O    -2.73221   2.34072  -0.45806
C    -1.74913   1.88979  -1.24703
O    -1.57976   2.28361  -2.39750
C    -0.91352   0.86705  -0.61176
N     0.01810   0.38595  -1.44155
C     1.06596  -0.45331  -1.35780
C     1.69258  -0.68053  -2.65827
C     2.93989  -1.51960  -2.74328
O     1.20526  -0.16620  -3.67983
C     1.56857  -0.97899  -0.07793
C     1.85525  -0.10291   0.98634
C     2.27536  -0.59768   2.22017
C     2.42607  -1.97568   2.41084
C     2.16475  -2.85396   1.35457
C     1.73883  -2.36052   0.12012
C    -1.12287   0.37209   0.75642
C    -1.17369   1.26151   1.84524
C    -1.29976   0.77861   3.14801
C    -1.38213  -0.59791   3.38407
C    -1.35588  -1.48927   2.30638
C    -1.23094  -1.00942   1.00317
H    -4.30523   3.59946  -0.21937
H    -3.00820   4.23775  -1.29311
H    -4.11895   2.96281  -1.89328
H    -0.07769   0.74610  -2.40910
H     2.67220  -2.58887  -2.71835
H     3.62285  -1.33395  -1.90282
H     3.44411  -1.31220  -3.69661
H     1.73603   0.97232   0.84458
H     2.48240   0.09515   3.03891
H     2.74811  -2.36322   3.38016
H     2.27908  -3.93114   1.49659
H     1.50377  -3.05309  -0.68992
H    -1.08647   2.33410   1.66558
H    -1.32167   1.48012   3.98526
H    -1.47039  -0.97493   4.40560
H    -1.42785  -2.56497   2.48183
H    -1.20902  -1.70911   0.16673
