12
Generated by autodE on: 2022-06-25. E = -381.636097 Ha
O    -1.55897  -2.15858   0.14330
C    -0.84164  -1.16585   0.07643
C    -1.42177   0.19792   0.02158
C    -0.63614   1.28674  -0.04834
C     0.84164   1.16587  -0.07602
O     1.55897   2.15857  -0.14351
C     1.42177  -0.19793  -0.02162
C     0.63614  -1.28674   0.04830
H    -2.51217   0.26194   0.04293
H    -1.04067   2.30072  -0.08900
H     2.51217  -0.26195  -0.04322
H     1.04066  -2.30074   0.08871
