51
Generated by autodE on: 2022-06-25. E = -1358.669562 Ha. Imaginary frequency = -391.3 cm-1
C    -4.82071   1.37016   1.16185
O    -3.64037   0.68222   0.71476
C    -2.48275   1.09588   1.20821
O    -2.36116   1.98804   2.02723
C    -1.30896   0.39628   0.57514
C    -1.52683  -1.04260   0.17369
C    -1.12967  -1.60225  -1.04730
C    -1.27454  -2.97161  -1.28230
C    -1.82075  -3.80338  -0.30303
C    -2.23035  -3.25433   0.91572
C    -2.08567  -1.88719   1.15001
N    -0.14031   0.74660   1.21808
C     1.10564   0.55695   0.72581
C     2.07295   1.57364   1.27631
C     3.52926   1.44062   0.96727
O     1.63012   2.50018   1.94839
C     1.58920  -0.79794   0.35076
C     1.24087  -1.88296   1.17502
C     1.67458  -3.17330   0.87105
C     2.47868  -3.39728  -0.25010
C     2.86189  -2.31748  -1.05273
C     2.42638  -1.02639  -0.75325
C     0.38857   1.38104  -1.41485
C     1.23212   2.55882  -1.35655
O     2.38902   2.59128  -1.80600
C     0.64828   3.77658  -0.73206
C    -0.67307   3.88307  -0.50241
C    -1.59970   2.79377  -0.87968
O    -2.81014   2.99696  -0.95251
C    -1.01242   1.45550  -1.17033
H    -4.95278   1.23208   2.24419
H    -5.65499   0.91738   0.61499
H    -4.74317   2.44058   0.92890
H    -0.67698  -0.99116  -1.82410
H    -0.94714  -3.38747  -2.23751
H    -1.92761  -4.87468  -0.48772
H    -2.66015  -3.89262   1.69095
H    -2.39144  -1.47422   2.11379
H    -0.21602   1.63249   1.73742
H     3.68314   1.58849  -0.11399
H     4.08620   2.20759   1.51986
H     3.90029   0.43715   1.21993
H     0.61987  -1.71086   2.05387
H     1.37841  -4.00642   1.51219
H     2.81162  -4.40847  -0.49486
H     3.49888  -2.48156  -1.92479
H     2.72219  -0.19365  -1.39108
H     0.78000   0.54751  -1.99546
H     1.34297   4.59255  -0.51833
H    -1.12676   4.78982  -0.09531
H    -1.67896   0.82754  -1.76398
