53
Generated by autodE on: 2022-06-03. E = -1189.633111 Ha
C     0.69278   3.62395   6.73640
C    -0.39768   4.21700   5.90109
O    -0.28966   4.46741   4.71750
C    -1.75744   4.45230   6.60416
C    -2.83546   4.78135   5.53022
C    -3.42874   3.61049   4.80547
O    -3.18994   5.92709   5.33839
O    -2.06020   3.18340   7.21442
N    -2.77271   3.47080   8.41754
C    -3.99215   2.91334   8.40705
N    -4.98208   2.29560   8.39136
C    -2.47977   4.83301   8.76409
C    -1.77586   5.43237   7.78672
C    -1.11957   6.81964   7.82987
C    -2.17635   7.91514   8.08586
C    -0.44617   7.16460   6.48570
C     0.03360   6.88216   8.88009
C    -0.19670   6.64036  10.37967
C    -0.40873   5.17346  10.81586
C    -1.84919   4.79691  11.17987
C    -2.86562   5.29089  10.14214
C    -4.32592   4.97037  10.43013
C    -5.30734   5.57394   9.62483
C    -6.65827   5.27900   9.80305
C    -7.05136   4.37596  10.79808
C    -6.08443   3.78478  11.61455
C    -4.72896   4.08094  11.43343
H     1.65948   3.75394   6.23340
H     0.48676   2.54689   6.85247
H     0.70854   4.06045   7.74498
H    -4.17182   3.13518   5.46862
H    -2.67018   2.85100   4.56997
H    -3.93479   3.95840   3.89545
H    -2.67843   7.82554   9.05693
H    -2.94833   7.88623   7.30307
H    -1.69314   8.90415   8.05770
H    -0.08729   8.20353   6.52586
H    -1.14012   7.07780   5.64136
H     0.43261   6.53425   6.29278
H     0.46544   7.89116   8.77099
H     0.81804   6.18364   8.54482
H    -1.01230   7.28020  10.75686
H     0.71078   7.01623  10.87835
H    -0.04499   4.50515  10.01764
H     0.22113   4.95756  11.69309
H    -1.92240   3.70481  11.30108
H    -2.12283   5.24550  12.14907
H    -2.79747   6.38172  10.12579
H    -4.99782   6.26740   8.83808
H    -7.40789   5.75060   9.16307
H    -8.10858   4.13792  10.93739
H    -6.38383   3.08268  12.39647
H    -3.98793   3.59854  12.07150
