17
Generated by autodE on: 2022-07-27. E = -567.524955 Ha
C     1.84883  -2.20996   1.04339
C     1.51066  -1.27660  -0.07237
O     2.10872  -1.20369  -1.13282
C     0.34760  -0.34794   0.11316
O    -0.20235  -0.39349   1.26394
N    -1.28024   0.27986   1.76747
C    -1.96534   0.97951   0.87631
N    -2.69181   1.61029   0.20229
C     0.05485   0.69555  -0.96379
C    -0.60169   0.25027  -2.22004
O     0.45313   1.81325  -0.71092
H     2.70598  -2.82807   0.74978
H     0.98061  -2.84515   1.28058
H     2.08750  -1.63444   1.95241
H    -1.54074  -0.27363  -1.98160
H     0.05951  -0.47721  -2.71937
H    -0.78770   1.11244  -2.87354
