17
Generated by autodE on: 2022-06-03. E = -567.524888 Ha
C    -1.37227   1.86785  -0.15676
C    -0.75762   0.72357   0.56476
O    -1.11382   0.26441   1.63015
C     0.49766   0.08011  -0.02005
O     0.57415  -1.12334  -0.44035
N    -0.40251  -2.04695  -0.68663
C    -1.63848  -1.57423  -0.64600
N    -2.77862  -1.29466  -0.68944
C     1.81235   0.79330   0.09679
C     3.03894   0.08448  -0.37693
O     1.79169   1.91373   0.57797
H    -0.64325   2.69487  -0.18051
H    -2.29232   2.18218   0.35281
H    -1.57563   1.58221  -1.20077
H     3.91410   0.72192  -0.20197
H     2.94510  -0.14952  -1.44964
H     3.15020  -0.87374   0.15516
