36
Generated by autodE on: 2022-06-03. E = -621.978616 Ha
C    -3.21000  -1.98399  -1.77271
C    -1.81450  -2.06355  -1.12689
C    -1.61568  -3.45116  -0.49676
C    -1.64111  -0.98059  -0.14810
C    -1.27043   0.07404   0.32621
C    -0.54027   1.33945   0.40000
C     0.72906   1.27080   1.24035
C     1.27167   2.46251   1.74737
C     2.46543   2.45511   2.47203
C     3.13910   1.25028   2.70301
C     2.60642   0.05845   2.20456
C     1.40960   0.06915   1.47966
C    -0.22817   1.72179  -1.08476
C     0.40385   0.61723  -1.95696
C    -0.53568  -0.36272  -2.71815
C    -0.69642  -1.80351  -2.18687
H    -3.99857  -2.11899  -1.01642
H    -3.31836  -2.77722  -2.52939
H    -3.37227  -1.01270  -2.26319
H    -1.66093  -4.22953  -1.27498
H    -2.40091  -3.66244   0.24572
H    -0.63816  -3.52174   0.00468
H    -1.16869   2.14100   0.81972
H     0.74839   3.40641   1.57100
H     2.86958   3.39248   2.86237
H     4.07180   1.24174   3.27213
H     3.12236  -0.88853   2.38208
H     0.99511  -0.86705   1.10106
H    -1.16788   2.05997  -1.55178
H     0.44239   2.59572  -1.05898
H     1.13542   0.04549  -1.36041
H     1.00188   1.14099  -2.71954
H    -1.52744   0.10280  -2.84852
H    -0.13022  -0.46090  -3.73782
H    -0.90305  -2.47876  -3.03481
H     0.26455  -2.13164  -1.75593
