48
Generated by autodE on: 2022-06-04. E = -3705.688241 Ha
C     1.84537   2.38738  -2.89658
O     1.77314   1.38134  -1.87321
C     0.56733   1.11457  -1.37856
O    -0.43702   1.67869  -1.75973
C     0.54216  -0.12789  -0.44679
C     1.92995  -0.51489   0.06249
C     2.76895   0.46052   0.62439
C     3.98437   0.10296   1.20996
C     4.38458  -1.23724   1.24004
C     3.55222  -2.21381   0.68855
C     2.33035  -1.85495   0.11114
N    -0.09634  -1.17967  -1.24213
C     0.51873  -1.49584  -2.52220
C    -1.56555  -1.13184  -1.11625
C    -2.16954  -2.51867  -1.39084
C    -2.26413  -0.20413  -2.16565
C    -3.33978   0.75903  -1.73809
O    -2.00756  -0.36322  -3.34788
C    -1.77715  -0.64548   0.33860
C    -1.87304  -1.77541   1.41612
C    -2.22182  -1.10576   2.73383
C    -1.09824  -0.49809   3.12916
C    -0.07368  -0.81245   2.04412
O    -0.48491  -2.11006   1.61095
C    -0.44598   0.03948   0.76999
Br   -0.58734   1.93357   1.33566
H     1.22773   2.09818  -3.75858
H     2.90105   2.44719  -3.18406
H     1.49985   3.35452  -2.50504
H     2.46966   1.50896   0.61810
H     4.62217   0.87634   1.64453
H     5.33794  -1.51703   1.69449
H     3.84874  -3.26518   0.71270
H     1.67024  -2.62435  -0.28603
H     0.06987  -2.41023  -2.93207
H     1.58956  -1.68979  -2.37233
H     0.41965  -0.70174  -3.28311
H    -3.24369  -2.52317  -1.15262
H    -2.05983  -2.77722  -2.45207
H    -1.66451  -3.28572  -0.78939
H    -4.14677   0.21417  -1.22148
H    -3.74619   1.25668  -2.62822
H    -2.94477   1.51102  -1.04200
H    -2.64162   0.01337   0.42109
H    -2.46010  -2.65316   1.13678
H    -3.21625  -1.07316   3.17907
H    -0.93007   0.15043   3.98699
H     0.98065  -0.78880   2.32678
