13
Generated by autodE on: 2022-06-04. E = -2881.097877 Ha
Br   -1.29739   1.08044   0.61891
C    -0.16707  -0.20750  -0.14327
C    -0.22205  -1.54024  -0.09041
C     1.08699  -1.98165  -0.78878
C     2.26218  -1.58726   0.13899
C     2.30655  -0.25311   0.09284
C     1.15853   0.14341  -0.86618
O     1.20437  -0.95058  -1.79516
H    -0.94126  -2.19649   0.39591
H     1.10104  -2.98660  -1.22407
H     2.85472  -2.28555   0.72919
H     2.94309   0.44741   0.63205
H     1.21283   1.11982  -1.35915
