35
Generated by autodE on: 2022-07-27. E = -824.512223 Ha
C    -2.46141   2.47171   1.16623
O    -1.85063   1.20737   0.90175
C    -0.51470   1.20569   0.75466
O     0.16854   2.18069   1.02891
C     0.04127  -0.10342   0.37294
C     1.44605  -0.38099   0.70032
C     2.27146  -1.05723  -0.22323
C     3.60958  -1.31846   0.06994
C     4.15867  -0.90202   1.28728
C     3.35481  -0.22089   2.20864
C     2.01527   0.03760   1.92136
N    -0.72084  -1.03902  -0.24907
C    -0.46732  -2.46749   0.03913
C    -1.71153  -0.76076  -1.15318
C    -2.73453  -1.81620  -1.45297
C    -1.60043   0.42650  -1.96677
C    -2.41445   0.47298  -3.24512
O    -0.82935   1.37310  -1.71071
H    -3.54255   2.28856   1.18518
H    -2.13138   2.87498   2.13509
H    -2.21592   3.19055   0.37062
H     1.86074  -1.36547  -1.18679
H     4.23066  -1.84008  -0.66220
H     5.20787  -1.10327   1.51549
H     3.77368   0.10566   3.16351
H     1.39700   0.55809   2.65367
H    -0.21003  -3.00878  -0.87968
H    -1.37955  -2.90137   0.46756
H     0.33680  -2.55871   0.77161
H    -3.10661  -2.28296  -0.52846
H    -3.60046  -1.37826  -1.96264
H    -2.34647  -2.62770  -2.09470
H    -2.05806   1.31564  -3.85198
H    -2.34877  -0.45746  -3.82826
H    -3.47902   0.63892  -3.00890
