35
Generated by autodE on: 2022-06-04. E = -824.512738 Ha
C    -1.24639   3.35735   0.48717
O    -1.09529   1.98351   0.11739
C    -0.12063   1.30202   0.73827
O     0.58866   1.80916   1.59147
C    -0.09986  -0.12251   0.34193
C    -1.32731  -0.77636  -0.13516
C    -1.28036  -1.66932  -1.22582
C    -2.43954  -2.29069  -1.69049
C    -3.67131  -2.03052  -1.08108
C    -3.73339  -1.14131  -0.00175
C    -2.57665  -0.52056   0.46721
N     1.04303  -0.82384   0.50699
C     0.96521  -2.26348   0.83246
C     2.30113  -0.28838   0.37036
C     3.46309  -1.01094   0.98762
C     2.49917   0.78579  -0.56760
C     3.91881   1.05880  -1.02708
O     1.56978   1.45719  -1.06516
H    -1.48064   3.45157   1.55770
H    -0.32553   3.91674   0.26600
H    -2.07698   3.74353  -0.11544
H    -0.32670  -1.86346  -1.72073
H    -2.38178  -2.97517  -2.54017
H    -4.57930  -2.51545  -1.44684
H    -4.69051  -0.93526   0.48328
H    -2.63508   0.16122   1.31735
H     1.45185  -2.86178   0.05216
H     1.48005  -2.43157   1.78634
H    -0.07847  -2.56278   0.94400
H     3.23540  -1.32547   2.01750
H     4.33830  -0.35307   1.04096
H     3.76274  -1.91588   0.42858
H     4.49131   1.54338  -0.21822
H     4.46079   0.14456  -1.31088
H     3.87992   1.74502  -1.88329
