59
Generated by autodE on: 2022-06-24. E = -1400.675496 Ha
C     4.92262  -1.34618  -2.17540
O     3.63880  -1.42651  -1.53345
C     3.24446  -0.36468  -0.84043
O     3.90539   0.64863  -0.72636
C     1.87445  -0.55583  -0.15434
C     2.14206  -1.37642   1.11705
C     2.51902  -2.72553   1.02265
C     2.77246  -3.47374   2.17401
C     2.65686  -2.88370   3.43738
C     2.28532  -1.54072   3.53729
C     2.03084  -0.79106   2.38400
C     0.82957  -1.20972  -1.10830
C    -0.36179  -0.22196  -1.17320
C    -1.09103  -0.25647  -2.51425
C    -1.29056  -0.48906  -0.00153
C    -2.63431  -0.39953  -0.01557
C    -3.45472  -0.60767   1.16705
C    -4.80266  -0.50095   1.25184
C    -5.51240  -0.73400   2.55625
C    -5.70192  -0.14859   0.10027
C     0.36770   1.14575  -0.87249
C    -0.66640   2.17522  -0.42819
O    -1.44760   2.67842  -1.21150
O    -0.65882   2.42110   0.87502
C    -1.70787   3.26568   1.37607
C     1.17941   1.71389  -2.04977
O     1.66193   1.06368  -2.95404
O     1.43664   3.00898  -1.85955
C     2.38174   3.62247  -2.75259
N     1.30933   0.75489   0.16329
H     5.71334  -1.18721  -1.42871
H     5.06522  -2.30590  -2.68446
H     4.92874  -0.52210  -2.90271
H     2.61564  -3.19516   0.04256
H     3.05934  -4.52414   2.08317
H     2.85440  -3.46936   4.33832
H     2.18912  -1.06970   4.51862
H     1.72758   0.25244   2.46523
H     0.50762  -2.19013  -0.73817
H     1.25663  -1.34830  -2.10559
H    -0.38931  -0.13024  -3.34688
H    -1.84649   0.53794  -2.57997
H    -1.59970  -1.22447  -2.63392
H    -0.79541  -0.72967   0.94461
H    -3.14446  -0.14265  -0.94685
H    -2.90708  -0.86784   2.08085
H    -4.81588  -0.98664   3.36917
H    -6.24898  -1.55184   2.46025
H    -6.08733   0.16104   2.85441
H    -6.27891   0.76394   0.33236
H    -5.16716   0.01697  -0.84377
H    -6.44629  -0.94809  -0.06153
H    -1.52214   3.36974   2.45097
H    -2.68492   2.79167   1.20191
H    -1.68017   4.24827   0.88483
H     2.02641   3.55783  -3.79043
H     2.45618   4.66963  -2.43878
H     3.35734   3.12369  -2.66204
H     2.02825   1.45371   0.34534
