23
Generated by autodE on: 2022-06-24. E = -351.521380 Ha
C     3.37138  -0.93485   1.43509
C     2.49342  -0.39885   0.55883
C     2.96298   0.31164  -0.68499
C     1.05715  -0.50210   0.80922
C     0.07735  -0.00949   0.01030
C    -1.33480  -0.14052   0.30608
C    -2.37168   0.32345  -0.43639
C    -2.22176   1.07645  -1.72788
C    -3.79137   0.10600   0.00554
H     3.02723  -1.44999   2.33726
H     4.45096  -0.87249   1.27235
H     2.61007   1.35621  -0.70298
H     4.06012   0.31674  -0.75066
H     2.56388  -0.17045  -1.59289
H     0.76782  -1.02761   1.72733
H     0.35760   0.51533  -0.90699
H    -1.57636  -0.67519   1.23273
H    -1.17849   1.22934  -2.03260
H    -2.70561   2.06618  -1.65047
H    -2.74369   0.54456  -2.54296
H    -3.85173  -0.45193   0.95151
H    -4.36044  -0.44684  -0.76343
H    -4.31313   1.07132   0.13521
