36
Generated by autodE on: 2022-07-27. E = -1049.113539 Ha
C    -3.51205  -0.40620   2.95052
O    -2.40615  -0.33452   2.04751
C    -1.16929  -0.56416   2.57077
O    -1.01894  -0.87468   3.74313
C    -0.13536  -0.37604   1.56685
N    -0.58191   0.06139   0.33371
C    -0.02691   0.09912  -0.85828
C     1.18820  -0.73738  -1.13115
O     1.26829  -1.90054  -0.79614
O     2.09003  -0.09056  -1.85610
C     3.27851  -0.82147  -2.20132
C    -0.68864   0.82983  -1.93763
C    -0.50562   0.44452  -3.28347
C    -1.17393   1.11556  -4.30465
C    -2.02939   2.18278  -4.00860
C    -2.21082   2.57962  -2.67978
C    -1.54424   1.91571  -1.65167
C     1.28649  -0.37558   1.83878
O     2.13168   0.06693   1.06096
O     1.62486  -0.87662   3.03790
C     3.01465  -0.82803   3.37776
H    -4.40555  -0.18957   2.35297
H    -3.40885   0.33581   3.75628
H    -3.58861  -1.41099   3.39123
H    -1.54149   0.42265   0.37868
H     3.80931  -1.12352  -1.28746
H     3.02158  -1.71135  -2.79305
H     3.89322  -0.13336  -2.79192
H     0.14504  -0.39476  -3.53215
H    -1.02948   0.80026  -5.34018
H    -2.54707   2.70929  -4.81338
H    -2.86303   3.42276  -2.44249
H    -1.66630   2.26602  -0.62434
H     3.09506  -1.27884   4.37409
H     3.37606   0.21055   3.40453
H     3.61342  -1.40081   2.65434
