36
Generated by autodE on: 2022-06-24. E = -1049.114413 Ha
C     3.26983  -0.40865   3.05604
O     3.00425  -0.38339   1.64943
C     1.74400  -0.09818   1.28497
O     0.85821   0.09108   2.11870
C     1.52782  -0.01288  -0.14392
N     0.24811   0.19242  -0.62057
C    -0.94946  -0.06209  -0.14410
C    -1.10205  -1.02042   0.99995
O    -0.55271  -2.10185   1.02266
O    -1.97583  -0.59172   1.90037
C    -2.22795  -1.46386   3.01464
C    -2.12831   0.46120  -0.83227
C    -3.36259  -0.21964  -0.75839
C    -4.47190   0.25790  -1.45216
C    -4.37582   1.42089  -2.22476
C    -3.16036   2.10931  -2.29630
C    -2.04607   1.64000  -1.60309
C     2.50651   0.17562  -1.20431
O     2.16673   0.44622  -2.35850
O     3.79036   0.04715  -0.85089
C     4.75980   0.24583  -1.88629
H     4.33309  -0.65749   3.15544
H     2.65480  -1.17178   3.55530
H     3.06861   0.57238   3.51113
H     0.28181   0.61509  -1.56024
H    -2.96030  -0.94479   3.64270
H    -2.63442  -2.42312   2.66427
H    -1.29672  -1.63670   3.57232
H    -3.44972  -1.13626  -0.17328
H    -5.41803  -0.28428  -1.39340
H    -5.24955   1.79446  -2.76327
H    -3.08295   3.02720  -2.88290
H    -1.11629   2.21163  -1.63592
H     4.61541  -0.47915  -2.70077
H     5.73724   0.09135  -1.41404
H     4.69412   1.26574  -2.29268
