59
Generated by autodE on: 2022-06-24. E = -1400.625877 Ha. Imaginary frequency = -295.6 cm-1
C     2.41125  -4.02318  -4.35256
O     1.39500  -3.25621  -3.69079
C     0.35134  -3.93643  -3.23077
O     0.17898  -5.12328  -3.41930
C    -0.76602  -3.07332  -2.65735
C    -1.65269  -2.59810  -3.77720
C    -1.12820  -1.77537  -4.79056
C    -1.93873  -1.33077  -5.83554
C    -3.28345  -1.70977  -5.89781
C    -3.80760  -2.54457  -4.90827
C    -3.00068  -2.98815  -3.85878
C     0.19363  -1.32866  -1.87259
C    -0.09713  -1.20189  -0.50380
C     0.99154  -1.31212   0.52990
C    -1.41023  -0.82658  -0.05085
C    -2.50012  -0.61459  -0.84935
C    -3.81813  -0.36144  -0.32903
C    -4.95359  -0.16842  -1.05284
C    -6.27337   0.01847  -0.36348
C    -5.00800  -0.14546  -2.55209
C    -0.93008  -3.83850  -0.32093
C    -1.90417  -3.77553   0.76431
O    -1.68227  -3.80911   1.96661
O    -3.16215  -3.60808   0.28287
C    -4.20076  -3.38331   1.23869
C     0.45582  -4.19891  -0.12940
O     1.30472  -4.23279  -1.02191
O     0.78344  -4.49392   1.14363
C     2.15421  -4.81691   1.38969
N    -1.43239  -3.55792  -1.57724
H     3.16999  -3.30166  -4.67599
H     1.99238  -4.55261  -5.22002
H     2.84932  -4.74910  -3.65271
H    -0.08028  -1.47706  -4.75782
H    -1.51433  -0.68370  -6.60647
H    -3.91652  -1.36187  -6.71708
H    -4.85240  -2.85953  -4.95042
H    -3.43393  -3.65934  -3.11537
H    -0.38393  -0.72389  -2.57010
H     1.23230  -1.49351  -2.15586
H     1.86069  -1.85977   0.14164
H     0.63877  -1.79787   1.45146
H     1.33744  -0.29986   0.80705
H    -1.55424  -0.77685   1.03404
H    -2.38040  -0.64445  -1.93477
H    -3.90707  -0.35757   0.76277
H    -6.17966  -0.01730   0.73153
H    -6.98790  -0.76289  -0.67950
H    -6.73200   0.98267  -0.64713
H    -5.63177  -0.97698  -2.92369
H    -5.49637   0.78218  -2.89819
H    -4.02551  -0.21785  -3.03311
H    -5.09899  -3.13930   0.65969
H    -3.94423  -2.54793   1.90447
H    -4.37144  -4.28859   1.84027
H     2.80988  -3.96988   1.13998
H     2.22101  -5.03641   2.46217
H     2.46226  -5.69682   0.80590
H    -2.40500  -3.25888  -1.51315
