57
Generated by autodE on: 2022-06-22. E = -1026.547194 Ha
C     4.53537  -1.12492  -0.04091
C     4.05265   0.25261  -0.40282
C     4.99521   1.04390  -1.26648
C     2.85728   0.76563  -0.02358
C     1.84244   0.09626   0.77165
C     0.58371   0.55070   0.91760
C    -0.53847  -0.18327   1.62825
C    -0.03145  -0.85608   2.90614
C    -1.68444   0.80958   1.91194
C    -2.53260   0.85091   0.61336
C    -2.51048   2.19701  -0.09542
C    -3.29529   3.24933   0.40122
C    -3.26512   4.51136  -0.19727
C    -2.45255   4.73931  -1.31392
C    -1.67519   3.69440  -1.82232
C    -1.70446   2.43347  -1.21697
N    -2.01218  -0.23627  -0.20963
C    -2.96643  -0.76701  -1.15652
C    -1.25867  -1.19100   0.61870
C    -2.20410  -2.16084   1.35670
C    -0.23593  -1.96159  -0.21467
C     0.21230  -1.46250  -1.44865
C     1.23788  -2.09191  -2.15631
C     1.84629  -3.24206  -1.64287
C     1.40187  -3.75990  -0.42396
C     0.36637  -3.13041   0.27626
H     4.70004  -1.72116  -0.95593
H     3.84062  -1.68280   0.59949
H     5.51242  -1.07022   0.47094
H     4.59596   2.03880  -1.51350
H     5.97161   1.17497  -0.76596
H     5.20570   0.50912  -2.21025
H     2.59734   1.76971  -0.38117
H     2.10882  -0.86603   1.21513
H     0.32032   1.49726   0.43476
H     0.46945  -0.11235   3.54481
H     0.69514  -1.65276   2.68965
H    -0.85479  -1.29626   3.48549
H    -2.29967   0.44773   2.74646
H    -1.30113   1.80067   2.19086
H    -3.58985   0.65858   0.88875
H    -3.93733   3.07411   1.26946
H    -3.88182   5.31917   0.20505
H    -2.42997   5.72429  -1.78658
H    -1.04154   3.86031  -2.69746
H    -1.10104   1.61451  -1.61043
H    -3.89229  -1.15525  -0.68211
H    -2.51821  -1.58176  -1.74382
H    -3.26922   0.02335  -1.86242
H    -1.67656  -2.81383   2.06221
H    -2.96959  -1.60977   1.92228
H    -2.71902  -2.80857   0.63214
H    -0.23665  -0.54933  -1.83780
H     1.57198  -1.67455  -3.10956
H     2.65675  -3.73077  -2.18892
H     1.86275  -4.66015  -0.00973
H     0.04598  -3.55352   1.22835
