23
Generated by autodE on: 2022-06-22. E = -351.521385 Ha
C     3.71706  -0.08022   0.68879
C     2.58305  -0.10538  -0.04557
C     2.62380  -0.25717  -1.54467
C     1.28387   0.01433   0.61312
C     0.07762  -0.00010  -0.00781
C    -1.18351   0.11971   0.69498
C    -2.42581   0.10974   0.14896
C    -2.70461  -0.03175  -1.32048
C    -3.64726   0.24387   1.01359
H     4.70187  -0.16888   0.22170
H     3.68434   0.03006   1.77715
H     2.07192  -1.15539  -1.86814
H     3.65775  -0.33724  -1.90876
H     2.14601   0.60190  -2.04441
H     1.30840   0.12354   1.70406
H     0.04432  -0.10890  -1.09532
H    -1.11071   0.22897   1.78386
H    -3.33921  -0.91647  -1.50546
H    -3.27908   0.83783  -1.68578
H    -1.79945  -0.12598  -1.93409
H    -4.31163  -0.63044   0.89107
H    -3.39371   0.34166   2.07938
H    -4.24416   1.12412   0.71407
