34
Generated by autodE on: 2022-06-22. E = -674.959014 Ha
C    -0.66562  -1.36371  -1.08321
C    -0.10220   0.01327  -1.05006
C    -0.92423   1.17499  -1.37867
C    -0.73756   2.42136  -0.72990
C    -1.52603   3.52746  -1.04289
C    -2.54214   3.42925  -1.99981
C    -2.76011   2.20007  -2.63449
C    -1.97220   1.09241  -2.32829
N     1.19559   0.16577  -0.66922
C     2.01529   1.26726  -1.21034
C     1.87782  -0.72794   0.10198
C     1.36795  -1.47222   1.21447
C     2.20170  -2.47398   1.79062
C     1.81593  -3.18165   2.92206
C     0.58205  -2.92398   3.54200
C    -0.24771  -1.93559   3.00321
C     0.12155  -1.22875   1.85727
H    -1.46478  -1.43931  -1.83233
H    -1.10010  -1.69365  -0.11751
H     0.13069  -2.09070  -1.31865
H     0.01803   2.51464   0.05083
H    -1.35568   4.47218  -0.52016
H    -3.16279   4.29521  -2.24082
H    -3.55164   2.10390  -3.38208
H    -2.15726   0.15273  -2.85079
H     2.22086   2.02257  -0.44061
H     2.97173   0.83618  -1.53769
H     1.51956   1.72777  -2.07052
H     2.94952  -0.77854  -0.09782
H     3.16876  -2.68129   1.32423
H     2.48262  -3.94581   3.33104
H     0.27740  -3.48420   4.42879
H    -1.20499  -1.70855   3.48060
H    -0.53572  -0.44098   1.48782
