34
Generated by autodE on: 2022-07-28. E = -674.955894 Ha
C    -0.20645  -1.81274   1.83727
C     0.37227  -1.26569   0.57375
C     1.48031  -1.96827  -0.07569
C     2.61400  -1.31497  -0.61962
C     3.66595  -2.03742  -1.18238
C     3.63626  -3.43587  -1.21362
C     2.53634  -4.10333  -0.66208
C     1.48103  -3.38560  -0.10195
N    -0.15880  -0.11078   0.10102
C     0.23198   0.37120  -1.23978
C    -1.17159   0.54751   0.74221
C    -1.74088   1.83664   0.45776
C    -3.00665   2.11303   1.05693
C    -3.65057   3.33357   0.89448
C    -3.06896   4.35261   0.12507
C    -1.81809   4.11738  -0.45527
C    -1.15920   2.89809  -0.29305
H     0.34225  -2.70072   2.17040
H    -0.15819  -1.05890   2.64711
H    -1.27613  -2.08086   1.73552
H     2.69255  -0.22923  -0.56778
H     4.52763  -1.49960  -1.58616
H     4.46301  -3.99817  -1.65355
H     2.49537  -5.19551  -0.67587
H     0.62583  -3.92787   0.30608
H     0.56836  -0.47566  -1.84314
H     1.03513   1.11439  -1.18353
H    -0.64468   0.81808  -1.71770
H    -1.61824   0.00942   1.57149
H    -3.48097   1.33038   1.65532
H    -4.62260   3.49362   1.36916
H    -3.57565   5.31094  -0.00813
H    -1.33238   4.90485  -1.03832
H    -0.16719   2.79149  -0.72624
