57
Generated by autodE on: 2022-06-22. E = -1026.475449 Ha. Imaginary frequency = -307.4 cm-1
C     4.79437  -1.79819   0.44273
C     4.48663  -0.57493  -0.37646
C     5.45140  -0.30346  -1.49717
C     3.40083   0.21691  -0.17703
C     2.36235   0.06625   0.81605
C     1.22709   0.83227   0.83727
C     0.14686   0.76127   1.77745
C     0.29417  -0.12296   2.99166
C    -0.91934   1.67292   1.66459
C    -2.50015   0.92595   0.47994
C    -3.23093   2.11063  -0.00864
C    -4.54264   2.31945   0.46930
C    -5.27097   3.45874   0.12433
C    -4.70431   4.43055  -0.70704
C    -3.39702   4.25324  -1.17293
C    -2.66562   3.11713  -0.82302
N    -1.83734   0.02870  -0.34780
C    -1.56138   0.42254  -1.72927
C    -1.28645  -1.09692   0.19365
C    -1.94820  -1.67014   1.41938
C    -0.30826  -1.92982  -0.50611
C     0.71693  -1.41777  -1.34358
C     1.67009  -2.25409  -1.92744
C     1.66045  -3.62914  -1.68683
C     0.66854  -4.16101  -0.85249
C    -0.28933  -3.33227  -0.27478
H     5.80685  -1.73667   0.88169
H     4.79209  -2.69990  -0.19671
H     4.07967  -1.96701   1.25920
H     5.18010   0.59754  -2.06822
H     6.48301  -0.17474  -1.11983
H     5.49117  -1.15628  -2.20076
H     3.26503   1.05698  -0.87101
H     2.48226  -0.71679   1.56990
H     1.11685   1.58444   0.04447
H     1.11510   0.23654   3.64016
H     0.53810  -1.16624   2.73491
H    -0.62250  -0.13146   3.59807
H    -1.53975   1.86636   2.54475
H    -0.77110   2.54399   1.02066
H    -3.03760   0.43310   1.28385
H    -4.99437   1.56459   1.11821
H    -6.28779   3.58625   0.50406
H    -5.27204   5.32265  -0.98172
H    -2.93548   5.01386  -1.80767
H    -1.63750   3.02455  -1.17251
H    -2.44216   0.93317  -2.13278
H    -1.37479  -0.47003  -2.33288
H    -0.69737   1.09756  -1.80315
H    -1.31701  -2.43307   1.88511
H    -2.15507  -0.92372   2.19123
H    -2.91463  -2.14276   1.15640
H     0.79008  -0.35338  -1.53356
H     2.44446  -1.81420  -2.55994
H     2.41543  -4.27804  -2.13669
H     0.63630  -5.23537  -0.65440
H    -1.05492  -3.78752   0.35314
