50
Generated by autodE on: 2022-06-05. E = -1374.037828 Ha
C    -1.57177   4.48659   2.05486
N    -0.91345   3.45122   1.28633
C    -1.48381   2.28791   0.95578
O    -2.62796   1.92971   1.26504
C    -0.62741   1.35793   0.14277
N     0.52709   1.64448  -0.30049
C     1.09881   0.52942  -1.06036
C     1.38686   1.01617  -2.48252
C     2.35318   0.01880  -0.34649
C     3.37645  -0.62265  -1.06055
C     4.47613  -1.17135  -0.39436
C     4.57568  -1.07942   0.99638
C     3.56615  -0.43283   1.71513
C     2.46402   0.10839   1.04967
C    -0.05820  -0.57965  -1.10646
C     0.47578  -1.95685  -0.79807
O     0.51682  -2.47818   0.29701
O     0.97442  -2.52010  -1.90002
C     1.67539  -3.76253  -1.73018
C    -1.17832  -0.02759  -0.16711
C    -2.48580   0.09960  -0.96306
O    -3.44166  -0.63594  -0.91092
O    -2.39870   1.14465  -1.79002
C    -3.53108   1.40277  -2.63504
C    -1.38748  -0.82508   1.13085
O    -2.15613  -1.74383   1.27973
O    -0.59778  -0.35065   2.09273
C    -0.58795  -1.05955   3.33928
H    -2.53886   4.10894   2.40682
H    -1.74328   5.38590   1.44226
H    -0.95959   4.76976   2.92413
H     0.03197   3.60697   0.94633
H     0.47499   1.46216  -2.90497
H     2.18879   1.76797  -2.48155
H     1.68386   0.17789  -3.12671
H     3.31788  -0.71429  -2.14467
H     5.25919  -1.67124  -0.96929
H     5.43544  -1.50803   1.51667
H     3.63211  -0.35184   2.80276
H     1.67770   0.59310   1.62630
H    -0.43766  -0.60826  -2.13337
H     1.00014  -4.53089  -1.32829
H     2.52744  -3.62496  -1.04906
H     2.02725  -4.04803  -2.72783
H    -3.26088   2.27576  -3.23949
H    -3.73106   0.53621  -3.28078
H    -4.41707   1.62122  -2.02223
H    -1.58545  -1.03849   3.80017
H     0.13788  -0.53973   3.97454
H    -0.27569  -2.10044   3.17392
