26
Generated by autodE on: 2022-06-05. E = -611.368896 Ha
C     4.34401   0.37234  -0.16296
N     3.56709   0.58805  -1.36958
C     2.29331   0.19039  -1.53629
O     1.60613   0.44433  -2.53733
C     1.72753  -0.70344  -0.50062
N     0.93707  -0.36022   0.37137
C     0.01674  -0.12619   1.23268
C     0.39004   0.12592   2.66678
C    -1.38665  -0.13113   0.78121
C    -2.43645  -0.07380   1.71875
C    -3.76699  -0.09374   1.29519
C    -4.07565  -0.16852  -0.06612
C    -3.03885  -0.21789  -1.00637
C    -1.70896  -0.19467  -0.59143
H     5.41326   0.37667  -0.41204
H     4.09822  -0.60758   0.27310
H     4.15871   1.14581   0.60051
H     3.94333   1.18681  -2.10080
H     1.48134   0.15520   2.78163
H    -0.03033   1.08124   3.01872
H    -0.00865  -0.66919   3.31843
H    -2.21583  -0.02225   2.78564
H    -4.56815  -0.05179   2.03697
H    -5.11734  -0.18146  -0.39470
H    -3.26930  -0.26518  -2.07338
H    -0.90929  -0.20420  -1.33486
