24
Generated by autodE on: 2022-06-05. E = -762.577764 Ha
C     4.45989  -0.22446  -0.25066
O     3.19758  -0.90896  -0.26378
C     2.11282  -0.16866  -0.03622
O     2.13917   1.02922   0.17983
C     0.88092  -0.99234  -0.07795
C    -0.34137  -0.45737   0.06427
C    -0.58003   1.00565   0.32896
O    -0.75017   1.45728   1.43976
O    -0.62532   1.70885  -0.79650
C    -0.81565   3.12768  -0.66024
C    -1.54366  -1.34619   0.00792
O    -1.50305  -2.54859  -0.14517
O    -2.66663  -0.64108   0.13963
C    -3.90370  -1.37104   0.10505
H     5.21977  -0.98894  -0.44732
H     4.63064   0.24202   0.73029
H     4.48259   0.54845  -1.03251
H     0.98901  -2.06720  -0.23223
H    -0.84960   3.52596  -1.68038
H     0.02672   3.56644  -0.10625
H    -1.75665   3.34070  -0.13377
H    -4.01213  -1.88836  -0.85881
H    -3.93360  -2.10466   0.92316
H    -4.69610  -0.62499   0.23042
