50
Generated by autodE on: 2022-06-05. E = -1373.968775 Ha. Imaginary frequency = -99.6 cm-1
C    -2.03493   3.79492   2.56605
N    -1.24618   2.79020   1.87667
C    -1.21688   2.71780   0.53952
O    -1.79762   3.48902  -0.23193
C    -0.49887   1.55403  -0.01945
N     0.53986   1.38278  -0.61942
C     1.40119   0.66900  -1.29393
C     1.36181   0.75597  -2.79289
C     2.52677   0.05193  -0.58097
C     3.58691  -0.53001  -1.30313
C     4.63429  -1.16267  -0.63338
C     4.64224  -1.22846   0.76316
C     3.59427  -0.64995   1.48961
C     2.54753  -0.01345   0.82796
C    -0.60259  -1.18912  -1.05283
C     0.36845  -2.16028  -0.57669
O     0.54476  -2.48733   0.59196
O     1.08708  -2.69367  -1.58579
C     2.06070  -3.67931  -1.22513
C    -1.45698  -0.51479  -0.20305
C    -2.64439   0.22118  -0.71121
O    -3.56632   0.58803  -0.00252
O    -2.57230   0.48440  -2.01984
C    -3.59885   1.32751  -2.56357
C    -1.55212  -0.89463   1.25590
O    -2.36169  -1.69567   1.67014
O    -0.68136  -0.25461   2.03608
C    -0.61891  -0.66860   3.40956
H    -1.80902   4.79761   2.17622
H    -1.78967   3.76486   3.63422
H    -3.11494   3.61168   2.44159
H    -0.84170   2.01968   2.40145
H     0.39894   1.16298  -3.12644
H     2.17405   1.39891  -3.17124
H     1.49657  -0.24498  -3.22660
H     3.59358  -0.49504  -2.39245
H     5.44750  -1.61159  -1.20795
H     5.46179  -1.72773   1.28487
H     3.59196  -0.69793   2.58090
H     1.73246   0.42548   1.40387
H    -0.71950  -1.08000  -2.12847
H     1.56693  -4.57809  -0.82562
H     2.75995  -3.28517  -0.47554
H     2.59901  -3.92595  -2.14783
H    -3.37277   1.42433  -3.63157
H    -4.58968   0.87293  -2.42362
H    -3.56877   2.31239  -2.07652
H    -1.58710  -0.51081   3.90462
H     0.15452  -0.04716   3.87491
H    -0.34006  -1.73054   3.46511
