38
Generated by autodE on: 2022-06-18. E = -805.842808 Ha
C    -5.67759   0.13210  -0.43485
C    -4.60665  -0.07652   0.35768
C    -4.72211  -0.09142   1.85908
C    -3.28770  -0.29265  -0.24790
C    -2.14220  -0.51056   0.42401
C    -0.81495  -0.69228  -0.23925
C     0.00801  -1.85727   0.31347
O     1.39216  -1.52377   0.07225
C     1.50109  -0.22360  -0.47454
C     1.66058  -0.34014  -1.94349
N     1.78608  -0.48900  -3.08706
C     2.74644   0.51206   0.06059
O     3.09019   1.57822  -0.45556
N     3.35866  -0.08960   1.08074
C     4.48791   0.49741   1.77470
C     0.16565   0.51575  -0.09420
C    -0.19124   1.66629  -1.02793
C     0.24570   1.02157   1.35231
H    -6.67405   0.29910  -0.01623
H    -5.58154   0.14133  -1.52493
H    -4.07956   0.68100   2.31362
H    -5.75794   0.08572   2.18103
H    -4.39049  -1.05850   2.27243
H    -3.25632  -0.26950  -1.34364
H    -2.14684  -0.54308   1.51768
H    -0.97258  -0.84616  -1.31835
H    -0.13368  -1.98483   1.39835
H    -0.21799  -2.80910  -0.18818
H     2.93927  -0.95198   1.41822
H     5.11419   1.05073   1.06223
H     4.16069   1.19508   2.56349
H     5.08539  -0.29931   2.23589
H    -1.15547   2.09903  -0.72162
H    -0.28712   1.33296  -2.07159
H     0.57252   2.45613  -0.98271
H     0.98194   1.83376   1.43869
H    -0.72982   1.42861   1.65302
H     0.51918   0.22829   2.06204
