23
Generated by autodE on: 2022-06-18. E = -351.521383 Ha
C    -0.91095   2.47933  -2.70584
C    -0.10674   1.75366  -1.89810
C     1.39408   1.86860  -1.97782
C    -0.68985   0.83496  -0.92241
C     0.00509   0.05325  -0.05818
C    -0.62501  -0.84165   0.89099
C    -0.00604  -1.65269   1.78583
C     1.48391  -1.76015   1.94602
C    -0.80434  -2.52919   2.70911
H    -0.50192   3.17427  -3.44452
H    -2.00027   2.39320  -2.64500
H     1.81947   2.19317  -1.01362
H     1.69793   2.58982  -2.74954
H     1.85538   0.89497  -2.21281
H    -1.78543   0.78883  -0.90380
H     1.09762   0.09389  -0.07159
H    -1.72156  -0.85429   0.87269
H     1.77553  -1.50916   2.98121
H     2.04985  -1.11177   1.26484
H     1.81150  -2.80182   1.78072
H    -0.57417  -2.29807   3.76477
H    -0.53971  -3.59232   2.56556
H    -1.88780  -2.41673   2.55648
