15
Generated by autodE on: 2022-07-27. E = -454.219383 Ha
C    -1.92908  -0.23447  -1.97242
O    -1.31325  -0.25783  -0.86127
C    -0.04276   0.09356  -0.55713
C     0.80444   0.57451  -1.56312
N     1.47734   0.97158  -2.43494
C     0.39067  -0.04081   0.82789
O     1.55301   0.27140   1.14696
N    -0.50750  -0.50980   1.72251
C    -0.16418  -0.66855   3.12081
H    -2.96446  -0.57644  -1.93941
H    -1.42415   0.11015  -2.88132
H    -1.44568  -0.73701   1.41318
H     0.10343   0.29415   3.58640
H     0.68942  -1.35292   3.25094
H    -1.02963  -1.08437   3.65112
