63
Generated by autodE on: 2022-07-01. E = -4341.935859 Ha
C    -9.35575   4.37957  -7.67641
N    -9.01342   3.79379  -6.39767
C    -9.43269   4.26809  -5.21328
O   -10.09503   5.29959  -5.10163
C    -8.91322   3.46158  -3.98380
C    -9.65441   3.74929  -2.63539
C    -9.89005   5.15287  -2.15829
O    -9.91176   2.81422  -1.90758
C    -8.86931   1.95046  -4.20908
C    -7.60661   1.48829  -4.10355
C    -7.10896   0.07769  -4.18375
C    -7.14326  -0.68588  -2.84576
C    -8.49459  -0.64922  -2.13572
C    -9.69110  -1.04056  -3.02282
C   -10.60266   0.10659  -3.46208
C   -10.11870   1.14105  -4.48565
Cl  -11.54892   2.25563  -4.72787
Br   -9.91184   0.20612  -6.28799
C    -6.61766   2.63386  -3.88746
C    -5.79962   2.35729  -2.61183
C    -6.32904   2.70704  -1.36256
C    -5.66024   2.36970  -0.18296
C    -4.44878   1.67369  -0.23475
C    -3.91336   1.31980  -1.47677
C    -4.58394   1.65904  -2.65492
C    -5.70994   2.81325  -5.12536
C    -6.02042   2.23363  -6.36474
C    -5.23822   2.48201  -7.49697
C    -4.12337   3.31843  -7.41014
C    -3.79654   3.89718  -6.17983
C    -4.57963   3.64309  -5.05225
N    -7.51251   3.78839  -3.70016
C    -7.02016   5.13013  -3.91674
H    -8.44835   4.57230  -8.26890
H    -9.87950   5.32743  -7.50567
H   -10.01382   3.70802  -8.25144
H    -8.48410   2.93000  -6.40352
H    -8.92082   5.61904  -1.91911
H   -10.36710   5.76068  -2.93424
H   -10.49514   5.11643  -1.24283
H    -6.07610   0.07964  -4.56007
H    -7.70978  -0.47076  -4.92107
H    -6.87084  -1.73184  -3.06662
H    -6.36857  -0.29513  -2.17044
H    -8.44112  -1.33186  -1.27281
H    -8.66285   0.35474  -1.71436
H   -10.34999  -1.71757  -2.45757
H    -9.35916  -1.62328  -3.89790
H   -11.53300  -0.31268  -3.87102
H   -10.87951   0.69685  -2.57660
H    -7.27759   3.24100  -1.31871
H    -6.08998   2.65158   0.78140
H    -3.92430   1.41003   0.68678
H    -2.96813   0.77442  -1.53142
H    -4.15759   1.36568  -3.61455
H    -6.87689   1.56465  -6.46421
H    -5.50345   2.01309  -8.44736
H    -3.51034   3.51485  -8.29280
H    -2.92537   4.55124  -6.09546
H    -4.30436   4.09776  -4.09997
H    -6.14680   5.31622  -3.27352
H    -6.72688   5.33538  -4.96282
H    -7.78931   5.86190  -3.64444
