43
Generated by autodE on: 2022-07-01. E = -996.498550 Ha
C     3.26321  -1.68636   2.57978
N     2.98488  -1.18100   1.25620
C     1.92231  -0.38234   1.00607
O     1.09241  -0.10359   1.90375
C     1.80397   0.13031  -0.36455
C     2.70383  -0.13820  -1.41951
C     2.39705   0.35614  -2.82238
O     3.76411  -0.81574  -1.27618
N     0.66815   0.98247  -0.55088
C     0.94924   2.41098  -0.75511
C    -0.53908   0.53473  -0.27821
C    -1.63880   1.45172   0.07639
C    -2.87948   1.34367  -0.57592
C    -3.93097   2.18637  -0.21679
C    -3.76425   3.11357   0.81771
C    -2.54155   3.20024   1.49235
C    -1.47765   2.37883   1.12156
C    -0.84409  -0.90873  -0.31708
C    -1.63603  -1.47228   0.69748
C    -1.96452  -2.82816   0.66000
C    -1.52996  -3.62434  -0.40333
C    -0.76266  -3.06133  -1.43107
C    -0.41034  -1.71435  -1.38604
H     3.52230  -0.88276   3.29209
H     2.39563  -2.22448   2.99448
H     4.10992  -2.38327   2.52599
H     3.63338  -1.29837   0.47148
H     2.53945  -0.48755  -3.51525
H     3.12701   1.13227  -3.10565
H     1.38458   0.75662  -2.95692
H     1.28545   2.86153   0.18888
H     1.76199   2.49742  -1.48438
H     0.06204   2.93280  -1.13030
H    -3.00843   0.60818  -1.37200
H    -4.88701   2.11357  -0.73948
H    -4.59331   3.76391   1.10583
H    -2.41736   3.90824   2.31451
H    -0.53060   2.42489   1.66006
H    -1.97407  -0.84761   1.52547
H    -2.56600  -3.26229   1.46151
H    -1.79470  -4.68364  -0.43757
H    -0.43835  -3.67635  -2.27326
H     0.17920  -1.27860  -2.19212
