53
Generated by autodE on: 2022-06-29. E = -1331.427612 Ha
C    -0.79758  -4.80355   0.38033
N    -0.87637  -3.35852   0.48656
C    -1.33162  -2.59688  -0.50192
O    -1.80008  -3.02841  -1.56293
C    -1.25947  -1.05811  -0.26391
C    -2.63312  -0.58654  -0.58310
N    -3.76656  -0.36242  -0.69109
N    -0.89056  -0.75623   1.10092
C    -0.27185   0.55640   1.24432
C    -1.30731   1.52816   1.68522
N    -2.14682   2.22771   2.07519
C     0.83118   0.54875   2.31042
C     1.21172   1.74120   2.94158
C     2.25815   1.74939   3.86615
C     2.93250   0.56389   4.17357
C     2.55172  -0.62785   3.55069
C     1.50605  -0.63654   2.62344
C     0.26645   0.90880  -0.24043
C     1.75936   1.24076  -0.25463
C    -0.58262   2.09371  -0.75491
O    -1.70962   1.90417  -1.22321
N    -0.08845   3.32971  -0.59507
C    -0.89893   4.49833  -0.88120
C    -0.08395  -0.38744  -1.08109
C     1.10471  -1.37255  -1.14257
C    -0.36268  -0.02754  -2.55275
O     0.28246   0.88110  -3.09138
N    -1.22510  -0.79613  -3.23048
C    -1.45609  -0.58967  -4.64741
H     0.05203  -5.11203  -0.25063
H    -1.72084  -5.19947  -0.06412
H    -0.66829  -5.22799   1.38328
H    -0.45331  -2.87870   1.27745
H    -1.62425  -0.94194   1.78351
H     0.69669   2.67487   2.70596
H     2.54460   2.68643   4.34890
H     3.74975   0.56887   4.89850
H     3.07020  -1.56010   3.78616
H     1.21478  -1.56750   2.13882
H     1.98748   2.10579   0.38042
H     2.36189   0.41457   0.13344
H     2.07280   1.45891  -1.28296
H     0.81217   3.46005  -0.15110
H    -1.77761   4.54178  -0.21667
H    -0.29076   5.39806  -0.72906
H    -1.25823   4.48031  -1.92080
H     1.94189  -0.91322  -1.68001
H     1.44606  -1.66303  -0.14213
H     0.82010  -2.27551  -1.69833
H    -1.62355  -1.62384  -2.77618
H    -0.55041  -0.79435  -5.24218
H    -1.76288   0.44856  -4.84500
H    -2.25588  -1.26441  -4.97719
