26
Generated by autodE on: 2022-06-29. E = -573.544562 Ha
C     1.93251   3.02575  -0.94151
N     1.39878   2.20468   0.12599
C     0.79593   1.02546  -0.12994
O     0.69036   0.60943  -1.29592
C     0.27266   0.26276   1.05173
C     0.47623   0.86650   2.41676
C    -0.35284  -0.91622   0.83359
C    -0.93878  -1.81314   1.88693
C    -0.48227  -1.55686  -0.53272
O     0.33886  -2.41456  -0.88178
N    -1.61296  -1.31021  -1.22666
C    -2.49881  -0.18307  -1.00427
H     2.69296   2.47989  -1.52211
H     2.39471   3.91965  -0.50540
H     1.14056   3.34080  -1.64018
H     1.47162   2.53894   1.07886
H     1.54817   1.01845   2.62700
H    -0.01158   1.85324   2.48861
H     0.07025   0.24018   3.21825
H    -0.46828  -2.80831   1.82017
H    -0.81721  -1.43461   2.90799
H    -2.01475  -1.96389   1.69433
H    -1.65630  -1.76659  -2.13535
H    -3.46299  -0.38238  -1.49097
H    -2.68395  -0.04057   0.06874
H    -2.08642   0.75434  -1.41341
