27
Generated by autodE on: 2022-07-27. E = -757.842239 Ha
C    -0.56477  -4.48913  -1.03954
N    -0.58223  -3.07190  -0.72422
C    -1.08992  -2.17903  -1.60951
O    -1.56416  -2.52333  -2.70109
C    -1.03593  -0.74697  -1.25047
C    -1.80234   0.13893  -2.03395
N    -2.42292   0.85534  -2.71626
N    -0.20992  -0.29463  -0.27240
C    -0.08788   0.88675   0.33985
C    -1.10099   1.86856   0.17823
N    -1.92191   2.69312   0.11748
C     1.05655   1.16542   1.21097
C     0.98241   2.21133   2.15425
C     2.04992   2.46279   3.01306
C     3.20843   1.68095   2.94840
C     3.29736   0.65163   2.00513
C     2.23891   0.40026   1.13384
H     0.00812  -5.01595  -0.26651
H    -0.08664  -4.65792  -2.01472
H    -1.58186  -4.91388  -1.08023
H    -0.47893  -2.81585   0.25279
H     0.47887  -0.98913   0.03628
H     0.07785   2.81859   2.22222
H     1.97396   3.27226   3.74226
H     4.04340   1.87972   3.62366
H     4.20548   0.04928   1.93404
H     2.35274  -0.37947   0.37699
