53
Generated by autodE on: 2022-06-29. E = -1331.369114 Ha. Imaginary frequency = -336.2 cm-1
C    -0.87108  -5.03130   0.08520
N    -0.92520  -3.62106   0.43404
C    -1.39237  -2.71330  -0.43435
O    -1.82593  -3.02757  -1.55324
C    -1.35939  -1.25968  -0.03954
C    -2.59725  -0.60930  -0.35797
N    -3.64118  -0.17559  -0.62993
N    -0.72358  -0.93849   1.14254
C    -0.44290   0.33714   1.53965
C    -1.51615   1.28668   1.55967
N    -2.34878   2.09390   1.64193
C     0.63689   0.56583   2.51972
C     0.75524   1.81934   3.15087
C     1.80370   2.07592   4.03290
C     2.75014   1.08556   4.31044
C     2.64142  -0.16371   3.69116
C     1.60236  -0.42155   2.79875
C     0.48468   0.92378  -0.60363
C     1.90963   1.05623  -0.13115
C    -0.29759   2.17251  -0.85621
O    -1.45084   2.14734  -1.31395
N     0.29139   3.34758  -0.54364
C    -0.42453   4.60001  -0.67659
C     0.12197  -0.22171  -1.38106
C     1.12427  -1.35597  -1.48361
C    -0.49489   0.04448  -2.75575
O     0.02296   0.91465  -3.47241
N    -1.46010  -0.76608  -3.20662
C    -1.95142  -0.65632  -4.56530
H    -0.32232  -5.56514   0.87002
H    -0.35157  -5.16571  -0.87384
H    -1.88082  -5.46304  -0.00473
H    -0.77795  -3.37183   1.40643
H     0.02279  -1.59032   1.37934
H     0.02628   2.60365   2.94435
H     1.87817   3.05647   4.50773
H     3.57013   1.28577   5.00338
H     3.37687  -0.94446   3.89561
H     1.57411  -1.40252   2.32016
H     2.03650   1.81365   0.65283
H     2.30328   0.11671   0.27143
H     2.54845   1.33586  -0.98906
H     1.22883   3.36027  -0.16281
H     0.22244   5.41746  -0.33533
H    -0.71235   4.78961  -1.72313
H    -1.34459   4.59713  -0.07052
H     2.01040  -1.00896  -2.04190
H     1.47281  -1.70259  -0.50111
H     0.70432  -2.20939  -2.03116
H    -1.74267  -1.57443  -2.64315
H    -1.15872  -0.85739  -5.30568
H    -2.34503   0.35313  -4.76186
H    -2.76089  -1.38347  -4.70852
