19
Generated by autodE on: 2022-10-06. E = -585.870078 Ha
C    -3.58769  -1.85999   0.22106
N    -2.79627  -0.66531  -0.00250
C    -1.45312  -0.69428   0.07427
O    -0.80668  -1.71697   0.32940
C    -0.74995   0.59783  -0.16871
C    -1.39548   1.81860  -0.46643
N    -1.96995   2.80496  -0.71085
N     0.56332   0.55534  -0.08899
C     1.70976   0.33022   0.02322
C     3.11674   0.04975   0.15054
C     3.42810  -1.38422   0.47004
O     3.94186   0.94012   0.00155
H    -3.44927  -2.24726   1.24317
H    -3.31057  -2.65845  -0.48492
H    -4.64623  -1.61277   0.07763
H    -3.27288   0.20639  -0.20992
H     4.08242  -1.78294  -0.32160
H     3.98413  -1.41586   1.42075
H     2.52070  -1.99906   0.54884
