29
Generated by autodE on: 2022-10-06. E = -1040.920602 Ha. Imaginary frequency = -373.4 cm-1
C     3.36496   0.34046   2.24210
N     2.33435   0.71972   1.29089
C     2.41264   0.28051   0.01468
O     3.42436  -0.23222  -0.47622
C     1.18440   0.43180  -0.81100
C     1.25669   0.01936  -2.16882
N     1.31780  -0.33719  -3.27680
N     0.16952   1.21899  -0.44713
C    -0.96064   1.20570  -0.02405
C    -2.01178   2.17937   0.35367
C    -3.11958   2.36164  -0.62882
O    -1.93743   2.69882   1.45304
C    -1.47094  -0.89816   0.22230
C    -2.46558  -0.91611  -0.92875
O    -1.99927  -0.88658  -2.09779
O    -3.68605  -0.93867  -0.61050
C    -0.25396  -1.54031   0.13701
C     0.61498  -1.77009   1.34617
O     1.62562  -2.51078   1.18624
O     0.29733  -1.17979   2.41947
H     3.18908   0.86820   3.18783
H     3.35617  -0.74635   2.42863
H     4.35580   0.62077   1.86014
H     1.39832   0.81160   1.68045
H    -3.75375   1.45853  -0.58640
H    -3.71098   3.24713  -0.36087
H    -2.72768   2.43429  -1.65448
H    -1.87097  -0.70198   1.22111
H     0.03968  -2.03390  -0.79103
