23
Generated by autodE on: 2022-06-24. E = -351.521379 Ha
C     3.61376  -0.89757  -0.65916
C     2.53060  -0.53098   0.06077
C     2.62511  -0.27674   1.54352
C     1.23544  -0.37393  -0.59807
C     0.07697  -0.01342   0.00930
C    -1.18206   0.12754  -0.69343
C    -2.38004   0.47945  -0.16174
C    -2.60693   0.79029   1.29062
C    -3.60358   0.58583  -1.02752
H     3.54224  -1.08178  -1.73559
H     4.59446  -1.02272  -0.19171
H     1.95202  -0.94559   2.10526
H     2.32097   0.75415   1.79009
H     3.64994  -0.43122   1.90946
H     1.22043  -0.56987  -1.67701
H     0.08364   0.18387   1.08468
H    -1.14787  -0.07500  -1.77081
H    -3.37894   0.12002   1.70815
H    -2.99964   1.81625   1.40454
H    -1.70487   0.69923   1.90925
H    -4.03142   1.60331  -0.97663
H    -3.39007   0.35051  -2.08053
H    -4.39639  -0.09596  -0.67053
