30
Generated by autodE on: 2022-07-27. E = -838.113355 Ha
C    -4.59674  -1.66064   0.02188
N    -3.23008  -1.18466  -0.02548
C    -2.47264  -1.00828   1.07709
O    -2.86423  -1.21591   2.23640
C    -1.09556  -0.52970   0.86387
C    -0.24037  -0.38414   1.97079
N     0.44922  -0.29180   2.90952
O    -0.70120  -0.36179  -0.39205
C     0.37774   0.04268  -0.99812
C     0.32576  -0.17136  -2.46555
C    -0.90998  -0.80933  -3.04003
O     1.27574   0.17185  -3.16018
C     1.49627   0.69468  -0.32694
C     1.26340   1.75396   0.57565
C     2.33652   2.42111   1.16242
C     3.64869   2.03466   0.87070
C     3.88800   0.98575  -0.02465
C     2.82252   0.32452  -0.63123
H    -4.89991  -1.76705   1.06985
H    -5.27645  -0.95013  -0.47381
H    -4.69603  -2.63882  -0.47560
H    -2.81674  -0.99908  -0.93299
H    -0.77768  -0.93103  -4.12202
H    -1.10236  -1.78581  -2.56984
H    -1.78922  -0.17351  -2.84542
H     0.24309   2.07307   0.79460
H     2.14715   3.24656   1.85172
H     4.48744   2.55341   1.34043
H     4.91226   0.68164  -0.25069
H     3.00828  -0.49326  -1.32703
