53
Generated by autodE on: 2022-06-24. E = -1189.642477 Ha. Imaginary frequency = -275.1 cm-1
C     5.08612  -0.82494  -0.17801
C     3.93277  -0.82483   0.52629
C     3.88862  -0.42353   1.97684
C     2.68414  -1.17023  -0.14071
C     1.46319  -1.22117   0.45762
C     0.24597  -1.48319  -0.25351
C    -0.35278   0.91481  -1.11776
C    -0.41005   0.61639  -2.56412
C    -1.76997   0.46667  -3.20165
O     0.61920   0.48750  -3.22642
C     0.70464   1.71881  -0.52314
C     0.38961   2.70645   0.44056
C     1.38468   3.50564   0.99340
C     2.72052   3.34574   0.60107
C     3.04196   2.40210  -0.37687
C     2.05031   1.59849  -0.94041
O    -1.56127   0.81168  -0.53986
C    -1.87665   0.33391   0.67547
C    -1.12343   0.62977   1.84078
N    -0.50645   0.79932   2.81561
C    -3.31130   0.02291   0.87380
O    -3.71499  -0.35636   1.98437
N    -4.10571   0.14831  -0.20536
C    -5.47794  -0.31689  -0.19248
C    -0.95971  -1.86557   0.35936
C    -2.04642  -2.42418  -0.51904
C    -1.00436  -2.33459   1.78831
H     5.10088  -1.10005  -1.23685
H     6.03749  -0.54891   0.28481
H     3.47444  -1.23060   2.60331
H     4.89113  -0.17404   2.35147
H     3.23556   0.45416   2.11650
H     2.75141  -1.39578  -1.21030
H     1.38965  -1.01528   1.52702
H     0.32352  -1.61575  -1.33508
H    -1.63902   0.40207  -4.28912
H    -2.27086  -0.44624  -2.84686
H    -2.42157   1.31686  -2.94799
H    -0.64767   2.87476   0.72924
H     1.11604   4.26515   1.73102
H     3.50124   3.96731   1.04541
H     4.07709   2.27694  -0.70129
H     2.30432   0.88781  -1.71832
H    -3.67150   0.37335  -1.09421
H    -5.99149   0.03409   0.71338
H    -5.99861   0.08084  -1.07249
H    -5.53688  -1.41884  -0.21474
H    -2.13535  -1.87973  -1.46701
H    -3.02187  -2.44250  -0.01392
H    -1.79393  -3.47195  -0.76301
H    -0.26089  -1.85349   2.43390
H    -0.80133  -3.42059   1.79803
H    -2.00235  -2.18260   2.22275
