38
Generated by autodE on: 2022-06-17. E = -805.843620 Ha
C     4.40990  -1.28829   1.35380
C     3.57274  -0.30810   0.95801
C     3.92625   1.14805   1.10509
C     2.27645  -0.65791   0.36833
C     1.35364   0.22106  -0.06302
C     0.05654  -0.19087  -0.67105
C    -0.19024   0.21416  -2.15598
C     0.18939   1.67165  -2.44825
C     0.55205  -0.72513  -3.10454
C    -1.70676   0.02013  -2.22512
O    -2.22818   0.45410  -0.95083
C    -1.22687   0.36142   0.04396
C    -1.02728   1.69879   0.63989
N    -0.89645   2.75487   1.10134
C    -1.60492  -0.60171   1.19083
O    -0.90059  -0.63832   2.20122
N    -2.67352  -1.36131   0.94000
C    -3.17306  -2.37413   1.84766
H     5.38312  -1.06304   1.79893
H     4.13955  -2.34271   1.24150
H     3.92695   1.65629   0.12645
H     3.18584   1.67337   1.73105
H     4.91809   1.27347   1.56164
H     2.05974  -1.72922   0.28645
H     1.54199   1.29499   0.01600
H    -0.02760  -1.28681  -0.62382
H     1.27007   1.83219  -2.32053
H    -0.33955   2.38271  -1.79653
H    -0.06801   1.91801  -3.48988
H     1.64046  -0.61882  -2.97619
H     0.30954  -0.48987  -4.15282
H     0.28621  -1.77692  -2.91562
H    -1.96443  -1.04194  -2.37375
H    -2.19135   0.62289  -3.00551
H    -3.17185  -1.16414   0.07559
H    -2.44411  -2.52139   2.65363
H    -3.31810  -3.32638   1.31675
H    -4.13485  -2.07140   2.29113
