23
Generated by autodE on: 2022-06-17. E = -351.521385 Ha
C    -3.66440   0.93174   0.04494
C    -2.58281   0.12377  -0.01126
C    -2.72731  -1.37156  -0.13499
C    -1.23971   0.69712   0.04779
C    -0.07825  -0.00272   0.00146
C     1.22996   0.61650   0.06325
C     2.43278  -0.01029   0.01940
C     2.61044  -1.49676  -0.10661
C     3.71208   0.77411   0.09578
H    -4.68057   0.52988   0.00251
H    -3.55574   2.01700   0.13516
H    -2.23198  -1.74454  -1.04686
H    -2.25124  -1.88849   0.71481
H    -3.78508  -1.66793  -0.17060
H    -1.18879   1.78897   0.13740
H    -0.12078  -1.09162  -0.08782
H     1.23276   1.70934   0.15555
H     1.66480  -2.05108  -0.16314
H     3.20303  -1.73542  -1.00747
H     3.18744  -1.88677   0.75049
H     4.33426   0.59621  -0.79981
H     3.53252   1.85555   0.18566
H     4.32027   0.44794   0.95867
