15
Generated by autodE on: 2022-06-17. E = -454.217006 Ha
C     2.30733  -0.39628  -1.34535
O     1.88656  -0.02493  -0.20485
C     0.63886   0.12161   0.30604
C     0.63102   0.56443   1.63815
N     0.57525   0.93277   2.74823
C    -0.54945  -0.17323  -0.48377
O    -0.46459  -0.58783  -1.65661
N    -1.74833   0.02493   0.11539
C    -2.98708  -0.26921  -0.57561
H     1.60392  -0.67139  -2.13121
H     3.39566  -0.40520  -1.43902
H    -1.78789   0.34771   1.07609
H    -3.82657  -0.00345   0.07830
H    -3.06708  -1.33844  -0.83273
H    -3.07287   0.30816  -1.50987
