38
Generated by autodE on: 2022-06-17. E = -805.754229 Ha. Imaginary frequency = -178.6 cm-1
C     2.38074  -1.19775   3.10406
C     2.25315  -0.40671   2.01411
C     2.70490   1.03114   2.02760
C     1.64315  -0.94322   0.80437
C     1.41604  -0.24857  -0.34434
C     0.79109  -0.84392  -1.49240
C     0.57762  -0.25339  -2.72088
C     1.03776   1.15052  -3.01838
C     0.24716  -1.11712  -3.91251
C    -1.67417   0.22072  -2.23376
O    -1.62134   1.12077  -1.31384
C    -1.42940   0.89979   0.03105
C    -0.94126   2.02033   0.70805
N    -0.50585   2.92721   1.31217
C    -1.65807  -0.38791   0.65264
O    -2.21043  -1.34035   0.06081
N    -1.23865  -0.51127   1.94306
C    -1.27697  -1.79570   2.61258
H     2.81860  -0.82265   4.03312
H     2.04683  -2.23936   3.08819
H     3.15759   1.29510   2.99375
H     1.86011   1.71444   1.84168
H     3.44677   1.22094   1.23433
H     1.32536  -1.99052   0.84796
H     1.72194   0.79774  -0.41153
H     0.48613  -1.89041  -1.38235
H     0.91530   1.82433  -2.15875
H     2.10715   1.14848  -3.29421
H     0.48311   1.57238  -3.86975
H     1.17183  -1.31810  -4.48290
H    -0.44757  -0.61812  -4.60573
H    -0.18061  -2.08474  -3.61163
H    -1.92841  -0.80524  -1.97626
H    -1.81176   0.63251  -3.23461
H    -0.59776   0.18489   2.30918
H    -0.72423  -2.56974   2.05444
H    -0.82358  -1.68726   3.60548
H    -2.31263  -2.14734   2.73883
