31
Generated by autodE on: 2022-05-26. E = -784.228032 Ha
C     3.56995  -0.94842  -0.27449
N     2.20393  -0.58798   0.03760
C     1.65551   0.59338  -0.29859
O     2.29469   1.50353  -0.85262
C     0.20780   0.78402   0.02067
C    -0.38534   1.98638   0.17351
C     0.19827   3.35647   0.17792
C    -1.85939   1.80326   0.35172
O    -2.09750   0.41415   0.14221
C    -0.87928  -0.30713   0.10732
C    -0.84228  -1.17754  -1.18273
C    -1.69960  -0.69428  -2.31339
O    -0.13060  -2.15828  -1.25245
C    -0.76710  -1.19850   1.36466
C    -1.94439  -1.21514   2.28734
O     0.23727  -1.85799   1.57589
H     3.60585  -1.75897  -1.02149
H     4.09258  -0.07361  -0.67881
H     4.09729  -1.29218   0.62893
H     1.60769  -1.27444   0.50665
H     0.02181   3.83784  -0.79995
H     1.27802   3.34959   0.36107
H    -0.30765   3.97789   0.93400
H    -2.43646   2.39105  -0.38368
H    -2.18766   2.11241   1.36257
H    -1.55468   0.38468  -2.47403
H    -1.45901  -1.25945  -3.22283
H    -2.75971  -0.83800  -2.05116
H    -1.75317  -1.90892   3.11577
H    -2.85206  -1.50642   1.73676
H    -2.12317  -0.19879   2.67368
