37
Generated by autodE on: 2022-06-17. E = -784.754588 Ha
C     1.06126   1.56359  -1.94434
C     0.17423   1.72250  -0.95250
C    -0.72948   2.91672  -0.84132
C    -0.03544   0.67703   0.13028
C     1.11499  -0.27927   0.27052
C     2.43017   0.18760   0.84071
O     2.50866   1.29402   1.38566
N     3.44820  -0.67185   0.68900
C     4.78327  -0.43197   1.19341
N     0.92868  -1.48102  -0.12396
C    -0.45400  -1.59006  -0.62651
C    -0.42941  -1.76879  -2.08141
N    -0.41514  -1.89827  -3.22631
C    -1.21851  -0.29493  -0.18949
C    -2.08498  -0.54991   1.00695
C    -3.35145  -0.13411   1.19130
C    -4.14259   0.66825   0.19367
C    -4.07915  -0.43119   2.47539
H     1.16585   2.31736  -2.73010
H     1.70978   0.68572  -2.01376
H    -0.52376   3.46695   0.09302
H    -0.60682   3.60514  -1.68967
H    -1.78611   2.60202  -0.79130
H    -0.21075   1.19689   1.08392
H     3.22872  -1.56700   0.26079
H     5.53017  -0.73401   0.44546
H     4.97325  -0.99567   2.12197
H     4.90066   0.63782   1.40519
H    -0.92596  -2.49139  -0.20537
H    -1.81277   0.09435  -1.02279
H    -1.59879  -1.10433   1.81953
H    -5.13635   0.21536   0.03717
H    -3.65224   0.76649  -0.78347
H    -4.32376   1.68523   0.58437
H    -5.00489  -0.99974   2.27774
H    -4.39211   0.50480   2.97129
H    -3.45979  -1.00663   3.17911
