37
Generated by autodE on: 2022-06-17. E = -784.658509 Ha. Imaginary frequency = -390.3 cm-1
C     1.78290   2.76938  -0.60875
C     0.80264   1.88472  -0.89469
C     0.50519   1.48279  -2.31471
C     0.01540   1.26972   0.19361
C     1.16132  -0.66341   0.33082
C     2.53803  -0.73683   0.88957
O     2.79951  -1.53330   1.79268
N     3.39636   0.14269   0.35619
C     4.76635   0.23843   0.82374
N     0.37593  -1.48347  -0.09188
C    -0.87828  -1.61658  -0.52506
C    -1.15801  -1.66057  -1.90796
N    -1.43957  -1.65407  -3.04258
C    -1.29059   0.80880   0.02973
C    -2.16476   0.59982   1.17058
C    -3.46181   0.20622   1.13968
C    -4.19252  -0.14592  -0.12472
C    -4.25826   0.05493   2.40426
H     2.00284   3.05967   0.42296
H     2.37376   3.23724  -1.40094
H    -0.55094   1.65776  -2.57446
H     0.68988   0.40651  -2.46237
H     1.13185   2.04202  -3.02337
H     0.32357   1.54682   1.20708
H     3.02252   0.86656  -0.25979
H     5.25089  -0.74850   0.80132
H     5.31683   0.92163   0.16611
H     4.81421   0.61994   1.85688
H    -1.60544  -2.06137   0.15986
H    -1.73524   0.83148  -0.96445
H    -1.71163   0.78349   2.15225
H    -4.50182  -1.20647  -0.09844
H    -5.12320   0.44146  -0.21539
H    -3.59817   0.00818  -1.03458
H    -4.63628  -0.97820   2.50989
H    -5.15134   0.70557   2.38824
H    -3.66695   0.30126   3.29864
