20
Generated by autodE on: 2022-06-23. E = -495.525536 Ha
C     3.46562  -1.33483  -0.04072
C     2.71579  -0.02652  -0.06224
C     3.35306   1.22066  -0.11234
N     3.91458   2.25148  -0.15430
N     1.38302  -0.04191  -0.03289
C     0.21302  -0.12047  -0.00542
C    -1.19395  -0.20680   0.03136
C    -1.97529   0.97158  -0.00331
C    -3.36347   0.87204   0.03537
C    -3.98768  -0.37908   0.10655
C    -3.21164  -1.54398   0.13985
C    -1.82171  -1.47245   0.10355
H     3.24570  -1.91643   0.87106
H     3.21411  -1.96432  -0.91166
H     4.54611  -1.13761  -0.06518
H    -1.48519   1.94461  -0.05942
H    -3.96489   1.78339   0.00931
H    -5.07715  -0.44624   0.13602
H    -3.69456  -2.52205   0.19544
H    -1.21364  -2.37781   0.13008
