14
Generated by autodE on: 2022-05-26. E = -324.819050 Ha
C     3.27789   0.16532  -0.37479
C     1.91444   0.29328   0.08369
N     0.82303   0.40889   0.46770
C    -0.48587   0.45693   0.79009
C    -1.40416  -0.21234  -0.05529
C    -2.86689  -0.13357   0.33722
O    -1.07157  -0.84785  -1.08462
H     3.90569  -0.30081   0.40107
H     3.69247   1.14768  -0.65124
H     3.27894  -0.48371  -1.26538
H    -0.75520   1.01272   1.68650
H    -3.43715   0.32749  -0.48619
H    -3.26118  -1.15484   0.46806
H    -3.03963   0.43981   1.25889
