39
Generated by autodE on: 2022-05-26. E = -1087.598261 Ha. Imaginary frequency = -250.9 cm-1
C     3.50112   0.13705   0.41886
C     2.51878  -0.36223   1.45032
O     2.72109  -1.38739   2.10468
C     1.29339   0.40557   1.65575
N     1.15697   1.60607   1.09594
C     0.61107   2.33923   0.32833
C     0.45206   3.71147  -0.13902
C    -0.85593   0.65148  -0.55220
C    -0.36140   0.96918  -1.90331
C    -1.22140   1.87620  -2.75103
O     0.70528   0.53466  -2.34244
C    -2.18955   1.16427   0.00278
C    -3.26700   0.11760  -0.42201
C    -2.91276  -1.11969   0.45261
C    -1.65411  -0.63686   1.24076
C    -2.04198   0.82973   1.49714
C    -0.52656  -0.46995   0.21866
C     0.15207  -1.71474  -0.27081
F    -0.54884  -2.29465  -1.28589
F     1.40416  -1.57300  -0.73603
F     0.21703  -2.64278   0.71029
H     4.21402  -0.66187   0.17659
H     4.05395   0.99878   0.82916
H     2.98671   0.47378  -0.49209
H     0.72440   0.21944   2.56959
H     0.73817   3.76860  -1.20030
H    -0.61015   3.99134  -0.06733
H     1.06416   4.40830   0.45395
H    -1.40614   2.83260  -2.23941
H    -2.20612   1.41374  -2.92437
H    -0.72480   2.05992  -3.71261
H    -2.43593   2.20102  -0.25266
H    -3.22571  -0.09685  -1.49915
H    -4.27423   0.49709  -0.19383
H    -2.71705  -2.02468  -0.13688
H    -3.71870  -1.35124   1.16473
H    -1.39853  -1.25357   2.10999
H    -2.98940   0.92073   2.04835
H    -1.27215   1.41633   2.01422
