49
Generated by autodE on: 2022-06-15. E = -8795.131586 Ha
C     2.36338   3.90268  -0.59232
N     2.21138   2.52078  -1.00749
C     1.03020   1.89439  -0.89098
O     0.01522   2.46250  -0.48940
C     0.96599   0.40894  -1.34308
Br    0.44178   0.69504  -3.29432
C     2.28734  -0.38509  -1.44360
C     2.79985  -1.08104  -0.18499
C     3.14531  -0.20042   1.00946
C     1.98956   0.54455   1.68875
C     0.68739  -0.21495   1.89382
Br   -0.42521   0.95739   3.10493
Br    1.11402  -1.87320   2.95813
C    -0.19912  -0.60097   0.74165
C    -0.13029  -0.33379  -0.58757
C    -1.40811  -0.85805  -1.26534
C    -1.22960  -1.85382  -2.43833
C    -0.04309  -2.78278  -2.38692
O    -2.10593  -1.99844  -3.26968
C    -2.34655   0.33845  -1.58702
O    -2.80622   0.64648  -2.66057
O    -2.62814   0.98570  -0.45413
C    -3.42733   2.16984  -0.56024
N    -1.99003  -1.73315  -0.24062
C    -3.41469  -2.00010  -0.30009
C    -1.48392  -1.33253   1.06027
H     1.66052   4.55290  -1.13452
H     3.38896   4.22540  -0.80798
H     2.17144   4.01746   0.48739
H     3.04208   1.99891  -1.25892
H     3.06560   0.26637  -1.86758
H     2.13266  -1.16675  -2.19535
H     2.08655  -1.86359   0.11534
H     3.71294  -1.61811  -0.48666
H     3.63558  -0.83311   1.76430
H     3.88703   0.55878   0.71184
H     1.73244   1.47056   1.16414
H     2.33349   0.87007   2.67917
H    -0.38756  -3.80219  -2.61222
H     0.47841  -2.76736  -1.42308
H     0.66215  -2.49516  -3.18220
H    -4.41973   1.93267  -0.96957
H    -3.51936   2.56232   0.45877
H    -2.92703   2.90515  -1.20664
H    -4.03173  -1.12751  -0.00836
H    -3.70227  -2.30652  -1.31529
H    -3.65440  -2.82688   0.38525
H    -1.32661  -2.20454   1.71292
H    -2.17916  -0.65138   1.58725
