27
Generated by autodE on: 2022-06-15. E = -8241.020604 Ha
C     3.54725  -4.34686  -0.15279
N     3.20164  -2.93710  -0.13713
C     1.95706  -2.51846  -0.40197
O     1.01525  -3.28008  -0.62412
C     1.73524  -0.99492  -0.40314
Br    2.43617  -0.36202  -2.20818
C     0.33608  -0.64112  -0.34657
C    -0.65200  -0.00894  -0.03901
C    -1.39838   1.01923   0.62938
Br   -2.30522   0.21704   2.22167
Br   -2.80316   1.78520  -0.55098
C    -0.42716   2.12701   1.07553
C     0.85771   1.63575   1.77501
C     2.08023   1.26739   0.88747
C     2.45419  -0.21890   0.72297
H     2.88273  -4.91691   0.51327
H     4.58163  -4.46093   0.19252
H     3.46077  -4.76993  -1.16688
H     3.94117  -2.25656  -0.00257
H    -0.98235   2.81513   1.72910
H    -0.15475   2.69081   0.16914
H     0.61722   0.80632   2.45997
H     1.16836   2.46812   2.42361
H     1.98362   1.73471  -0.10632
H     2.96093   1.74002   1.34659
H     3.53899  -0.30133   0.55836
H     2.23184  -0.76286   1.65683
