22
Generated by autodE on: 2022-06-15. E = -554.023992 Ha
C    -0.30128  -2.51053   0.07532
N    -0.82043  -1.41649  -0.35522
C    -1.82097  -1.44736  -1.43717
C    -0.31604  -0.13222   0.05425
C    -1.28021   0.81210   0.53551
C    -0.86161   2.21907   0.91695
O    -2.48487   0.50063   0.67510
C     1.11311   0.00069  -0.10416
O     1.87742  -0.90124  -0.45717
O     1.58816   1.24240   0.15429
C     2.99683   1.42823   0.01134
H     0.42892  -2.47922   0.88405
H    -0.60205  -3.46134  -0.37108
H    -2.68271  -0.85036  -1.12533
H    -1.36715  -1.00541  -2.33461
H    -2.12117  -2.48414  -1.62720
H    -0.11291   2.21223   1.72196
H    -1.75917   2.75434   1.25522
H    -0.41127   2.75027   0.06634
H     3.31669   1.25030  -1.02639
H     3.55526   0.75449   0.67838
H     3.19204   2.47218   0.28646
