49
Generated by autodE on: 2022-06-15. E = -8795.035103 Ha. Imaginary frequency = -219.2 cm-1
C     0.52008   3.68325  -3.20342
N     0.89512   2.37128  -2.70977
C     1.35180   2.23143  -1.46584
O     1.57185   3.18183  -0.70711
C     1.60884   0.80029  -0.92253
Br    1.98904  -0.51837  -2.42984
C     2.86131   0.79180  -0.01671
C     3.07513  -0.51114   0.77198
C     2.81101  -0.42051   2.28129
C     1.47458   0.14871   2.77969
C     0.18259  -0.48166   2.24610
Br    0.21297  -2.46239   2.54900
Br   -1.32931   0.26958   3.34177
C    -0.04736  -0.20939   0.83234
C     0.46397   0.28828  -0.18404
C    -1.76422  -0.01291  -1.79793
C    -1.61830  -0.22720  -3.26655
C    -2.46979  -1.25236  -3.98550
O    -0.87766   0.48359  -3.94158
C    -2.05428   1.38298  -1.42514
O    -2.00707   2.31564  -2.21637
O    -2.40528   1.58874  -0.14299
C    -2.42573   2.94636   0.30757
N    -1.95391  -1.10702  -0.97058
C    -1.48345  -2.42354  -1.46294
C    -2.11471  -1.02867   0.34533
H    -0.22443   4.16261  -2.55003
H     0.08956   3.56830  -4.20568
H     1.40009   4.34113  -3.26762
H     0.46853   1.56208  -3.17483
H     2.73589   1.64323   0.66713
H     3.72904   1.02779  -0.64964
H     2.47170  -1.32023   0.33398
H     4.12071  -0.83162   0.64849
H     3.58350   0.22142   2.73724
H     2.95366  -1.42196   2.71649
H     1.39936   1.21954   2.53269
H     1.46235   0.07369   3.87642
H    -1.85442  -2.11715  -4.27858
H    -2.82141  -0.77620  -4.91267
H    -3.33121  -1.60123  -3.40376
H    -3.15445   3.54309  -0.25863
H    -2.70933   2.90517   1.36563
H    -1.42349   3.38995   0.20416
H    -2.27871  -2.93628  -2.01370
H    -0.60304  -2.28996  -2.10158
H    -1.20144  -3.03515  -0.60063
H    -2.11569  -1.96800   0.89364
H    -2.57373  -0.14917   0.77365
