46
Generated by autodE on: 2022-06-21. E = -1052.847337 Ha
C    -3.99482   2.08330   0.15953
N    -3.32291   0.83872  -0.18369
C    -3.82268  -0.33143   0.36358
C    -3.11194  -1.46811   0.49928
C    -1.67602  -1.51481   0.06880
C    -1.00058  -0.13310   0.30095
C    -0.91389   0.08529   1.81541
N    -0.16219  -0.78239   2.51172
O    -1.54460   0.98968   2.37687
C    -1.88178   0.95011  -0.36781
C    -1.36796   0.87068  -1.78300
N    -0.20536   0.36707  -1.92313
C     0.32764  -0.01066  -0.57554
C     1.10044  -1.32638  -0.65746
C     2.03891  -1.66351   0.33112
C     2.70867  -2.88893   0.29636
C     2.46513  -3.79359  -0.74180
C     1.55298  -3.45625  -1.74508
C     0.87770  -2.23255  -1.70219
C     1.29741   1.13078  -0.21671
C     2.47428   1.22592  -0.98432
C     3.39405   2.25224  -0.77690
C     3.16062   3.21610   0.21097
C     1.99588   3.13850   0.97363
C     1.06904   2.10952   0.75892
H    -3.76376   2.85776  -0.58653
H    -5.08304   1.92866   0.16027
H    -3.69286   2.45888   1.15567
H    -4.87095  -0.27365   0.66877
H    -3.59235  -2.36111   0.90164
H    -1.12381  -2.30070   0.60007
H    -1.59747  -1.76629  -1.00103
H     0.34655  -1.53845   2.06867
H    -0.10531  -0.68078   3.52054
H    -1.57863   1.93709   0.01761
H    -1.93431   1.25902  -2.63834
H     2.26316  -0.95458   1.12945
H     3.43164  -3.13148   1.07880
H     2.99168  -4.75034  -0.77371
H     1.36401  -4.14810  -2.56950
H     0.17409  -1.97404  -2.49345
H     2.67119   0.48019  -1.75599
H     4.29904   2.29862  -1.38753
H     3.88153   4.01924   0.38101
H     1.79485   3.88298   1.74771
H     0.17134   2.09854   1.37061
