26
Generated by autodE on: 2022-06-21. E = -595.065658 Ha
C     0.34659  -1.01983   3.13013
N     0.21646  -0.53990   2.01240
C     0.08009  -0.19384   0.77636
C     1.30505  -0.09234  -0.04896
C     2.54573   0.18554   0.55854
C     3.71551   0.23870  -0.19911
C     3.67273   0.01685  -1.57987
C     2.44797  -0.26639  -2.19275
C     1.27475  -0.32267  -1.43835
C    -1.28739   0.06586   0.27051
C    -1.52171   0.98065  -0.77412
C    -2.82088   1.23015  -1.22045
C    -3.90943   0.57638  -0.63469
C    -3.68792  -0.32788   0.41015
C    -2.39219  -0.57895   0.86048
H     0.51918  -0.33703   3.98427
H     2.58818   0.36879   1.63433
H     4.66619   0.46117   0.29140
H     4.58840   0.06212  -2.17384
H     2.40417  -0.45416  -3.26824
H     0.33311  -0.56799  -1.93053
H    -0.68621   1.51329  -1.22971
H    -2.98270   1.94764  -2.02845
H    -4.92467   0.77290  -0.98687
H    -4.53080  -0.84350   0.87659
H    -2.22927  -1.28586   1.67712
