41
Generated by autodE on: 2022-05-30. E = -1450.343214 Ha
C     4.11786  -2.45618   1.54076
N     3.13862  -1.53390   1.00203
C     1.84623  -1.87613   0.86985
O     1.40500  -3.00145   1.13400
C     0.93189  -0.80545   0.38953
N     1.23387   0.44747   0.43268
N     0.20066   1.18934  -0.01805
C     0.22688   2.58323  -0.05063
O    -0.74670   3.18762  -0.51112
N     1.33524   3.16352   0.43650
C     1.50779   4.60247   0.39058
C    -0.97009   0.40587  -0.41720
C    -1.29284   0.67064  -1.90778
C    -0.13938   0.94743  -2.83303
O    -2.44392   0.66737  -2.29334
C    -2.22393   0.51708   0.49283
C    -1.79215   0.56773   1.97079
C    -1.31469  -0.88766   2.25504
C    -1.51077  -1.59776   0.89810
C    -2.78822  -0.91488   0.38009
C    -0.46466  -1.06051  -0.10619
Cl   -0.40988  -2.14361  -1.58740
H     5.11340  -2.00351   1.46222
H     3.91563  -2.68936   2.59926
H     4.11188  -3.40254   0.97910
H     3.40944  -0.57704   0.79904
H     2.09408   2.56822   0.75142
H     0.64853   5.11474   0.84808
H     1.61525   4.97016  -0.64327
H     2.41263   4.86522   0.95174
H    -0.40140   0.60860  -3.84414
H     0.01003   2.03965  -2.86477
H     0.79973   0.48658  -2.50326
H    -2.88282   1.33317   0.17917
H    -1.01407   1.31923   2.16163
H    -2.65936   0.83064   2.59230
H    -1.95476  -1.37836   3.00193
H    -0.28236  -0.94458   2.62484
H    -1.50244  -2.69137   0.95351
H    -3.06002  -1.20488  -0.64239
H    -3.64925  -1.07833   1.04414
