22
Generated by autodE on: 2022-05-30. E = -885.215167 Ha
C     2.73580   0.87015  -1.05605
C     1.92051  -0.03657  -0.16869
O     2.44671  -0.70662   0.71718
C     0.47216  -0.07794  -0.42563
C    -0.51228  -0.54380   0.38526
Cl   -0.37813  -1.23669   1.95719
C    -1.85583  -0.17290  -0.19686
C    -1.96730   1.37819  -0.01240
C    -0.87442   1.92420  -0.97406
C    -0.25996   0.62034  -1.57454
C    -1.51782  -0.26336  -1.69885
H     2.31904   1.89005  -1.05879
H     2.69736   0.50762  -2.09659
H     3.77841   0.88903  -0.71290
H    -2.70663  -0.74752   0.18669
H    -1.81175   1.67091   1.03553
H    -2.97282   1.70803  -0.31129
H    -0.11528   2.53190  -0.46198
H    -1.31517   2.53693  -1.77427
H     0.33427   0.77126  -2.48273
H    -1.29443  -1.28860  -2.02788
H    -2.29667   0.17628  -2.33965
