41
Generated by autodE on: 2022-05-30. E = -1450.221427 Ha. Imaginary frequency = -364.0 cm-1
C     4.14350  -2.31942   1.26405
N     3.11006  -1.34263   0.96817
C     1.81584  -1.61742   1.18551
O     1.38750  -2.67783   1.63549
C     0.89513  -0.51774   0.79272
N     0.75213   0.66879   0.94579
N    -0.02315   1.65404   0.81771
C     0.47187   2.81396   0.16909
O    -0.33036   3.68669  -0.15880
N     1.80195   2.89902  -0.03559
C     2.37609   4.03265  -0.73431
C    -1.55891  -0.03430  -0.59893
C    -1.45426   1.04287  -1.59176
C    -0.21854   1.17235  -2.45008
O    -2.39769   1.81886  -1.75694
C    -2.82922  -0.25201   0.22288
C    -2.50456  -0.26954   1.73971
C    -1.70405  -1.59144   1.90587
C    -1.62525  -2.14130   0.45665
C    -3.04351  -1.76495  -0.05053
C    -0.79642  -1.19077  -0.42222
Cl    0.23461  -1.92021  -1.66440
H     5.11350  -1.90005   0.97344
H     4.16360  -2.56106   2.33790
H     3.97122  -3.25169   0.70460
H     3.36811  -0.43990   0.57927
H     2.40898   2.13716   0.24872
H     2.05230   4.06409  -1.78749
H     3.46919   3.94810  -0.70321
H     2.08041   4.97928  -0.25686
H    -0.35315   0.55166  -3.35153
H    -0.12039   2.22062  -2.76236
H     0.70049   0.83497  -1.95700
H    -3.63015   0.43747  -0.06424
H    -1.93857   0.61896   2.04221
H    -3.44114  -0.29407   2.31548
H    -2.25260  -2.31809   2.52268
H    -0.71877  -1.45784   2.36615
H    -1.30950  -3.18735   0.38262
H    -3.19246  -1.99455  -1.11559
H    -3.85192  -2.21597   0.54604
