28
Generated by autodE on: 2022-06-09. E = -890.372923 Ha
C    -3.52372  -3.25506  -0.06071
N    -2.91407  -1.94039  -0.04771
C    -1.58738  -1.78549  -0.06277
O    -0.78157  -2.73223  -0.09346
C    -1.04628  -0.38914  -0.03687
N     0.27836  -0.39347   0.01948
C     1.30909   0.45337   0.14928
C     1.23615   1.84061   0.40929
N     1.28361   2.97599   0.66989
C     2.62206  -0.21942   0.11763
O     2.74021  -1.42517  -0.03072
O     3.63418   0.62967   0.26599
C     4.95761   0.07035   0.25090
C    -1.88678   0.80852  -0.16439
O    -3.09201   0.82124   0.04211
O    -1.19825   1.86197  -0.58256
C    -1.88624   3.11717  -0.68554
H    -3.24191  -3.83569   0.83237
H    -3.21187  -3.82660  -0.94862
H    -4.61361  -3.13779  -0.07827
H    -3.48481  -1.09841   0.01722
H     0.60966  -1.38667  -0.02599
H     5.07725  -0.64785   1.07457
H     5.14856  -0.43186  -0.70819
H     5.64130   0.91658   0.38079
H    -2.31163   3.39748   0.28842
H    -1.13014   3.84662  -0.99512
H    -2.68727   3.04932  -1.43497
