28
Generated by autodE on: 2022-07-27. E = -890.371826 Ha
C     3.61942  -3.16825  -0.17525
N     2.67465  -2.16598  -0.62225
C     1.71913  -1.65231   0.15903
O     1.53027  -1.96477   1.34792
C     0.81766  -0.61843  -0.44766
N    -0.02334  -0.13670   0.45766
C    -0.96230   0.80817   0.60237
C    -1.32142   1.80159  -0.33716
N    -1.66005   2.68556  -1.01767
C    -1.56540   0.82531   1.94966
O    -1.24707   0.03494   2.82334
O    -2.47460   1.78516   2.08994
C    -3.11810   1.88687   3.37066
C     0.81819  -0.26976  -1.87393
O     1.73581  -0.52722  -2.64074
O    -0.31267   0.31299  -2.24809
C    -0.41357   0.77804  -3.60189
H     4.65121  -2.79086  -0.24947
H     3.40927  -3.42494   0.86916
H     3.54019  -4.07859  -0.78969
H     2.73553  -1.79821  -1.57174
H     0.13052  -0.65598   1.35572
H    -2.37508   2.08508   4.15616
H    -3.81818   2.72558   3.28755
H    -3.65957   0.95801   3.60001
H    -1.38652   1.27593  -3.67390
H    -0.36131  -0.07034  -4.29858
H     0.39631   1.48833  -3.82002
