50
Generated by autodE on: 2022-10-21. E = -1406.172643 Ha
C    -1.94196   3.97213   1.86392
O    -1.12388   3.07093   1.09654
C    -1.72036   1.98875   0.62360
O    -2.89745   1.73356   0.73430
C    -0.75796   1.09907  -0.15061
O     0.25531   1.96322  -0.86235
C     0.74837   1.16459  -1.83507
O     1.63196   1.49287  -2.58265
C    -0.03441  -0.18199  -1.69835
C    -0.16210  -1.14469  -2.88735
C     0.52251  -0.80783  -4.16960
O    -0.86166  -2.12723  -2.73699
C     0.56429  -0.73771  -0.38943
C     0.09503   0.04730   0.59094
C     0.35967   0.13578   2.07364
C     1.42822   1.21744   2.30790
O    -0.93047   0.50399   2.59824
C    -0.98700   1.07481   3.89121
C     0.80348  -1.18991   2.71006
C    -0.03427  -2.43233   2.34773
C     0.72263  -3.48245   1.52233
C     0.89244  -3.22986   0.02068
C     1.51412  -1.90476  -0.39104
F     1.99248  -2.03544  -1.68391
F     2.63060  -1.62686   0.36029
N    -1.34041   0.31678  -1.20813
C    -2.13816   1.04179  -2.20353
H    -1.26736   4.75802   2.22025
H    -2.39868   3.44313   2.71091
H    -2.72852   4.40048   1.22692
H     0.11870   0.14528  -4.55037
H     0.35909  -1.60915  -4.90090
H     1.59545  -0.64511  -3.99431
H     1.67449   1.29382   3.37672
H     2.34096   0.93693   1.76484
H     1.09163   2.19764   1.94617
H    -0.53923   2.08171   3.92308
H    -2.05273   1.15626   4.14756
H    -0.49492   0.44230   4.65002
H     0.77706  -1.02166   3.79673
H     1.86057  -1.35646   2.46919
H    -0.35749  -2.92052   3.27943
H    -0.96226  -2.13346   1.83229
H     1.71679  -3.63520   1.97392
H     0.19937  -4.44782   1.60754
H    -0.07573  -3.28975  -0.49818
H     1.54051  -4.01214  -0.40507
H    -2.41485   0.34328  -3.00368
H    -1.61755   1.90603  -2.65239
H    -3.06117   1.39279  -1.72881
