23
Generated by autodE on: 2022-10-21. E = -741.491959 Ha
C     4.40252   0.04074   0.62157
O     3.02636   0.39986   0.40259
C     2.15788  -0.60067   0.33549
O     2.43646  -1.77765   0.44149
C     0.79096  -0.07496   0.11197
O     0.59622   1.23440  -0.02245
C    -0.79627   1.47603  -0.23069
O    -1.19396   2.61255  -0.37843
C    -1.38440   0.17773  -0.20277
C    -2.78468  -0.16290  -0.36822
C    -3.73141   0.98955  -0.59638
O    -3.19294  -1.32673  -0.32895
N    -0.35046  -0.73424   0.01344
C    -0.52459  -2.18767   0.11966
H     4.95567   0.98572   0.64677
H     4.50667  -0.49280   1.57685
H     4.76293  -0.59531  -0.19916
H    -3.69367   1.69750   0.24616
H    -3.44686   1.55426  -1.49785
H    -4.74919   0.59405  -0.70786
H    -1.21917  -2.39736   0.94006
H     0.45005  -2.64097   0.30619
H    -0.95556  -2.55908  -0.81650
