27
Generated by autodE on: 2022-10-21. E = -664.630612 Ha
C     1.35647   2.08447  -2.38501
O     0.89637   0.74466  -2.38163
C    -0.37131   0.50891  -1.76554
C    -1.50609   1.22498  -2.49813
C    -0.30480   0.84458  -0.33078
C    -0.18527   0.74098   0.87191
C     0.01609  -0.07061   2.07480
F     0.79193   0.56739   3.00809
F    -1.19778  -0.28141   2.69144
C     0.64600  -1.40726   1.70356
C    -0.04785  -2.16771   0.55739
C     0.38584  -1.85625  -0.90307
C    -0.56805  -1.02961  -1.78944
H     2.39593   2.06483  -2.74196
H     1.34111   2.52377  -1.37082
H     0.76569   2.72989  -3.05717
H    -2.47254   0.96846  -2.04144
H    -1.51552   0.90788  -3.55179
H    -1.38823   2.31674  -2.45590
H     1.69978  -1.20857   1.45410
H     0.63228  -2.01026   2.62571
H     0.15635  -3.23332   0.73927
H    -1.14070  -2.05848   0.66128
H     0.51455  -2.82370  -1.41165
H     1.38338  -1.38705  -0.91074
H    -1.61402  -1.24464  -1.52202
H    -0.43747  -1.32051  -2.84413
