50
Generated by autodE on: 2022-10-21. E = -1406.112651 Ha. Imaginary frequency = -341.2 cm-1
C    -1.39649   4.18847   1.93635
O    -0.75119   3.25648   1.05153
C    -1.52318   2.33727   0.49144
O    -2.72592   2.26734   0.62031
C    -0.70075   1.43180  -0.37809
O     0.36329   2.03214  -1.00258
C     0.77061   1.20226  -2.04208
O     1.75715   1.45068  -2.69580
C    -0.22445   0.13684  -2.07484
C    -0.30428  -0.95885  -3.06768
C     0.68933  -0.93536  -4.19310
O    -1.16003  -1.83045  -2.97333
C     0.96202  -0.69841  -0.14494
C     0.42693   0.00348   0.73990
C     0.23291   0.13916   2.21348
C     1.18555   1.19869   2.78030
O    -1.14547   0.49301   2.37829
C    -1.59745   0.82419   3.67682
C     0.53014  -1.24277   2.84077
C    -0.27144  -2.42469   2.25754
C     0.52894  -3.44586   1.42511
C     0.76712  -3.17798  -0.06677
C     1.63373  -1.97790  -0.41736
F     2.01189  -2.08040  -1.74117
F     2.82209  -2.03088   0.28618
N    -1.23812   0.51284  -1.23397
C    -2.36323  -0.34388  -0.86168
H    -0.59908   4.83166   2.32392
H    -1.89067   3.65139   2.75706
H    -2.13635   4.78433   1.38388
H     0.48237  -0.06433  -4.83733
H     0.59285  -1.86011  -4.77572
H     1.71270  -0.81830  -3.81568
H     1.12912   1.22504   3.87810
H     2.21786   0.94711   2.50025
H     0.94441   2.19213   2.38186
H    -1.09513   1.71816   4.08133
H    -2.67107   1.04029   3.58299
H    -1.46892  -0.00845   4.38990
H     0.34524  -1.15208   3.92234
H     1.61051  -1.42182   2.73161
H    -0.71270  -2.98015   3.09906
H    -1.12827  -2.04731   1.67537
H     1.50115  -3.62558   1.91353
H    -0.00706  -4.40736   1.46445
H    -0.18548  -3.05072  -0.60299
H     1.27625  -4.05076  -0.50686
H    -2.92162  -0.61683  -1.76133
H    -3.00302   0.20693  -0.17056
H    -1.97806  -1.25511  -0.38196
