30
Generated by autodE on: 2022-05-28. E = -713.127091 Ha
C     4.47639   1.23609   0.47414
N     3.19062   0.62815   0.73564
C     2.19454   0.55753  -0.16077
O     2.24626   1.00581  -1.31393
C     0.94652  -0.12435   0.33047
N     0.86249  -0.63084   1.50263
C    -0.46179  -1.22064   1.68282
C    -1.23881  -1.04949   0.36357
F    -1.54472  -2.31382  -0.15228
C    -2.48173  -0.15112   0.42543
C    -3.15444  -0.15572  -0.96337
C    -2.17153   0.67542  -1.84409
C    -1.04047   1.04029  -0.86095
C    -1.82524   1.24440   0.45146
C    -0.26006  -0.26277  -0.55578
H     5.28969   0.49935   0.57001
H     4.47975   1.63459  -0.54734
H     4.67332   2.06028   1.17760
H     3.00716   0.20854   1.64307
H    -0.96289  -0.73674   2.53504
H    -0.36765  -2.28879   1.93294
H    -3.15055  -0.39766   1.26144
H    -4.14129   0.32518  -0.90189
H    -3.30392  -1.17721  -1.33715
H    -2.65360   1.58787  -2.22514
H    -1.79444   0.11114  -2.70969
H    -0.39913   1.86778  -1.18840
H    -1.18580   1.42466   1.32849
H    -2.56451   2.05650   0.38662
H    -0.01072  -0.81655  -1.47308
