13
Generated by autodE on: 2022-05-28. E = -340.857058 Ha
C     2.65433  -0.76562  -0.51479
N     1.53318  -0.15916  -0.51901
C     0.48103   0.45826  -0.60284
C    -0.54455   0.58620   0.45551
O    -0.39093   1.43422   1.34364
N    -1.64364  -0.17996   0.31961
C    -1.80304  -1.23602  -0.66249
H     2.72350  -1.77357  -0.93519
H     3.53241  -0.27048  -0.08869
H    -2.34555  -0.07229   1.04802
H    -1.37568  -2.19436  -0.32409
H    -2.87138  -1.38405  -0.86831
H    -1.31016  -0.95272  -1.60457
