30
Generated by autodE on: 2022-05-28. E = -712.986199 Ha. Imaginary frequency = -344.4 cm-1
C     4.32576   1.92160   0.29693
N     3.00338   1.36651   0.51542
C     2.73284   0.07060   0.27290
O     3.55246  -0.73608  -0.18467
C     1.33176  -0.33223   0.48177
N     0.76499  -0.91529   1.38906
C    -0.33786  -1.43007   1.85684
C    -1.59303  -0.96821  -0.19158
F    -1.92691  -2.28004  -0.35793
C    -2.64104   0.01884   0.28220
C    -3.46205   0.41548  -0.98538
C    -2.42458   1.20754  -1.83929
C    -1.12985   1.14623  -0.96461
C    -1.74764   1.26406   0.44579
C    -0.68898  -0.30883  -0.97988
H     5.06267   1.51528   1.00910
H     4.67792   1.69753  -0.72129
H     4.27792   3.00978   0.42421
H     2.27111   1.95346   0.90341
H    -0.89769  -0.86070   2.60454
H    -0.44961  -2.51784   1.83161
H    -3.24003  -0.29593   1.14664
H    -4.31811   1.04793  -0.70473
H    -3.85634  -0.47247  -1.50106
H    -2.74116   2.25259  -1.98295
H    -2.26361   0.76752  -2.83439
H    -0.36211   1.88495  -1.23125
H    -1.01014   1.17719   1.25500
H    -2.33026   2.18830   0.57961
H    -0.11373  -0.76576  -1.78534
