62
Generated by autodE on: 2022-06-12. E = -1557.673328 Ha
C    -0.38208  -5.58702  -3.12533
N    -0.66904  -5.11933  -1.78401
C    -0.20548  -5.78563  -0.70803
O     0.53211  -6.77220  -0.77813
N    -0.57966  -5.24640   0.52157
C    -0.49293  -5.80300   1.82528
C    -1.48620  -5.25225   2.57260
N    -2.23443  -4.36751   1.68519
C    -3.51547  -4.63431   1.38365
N    -4.64325  -4.78647   1.13195
N    -1.40081  -4.08763   0.56765
C    -0.59097  -2.89074   0.84397
C    -1.90283  -5.32363   4.04630
C    -2.27994  -6.71685   4.34268
N    -2.60335  -7.80320   4.59082
C    -3.15502  -4.43820   4.28482
C    -4.40011  -4.96957   4.63381
C    -5.50711  -4.13145   4.80872
C    -5.38199  -2.75396   4.63071
C    -4.13730  -2.21451   4.28543
C    -3.03299  -3.04805   4.11989
C    -0.77355  -4.85039   5.06143
C     0.67666  -4.81080   4.59007
C     1.40122  -6.15121   4.49745
C     0.76733  -7.21602   3.60574
C     0.55615  -6.86061   2.10150
C     1.92131  -6.32793   1.57988
O     2.12686  -5.11033   1.51834
N     2.86813  -7.24058   1.33517
C     4.16640  -6.85508   0.82137
C     0.11719  -8.21004   1.45719
O     0.93499  -9.11169   1.23024
N    -1.19574  -8.39270   1.27307
C    -1.71939  -9.63232   0.73145
H    -0.70204  -4.81966  -3.84100
H    -0.90833  -6.52801  -3.35865
H     0.69650  -5.75917  -3.25215
H    -1.35868  -4.38951  -1.63401
H    -1.27079  -2.03091   0.89935
H    -0.01951  -2.98173   1.78143
H     0.09856  -2.75482   0.00101
H    -4.52573  -6.04469   4.76214
H    -6.47138  -4.56683   5.08021
H    -6.24758  -2.10025   4.75983
H    -4.02526  -1.13749   4.14190
H    -2.07253  -2.61415   3.83770
H    -1.04984  -3.83344   5.35917
H    -0.86935  -5.47247   5.96433
H     1.21885  -4.18926   5.32129
H     0.74669  -4.27025   3.63524
H     1.46958  -6.58858   5.50785
H     2.43810  -5.96768   4.17426
H     1.41712  -8.10174   3.61027
H    -0.18635  -7.55628   4.02226
H     2.54033  -8.20736   1.26833
H     4.09601  -6.45400  -0.20447
H     4.82317  -7.73413   0.81124
H     4.62045  -6.08048   1.45654
H    -1.84317  -7.64887   1.51278
H    -1.45019 -10.48960   1.36791
H    -1.32277  -9.81712  -0.27930
H    -2.81220  -9.55835   0.67709
