45
Generated by autodE on: 2022-06-12. E = -1051.824512 Ha
C    -0.64208  -3.46268   3.50735
N    -0.62567  -2.52744   2.39963
C    -1.36944  -2.66600   1.29580
O    -2.15852  -3.60355   1.11008
C    -1.17389  -1.59778   0.20231
C    -2.50861  -0.86957  -0.15033
O    -2.51476   0.33764  -0.41049
N    -3.58966  -1.65672  -0.21003
C    -4.90873  -1.17868  -0.57080
C    -0.16004  -0.59492   0.50456
C     0.74986   0.18135   0.32469
C     1.80711   0.90139  -0.39296
C     3.10864   0.35589   0.03567
N     4.11876  -0.09446   0.34181
C     1.75794   2.42425  -0.20818
C     0.51328   3.05072  -0.05668
C     0.43504   4.44144   0.03978
C     1.59765   5.21768  -0.01489
C     2.83846   4.59463  -0.17117
C     2.91936   3.20195  -0.26937
C     1.58485   0.54497  -1.91669
C     1.30752  -0.93373  -2.24360
C    -0.17048  -1.41898  -2.23437
C    -0.63566  -2.33310  -1.08485
H     0.34818  -3.92405   3.64348
H    -1.37602  -4.24948   3.29944
H    -0.92009  -2.95154   4.44155
H     0.00391  -1.73112   2.45120
H    -3.46124  -2.62438   0.09138
H    -5.37341  -1.86099  -1.29769
H    -5.56747  -1.11057   0.31050
H    -4.82238  -0.18256  -1.02085
H    -0.39582   2.44635  -0.02169
H    -0.53956   4.92013   0.16023
H     1.53561   6.30544   0.06463
H     3.75182   5.19228  -0.21546
H     3.89407   2.72490  -0.39183
H     2.48160   0.89545  -2.44962
H     0.74405   1.16970  -2.25207
H     1.92660  -1.58327  -1.60146
H     1.69097  -1.08636  -3.26390
H    -0.32373  -2.00196  -3.15524
H    -0.84807  -0.55384  -2.31942
H    -1.44049  -2.99520  -1.43272
H     0.19632  -2.97949  -0.76353
