62
Generated by autodE on: 2022-06-12. E = -1557.590469 Ha. Imaginary frequency = -325.6 cm-1
C    -0.23302  -5.53555  -3.23232
N    -1.10149  -5.56886  -2.06892
C    -0.64071  -6.00133  -0.87948
O     0.51903  -6.36960  -0.69942
N    -1.59964  -6.13464   0.15467
C    -0.95495  -6.35783   2.17334
C    -1.95162  -5.96089   2.81854
N    -3.37335  -5.47714   1.29479
C    -3.89164  -6.71038   1.20012
N    -4.43698  -7.74136   1.15733
N    -2.48622  -5.19113   0.35223
C    -2.15939  -3.76270   0.20655
C    -2.55864  -5.58254   4.12056
C    -3.79671  -6.36093   4.31319
N    -4.75151  -6.99188   4.50012
C    -2.87190  -4.07597   4.20248
C    -3.91402  -3.61261   5.01673
C    -4.15158  -2.24243   5.15052
C    -3.34811  -1.31931   4.47465
C    -2.30399  -1.77729   3.66694
C    -2.06658  -3.14774   3.53179
C    -1.57542  -5.98943   5.28229
C    -0.15296  -5.43114   5.10791
C     0.93184  -6.46938   4.78775
C     0.67216  -7.49260   3.68000
C     0.39306  -6.97080   2.22335
C     1.43438  -5.88001   1.85811
O     1.12843  -4.68210   1.89973
N     2.67507  -6.30879   1.60127
C     3.70644  -5.39330   1.15594
C     0.50916  -8.24088   1.34062
O     1.61131  -8.77191   1.14846
N    -0.63228  -8.79884   0.91633
C    -0.61618  -9.94154   0.02229
H    -0.77744  -5.06475  -4.05972
H     0.07385  -6.54918  -3.53797
H     0.67427  -4.94993  -3.02361
H    -2.09130  -5.38279  -2.19220
H    -2.90089  -3.19193   0.77147
H    -1.14638  -3.59202   0.59581
H    -2.20399  -3.48201  -0.85134
H    -4.54950  -4.32173   5.55098
H    -4.97137  -1.89739   5.78476
H    -3.53638  -0.24808   4.57655
H    -1.66885  -1.06719   3.13243
H    -1.25188  -3.49136   2.89665
H    -2.03470  -5.62585   6.21186
H    -1.56280  -7.08763   5.34115
H    -0.14209  -4.65073   4.33722
H     0.14236  -4.92179   6.03770
H     1.12823  -7.06419   5.69610
H     1.86956  -5.93061   4.57578
H    -0.17375  -8.14416   3.94593
H     1.55672  -8.14124   3.61045
H     2.76602  -7.31324   1.43351
H     4.66222  -5.92940   1.10089
H     3.47410  -4.97718   0.16047
H     3.81008  -4.55447   1.85922
H    -1.47735  -8.23627   0.94240
H    -0.02356 -10.76116   0.45232
H    -1.64647 -10.28681  -0.12790
H    -0.18063  -9.67721  -0.95610
