9
Generated by autodE on: 2022-05-25. E = -230.086600 Ha
C     1.96292  -0.95784   0.09228
C     0.89080  -0.39162   0.03798
C    -0.40087   0.28334  -0.02775
C    -1.61148  -0.59733   0.06927
O    -0.45614   1.49733  -0.15548
H     2.91812  -1.45642   0.13967
H    -2.52411   0.01106   0.01868
H    -1.59769  -1.33457  -0.75051
H    -1.58165  -1.16602   1.01317
