18
Generated by autodE on: 2022-07-26. E = -476.525118 Ha
C     2.99277   0.98018   0.43795
O     1.65694   0.47948   0.40995
C     0.99133   0.62821  -0.76872
O     1.51758   1.16124  -1.74993
N    -0.27783   0.17043  -0.82776
O    -0.61070  -0.39828   0.43384
C    -1.77961  -0.86627   0.59256
C    -2.06067  -1.45239   1.91821
C    -2.77512  -0.81759  -0.49122
H     3.37184   0.77936   1.44827
H     3.01670   2.06301   0.24149
H     3.62577   0.46953  -0.30384
H    -2.36594  -2.50446   1.78491
H    -2.92514  -0.93066   2.36318
H    -1.18910  -1.38678   2.58064
H    -2.37452  -1.34516  -1.37352
H    -2.91471   0.23049  -0.80600
H    -3.72579  -1.25942  -0.17277
