27
Generated by autodE on: 2022-05-25. E = -706.603868 Ha. Imaginary frequency = -271.1 cm-1
C     4.16069   0.06932   0.02615
O     2.78950  -0.34948   0.00151
C     2.05075   0.11493  -1.01576
O     2.47883   0.85072  -1.89457
N     0.73436  -0.29430  -1.04546
C    -0.42128   1.34607  -0.92614
C    -1.35683   1.23246  -0.11161
C    -2.39105   1.09057   0.84612
C    -2.07072   1.56167   2.24670
O    -3.49744   0.60053   0.56595
C    -0.78448  -1.40434   0.26126
C    -1.12739  -1.86743   1.62389
C    -1.67430  -1.68876  -0.88268
O     0.41013  -0.93915   0.14353
H     4.60371  -0.40592   0.90933
H     4.23057   1.16354   0.11058
H     4.68374  -0.26130  -0.88295
H     0.14172   1.89808  -1.66826
H    -1.14257   1.09359   2.60972
H    -2.90499   1.31284   2.91690
H    -1.91060   2.65209   2.24739
H    -1.13618  -2.97151   1.62984
H    -2.15041  -1.54266   1.86945
H    -0.41107  -1.49649   2.36654
H    -1.25184  -1.36242  -1.83665
H    -2.65052  -1.20861  -0.70699
H    -1.85431  -2.77851  -0.89127
