47
Generated by autodE on: 2022-06-06. E = -4272.683812 Ha
C    -1.74814  -4.67819   0.51584
N    -1.63451  -3.25050   0.73441
C    -1.99449  -2.33506  -0.16716
O    -2.46913  -2.57828  -1.28086
C    -1.76010  -0.86987   0.26261
C    -3.07112  -0.02540   0.38845
C    -4.29174  -0.74023   0.86088
O    -3.00990   1.16670   0.17413
O    -1.20889  -0.83475   1.56998
C     0.06411  -0.21923   1.57573
C    -0.01534   1.02516   2.47337
O    -0.98168   1.75198   2.51584
O     1.08640   1.17439   3.19347
C     1.18226   2.35975   3.99837
C     0.35678   0.12286   0.11665
C    -0.72357  -0.19294  -0.62666
C    -1.04227   0.04502  -2.11503
C    -0.77355   1.45423  -2.47668
N    -0.62448   2.56343  -2.77644
C    -2.49555  -0.06341  -2.40601
N    -3.59761  -0.05787  -2.76353
C    -0.34524  -0.98323  -3.09388
C     1.09718  -0.72539  -3.50922
C     2.13560  -0.62694  -2.39255
C     2.14163   0.74603  -1.69682
C     1.67293   0.76098  -0.25043
Cl    1.61806   2.50615   0.28942
Br    3.13448  -0.14992   0.79847
H    -0.75360  -5.14521   0.43893
H    -2.29218  -5.15027   1.34699
H    -2.29532  -4.85439  -0.41777
H    -1.24812  -2.90196   1.60771
H    -4.62005  -1.43442   0.07013
H    -4.05144  -1.34833   1.74689
H    -5.09146  -0.02404   1.08671
H     0.80475  -0.91431   1.99428
H     0.37136   2.38574   4.73986
H     2.15600   2.30653   4.49777
H     1.12876   3.25396   3.36081
H    -0.44706  -1.96042  -2.60498
H    -0.96325  -1.00938  -4.00192
H     1.36095  -1.56737  -4.16866
H     1.14861   0.17944  -4.13767
H     3.13008  -0.79233  -2.83013
H     1.98741  -1.44018  -1.66418
H     1.53089   1.46460  -2.25426
H     3.14989   1.17936  -1.69511
