25
Generated by autodE on: 2022-07-27. E = -742.642223 Ha
C    -0.57234  -4.34086  -0.53169
N    -0.15831  -2.95340  -0.51131
C    -1.04711  -1.96408  -0.26152
O    -2.23969  -2.21135  -0.01375
C    -0.52154  -0.58974  -0.25882
O     0.78506  -0.51502  -0.65358
C     1.58483   0.47550  -0.52473
C     1.48336   1.48160   0.55760
O     0.99895   1.24880   1.64656
O     2.12084   2.59612   0.22089
C     2.16355   3.63547   1.21434
C    -1.27610   0.62861  -0.31655
C    -2.78173   0.59133  -0.23680
O    -0.69682   1.71949  -0.50175
H    -1.32264  -4.53069  -1.31669
H    -1.01365  -4.64104   0.43217
H     0.30570  -4.96865  -0.72656
H     0.80615  -2.72207  -0.71823
H     2.50225   0.39321  -1.11502
H     2.70051   3.28688   2.10800
H     1.14237   3.93551   1.48933
H     2.69672   4.47250   0.75046
H    -3.21359  -0.09991  -0.97288
H    -3.09314   0.23594   0.75698
H    -3.15750   1.60997  -0.39978
