22
Generated by autodE on: 2022-06-06. E = -3529.897214 Ha
N    -1.81639   1.14928  -4.31889
C    -1.84047   0.99821  -3.17080
C    -1.87769   0.75948  -1.71461
C    -2.65583   1.84234  -1.07396
N    -3.28053   2.66222  -0.54549
C    -0.53941   0.68517  -1.11773
C     0.31496   0.26073  -0.37422
C     0.91683  -0.60028   0.61333
Cl    1.98334  -1.81340  -0.22033
Br    2.03927   0.44786   1.88115
C    -0.21218  -1.31259   1.38100
C    -1.29251  -1.97099   0.49773
C    -2.50034  -1.10791   0.03872
C    -2.56165  -0.63915  -1.42620
H    -0.67889  -0.56372   2.03900
H     0.26342  -2.06613   2.02546
H    -0.81809  -2.45831  -0.36942
H    -1.69967  -2.79071   1.10765
H    -3.40108  -1.72478   0.17279
H    -2.63639  -0.24890   0.71724
H    -2.06646  -1.36329  -2.08922
H    -3.60599  -0.54086  -1.75559
