47
Generated by autodE on: 2022-06-06. E = -4272.546322 Ha. Imaginary frequency = -160.1 cm-1
C    -1.71643  -4.25594  -0.21463
N    -1.43774  -2.91708   0.26485
C    -2.41819  -2.00387   0.39284
O    -3.60937  -2.24451   0.16664
C    -1.98896  -0.64608   0.84732
C    -3.03247   0.43610   0.81665
C    -3.58338   0.87530   2.14467
O    -3.52472   0.78123  -0.24306
O    -0.99344  -0.67732   1.70314
C    -0.22242   0.25359   2.19668
C    -0.47421   1.69110   2.08461
O    -1.22583   2.22476   1.28165
O     0.28466   2.36343   2.95158
C     0.30970   3.79069   2.81462
C     0.80663   0.28323  -0.24963
C    -0.22195   0.15362  -0.90866
C    -0.95150   0.32191  -2.18771
C    -1.48018   1.70277  -2.23583
N    -1.82732   2.80571  -2.30448
C    -2.05843  -0.63133  -2.40453
N    -2.85622  -1.41657  -2.69998
C     0.04079   0.09509  -3.39485
C     1.33448   0.91375  -3.37510
C     2.56012   0.29381  -2.66340
C     2.96002   0.89571  -1.31200
C     2.24653   0.34472  -0.07012
Cl    2.75719   1.34678   1.34887
Br    2.85682  -1.54221   0.28878
H    -2.08526  -4.23734  -1.25373
H    -0.79369  -4.84709  -0.17484
H    -2.48075  -4.74345   0.40892
H    -0.47369  -2.61797   0.36934
H    -4.48763   0.26580   2.31727
H    -2.89825   0.70676   2.98568
H    -3.87486   1.93350   2.09578
H     0.55765  -0.13191   2.84971
H    -0.70088   4.20843   2.92707
H     0.96527   4.15802   3.61209
H     0.71549   4.06835   1.83060
H     0.26393  -0.98166  -3.40498
H    -0.54061   0.32059  -4.30039
H     1.60331   1.05135  -4.43273
H     1.13803   1.92876  -2.99134
H     3.43098   0.43998  -3.31897
H     2.44060  -0.79821  -2.57304
H     2.75870   1.97917  -1.31856
H     4.03877   0.77341  -1.13871
