33
Generated by autodE on: 2022-10-22. E = -748.168191 Ha
C    -1.96740  -1.47480   1.81076
C    -1.43636  -1.65186   0.59518
C    -1.07491  -3.00159   0.04134
C    -1.12874  -0.51325  -0.34626
C     0.37092  -0.02480  -0.33851
C     1.22831  -0.63338   0.72900
C     2.28721  -1.44280   0.54787
C     2.79520  -1.90523  -0.78993
C     3.04823  -1.98346   1.72862
C     0.12309   1.49186  -0.08027
C     1.23829   2.34993   0.43808
O    -1.03159   1.45672   0.80085
N    -1.90911   0.72701  -0.01726
O    -1.84256   1.52304  -1.27568
C    -0.57088   2.00780  -1.33695
O    -0.16252   2.67627  -2.24834
H    -2.16948  -2.33195   2.45957
H    -2.21536  -0.48469   2.19917
H    -0.02132  -3.02348  -0.28311
H    -1.68463  -3.22915  -0.85015
H    -1.22784  -3.79641   0.78503
H    -1.43308  -0.80389  -1.35903
H     0.81360  -0.16499  -1.33079
H     0.93391  -0.39106   1.75452
H     2.23030  -1.50258  -1.64051
H     2.75844  -3.00701  -0.84711
H     3.85537  -1.62512  -0.91623
H     3.02230  -3.08743   1.73542
H     4.11373  -1.69986   1.66959
H     2.64284  -1.62006   2.68430
H     2.03789   2.38279  -0.31619
H     0.88157   3.37413   0.61777
H     1.65007   1.93752   1.36791
