23
Generated by autodE on: 2022-10-22. E = -351.521383 Ha
C    -0.20554   3.76920   0.22344
C    -0.58176   2.48554   0.41441
C    -1.84605   2.14235   1.16002
C     0.24403   1.39776  -0.10616
C    -0.02322   0.07324   0.01675
C     0.83127  -0.96628  -0.51990
C     0.63501  -2.30682  -0.44153
C     1.61809  -3.26487  -1.05269
C    -0.53839  -2.95495   0.23678
H    -0.80429   4.60222   0.60221
H     0.71319   4.01497  -0.31812
H    -2.36957   3.04897   1.49473
H    -1.62910   1.52088   2.04475
H    -2.53474   1.55820   0.52720
H     1.15358   1.69983  -0.63931
H    -0.92840  -0.23580   0.54652
H     1.72932  -0.61695  -1.04369
H     1.12354  -3.90732  -1.80337
H     2.02540  -3.94952  -0.28704
H     2.45796  -2.74617  -1.53780
H    -1.24474  -2.23997   0.67777
H    -0.19052  -3.63248   1.03656
H    -1.09185  -3.58746  -0.47969
