10
Generated by autodE on: 2022-10-22. E = -396.601693 Ha
C    -2.19210  -0.44088  -0.02491
C    -0.72537  -0.30478  -0.00694
O     0.06813  -1.36582  -0.01147
N     1.35853  -1.06648   0.00045
O     1.40012   0.26509   0.01329
C     0.10905   0.84655   0.00930
O    -0.06339   2.04728   0.02047
H    -2.63575   0.55991   0.06030
H    -2.53530  -0.90324  -0.96478
H    -2.54218  -1.06366   0.81319
