61
Generated by autodE on: 2022-06-09. E = -2177.074410 Ha
C     3.86308 -17.96736   0.71752
O     3.32900 -16.70746   0.27634
C     4.20412 -15.78869  -0.11186
O     5.40076 -15.94325  -0.09821
C     3.47478 -14.46729  -0.50788
Cl    4.81663 -13.26101  -0.81664
C     2.60858 -14.03135   0.73452
C     1.12683 -13.74470   0.48046
C     0.81958 -12.31555   0.00810
C     1.84166 -11.66328  -0.92370
C     1.90377 -12.18271  -2.38179
C     3.13207 -11.55917  -3.10422
O     3.91128 -12.16806  -3.79926
O     3.18790 -10.24794  -2.89528
C     4.25983  -9.53176  -3.53430
C     0.72212 -11.63567  -3.22197
O     0.61672 -11.87394  -4.41085
O    -0.12034 -10.87710  -2.55293
C    -1.24614 -10.35018  -3.28147
C     1.99196 -13.69475  -2.52873
C     2.66175 -14.60985  -1.79312
N     2.49483 -15.92433  -2.28007
C     3.65742 -16.60012  -2.79867
C     3.68553 -17.99637  -2.72238
C     4.79473 -18.68932  -3.20837
C     5.87410 -17.98635  -3.75585
C     5.83819 -16.59031  -3.83131
C     4.72504 -15.89076  -3.36227
O     1.48591 -15.83642  -3.30876
C     1.32292 -14.46351  -3.67379
C     1.94244 -14.24369  -5.00529
N     2.47399 -14.18713  -6.03409
C    -0.21467 -14.28778  -3.70246
O    -0.84750 -14.04502  -2.70007
O    -0.71784 -14.50537  -4.90015
C    -2.14676 -14.37978  -5.04238
H     4.49995 -18.40512  -0.06283
H     2.99566 -18.60807   0.90997
H     4.44756 -17.82445   1.63750
H     3.09885 -13.16159   1.19178
H     2.68022 -14.84209   1.46751
H     0.59789 -13.90781   1.43226
H     0.71555 -14.48981  -0.21501
H     0.77671 -11.66731   0.89877
H    -0.18241 -12.28566  -0.44352
H     1.63269 -10.58990  -0.98304
H     2.84344 -11.73944  -0.48777
H     4.13125  -8.48216  -3.24787
H     4.19246  -9.64470  -4.62542
H     5.22905  -9.91075  -3.18116
H    -0.89875  -9.74351  -4.12853
H    -1.79981  -9.73406  -2.56505
H    -1.87237 -11.17760  -3.64378
H     2.84253 -18.52203  -2.27154
H     4.82279 -19.77940  -3.14914
H     6.74743 -18.52944  -4.12399
H     6.67918 -16.04207  -4.26130
H     4.68796 -14.80263  -3.42695
H    -2.65769 -15.07039  -4.35802
H    -2.36571 -14.63478  -6.08467
H    -2.44725 -13.34435  -4.82744
