23
Generated by autodE on: 2022-07-27. E = -721.255600 Ha
C    -3.97925   0.56343  -1.02003
O    -2.57512   0.52685  -0.72137
C    -1.88450   1.64284  -0.97145
O    -2.36112   2.66830  -1.43081
C    -0.47039   1.52095  -0.63520
C     0.43109   2.58477  -0.82203
N     1.16998   3.47423  -0.98144
O    -0.05964   0.35997  -0.14000
N     1.18202   0.16232   0.18980
C     1.37401  -1.11050   0.67681
C     0.36143  -2.09384   0.80327
C     0.69038  -3.34231   1.31125
C     2.01012  -3.63253   1.69712
C     3.01124  -2.66175   1.57225
C     2.70168  -1.40459   1.06500
H    -4.36739  -0.42637  -0.75472
H    -4.13950   0.76171  -2.08960
H    -4.47852   1.34091  -0.42400
H    -0.66024  -1.86249   0.50219
H    -0.08482  -4.10495   1.41138
H     2.25425  -4.61958   2.09547
H     4.03611  -2.88886   1.87220
H     3.46359  -0.63070   0.95764
