23
Generated by autodE on: 2022-06-09. E = -721.255611 Ha
C     3.68513   1.29853  -1.39454
O     2.49546   0.74742  -0.80874
C     2.67329  -0.17847   0.13802
O     3.75966  -0.57648   0.52662
C     1.41682  -0.68345   0.67960
C     1.38336  -1.66359   1.68818
N     1.36785  -2.47698   2.52523
O     0.29302  -0.18076   0.18320
N    -0.87144  -0.57233   0.60727
C    -1.88943   0.08080  -0.04917
C    -3.19253  -0.29273   0.35374
C    -4.29791   0.30250  -0.24409
C    -4.11932   1.26873  -1.24148
C    -2.82516   1.64152  -1.64269
C    -1.70962   1.05914  -1.05846
H     4.29738   1.79368  -0.62710
H     4.27500   0.50864  -1.88142
H     3.34243   2.02863  -2.13634
H    -3.30472  -1.04836   1.13305
H    -5.30414   0.01414   0.06625
H    -4.98810   1.73546  -1.71039
H    -2.69423   2.39610  -2.42116
H    -0.70313   1.34374  -1.36507
