38
Generated by autodE on: 2022-06-09. E = -1455.715045 Ha
C    -1.75184  -4.42367  -2.72223
O    -0.85702  -3.30879  -2.56462
C    -0.79072  -2.76008  -1.36025
O    -1.44100  -3.11495  -0.40220
C     0.21304  -1.60404  -1.31585
Cl    1.88125  -2.42514  -1.39156
C     0.14027  -0.83120  -0.09200
C     0.18140   0.16520   0.59395
C     0.30701   1.57772   0.93061
C     1.16459   1.79585   2.19094
O     2.17493   2.45721   2.23183
O     0.63446   1.15830   3.23038
C     1.31291   1.28953   4.49194
C    -1.04233   2.26167   1.21272
O    -1.10781   3.35872   1.72460
O    -2.08476   1.55738   0.80130
C    -3.38313   2.15572   0.97355
C     0.96133   2.26236  -0.31317
C     0.34887   1.89132  -1.67830
C     0.92309   0.65474  -2.42709
C     0.07079  -0.62574  -2.50252
H    -2.78244  -4.11978  -2.49116
H    -1.45075  -5.24678  -2.05875
H    -1.66875  -4.72832  -3.77130
H     1.33939   2.34465   4.79896
H     0.73235   0.69750   5.20806
H     2.33775   0.90026   4.41403
H    -3.44112   3.09893   0.41275
H    -4.10084   1.42895   0.57762
H    -3.57332   2.34384   2.03933
H     0.89266   3.34760  -0.14804
H     2.03003   2.00422  -0.29665
H    -0.74679   1.80426  -1.59169
H     0.52078   2.76466  -2.32504
H     1.08742   0.95748  -3.47203
H     1.92236   0.40332  -2.03503
H    -0.99893  -0.36247  -2.56233
H     0.31294  -1.18884  -3.41428
