61
Generated by autodE on: 2022-06-09. E = -2176.984460 Ha. Imaginary frequency = -163.0 cm-1
C     2.80603 -17.48448   0.37295
O     3.09601 -16.22804  -0.26709
C     4.33782 -15.77449  -0.16872
O     5.24531 -16.35475   0.37789
C     4.44329 -14.34227  -0.71888
Cl    6.12544 -14.10371  -1.40962
C     4.31437 -13.36450   0.48343
C     3.03381 -13.46048   1.32584
C     1.66891 -13.21363   0.65697
C     1.58751 -11.95185  -0.22055
C     1.51479 -12.22886  -1.75978
C     1.84451 -10.93188  -2.53099
O     2.34916  -9.94978  -2.03601
O     1.53244 -11.05126  -3.80951
C     1.83895  -9.95690  -4.68538
C     0.09379 -12.70358  -2.08304
O    -0.22795 -13.86840  -2.16651
O    -0.74616 -11.68103  -2.18623
C    -2.11581 -11.98740  -2.50198
C     2.51236 -13.26983  -2.09225
C     3.45024 -13.98370  -1.73127
N     3.85556 -15.48570  -3.56682
C     4.06310 -16.80972  -3.18321
C     3.03977 -17.78143  -3.10138
C     3.35873 -19.07647  -2.71562
C     4.68249 -19.42169  -2.40000
C     5.69392 -18.45986  -2.47996
C     5.39260 -17.15864  -2.87597
O     2.63594 -15.35526  -4.04275
C     2.22830 -14.15733  -4.43735
C     3.17630 -13.20575  -4.89823
N     3.95968 -12.44405  -5.30007
C     0.82797 -14.11264  -4.90730
O     0.33510 -13.13684  -5.44183
O     0.18876 -15.25668  -4.67688
C    -1.20505 -15.29879  -5.02065
H     3.51886 -18.25163   0.04806
H     1.78912 -17.74885   0.06460
H     2.85773 -17.36099   1.46422
H     4.43940 -12.35213   0.07389
H     5.17555 -13.56116   1.13895
H     3.00038 -14.43753   1.83534
H     3.16611 -12.71312   2.12596
H     0.92866 -13.12757   1.46666
H     1.36779 -14.09930   0.07981
H     0.70581 -11.34662   0.03396
H     2.46060 -11.30564  -0.06142
H     1.51957 -10.27983  -5.68205
H     1.28616  -9.05905  -4.37486
H     2.91853  -9.75456  -4.67593
H    -2.52815 -12.69923  -1.77410
H    -2.17236 -12.40959  -3.51554
H    -2.65444 -11.03459  -2.45602
H     2.01146 -17.50623  -3.33285
H     2.56908 -19.82777  -2.64752
H     4.92026 -20.44161  -2.09059
H     6.72475 -18.72486  -2.23659
H     6.16799 -16.39723  -2.94814
H    -1.52788 -16.32786  -4.82774
H    -1.34990 -15.04424  -6.07968
H    -1.76832 -14.59923  -4.38706
