32
Generated by autodE on: 2022-06-14. E = -909.817636 Ha
C    -1.52873   3.46406  -1.15920
N    -1.57698   2.02487  -1.01615
C    -0.74127   1.38456  -0.17687
O     0.14556   1.99255   0.44672
C    -0.97063  -0.07501   0.01312
C    -2.07586  -0.78228  -0.63105
O    -3.02802  -0.24668  -1.19385
O    -1.92054  -2.11461  -0.62317
C    -2.97750  -2.89378  -1.19662
N    -0.13645  -0.75114   0.85788
C    -0.67570  -1.76747   1.79348
C     1.16919  -0.45231   0.95937
C     1.89549  -0.91018   2.08399
N     2.54439  -1.26218   2.98840
C     1.93453   0.14416  -0.18885
O     1.52457   0.05929  -1.34880
N     3.11951   0.68913   0.13062
C     3.98267   1.25514  -0.88823
H    -1.89866   3.98468  -0.25898
H    -0.49614   3.79739  -1.33830
H    -2.15191   3.75742  -2.01338
H    -2.37514   1.49799  -1.36931
H    -3.09544  -2.65689  -2.26377
H    -2.67836  -3.94091  -1.07216
H    -3.92614  -2.70444  -0.67352
H    -1.76541  -1.76966   1.74608
H    -0.36847  -1.48393   2.80866
H    -0.27016  -2.75557   1.54570
H     3.38639   0.77884   1.10610
H     4.25541   0.49807  -1.63911
H     3.48536   2.08896  -1.40925
H     4.89609   1.62730  -0.40978
