23
Generated by autodE on: 2022-06-14. E = -2028.221886 Ha
F    -1.97085   2.15447   1.63761
C    -2.05695   0.82007   1.60885
F    -3.33678   0.48253   1.79360
F    -1.35273   0.34649   2.64809
C    -1.50385   0.24052   0.29302
Cl   -2.49956   0.98240  -1.05870
C    -0.10761   0.57128   0.07959
C     1.03557   0.40070  -0.28009
C     2.16338  -0.34436  -0.79288
Cl    3.20285  -0.87345   0.61233
Cl    3.18796   0.66212  -1.90455
C     1.62287  -1.57482  -1.54515
C     0.56267  -2.40127  -0.78978
C    -0.93062  -1.99477  -0.93669
C    -1.62724  -1.30042   0.24931
H     1.20197  -1.20247  -2.49202
H     2.49278  -2.19967  -1.79532
H     0.83780  -2.47313   0.27511
H     0.65794  -3.42326  -1.18497
H    -1.07581  -1.39629  -1.85080
H    -1.49897  -2.92151  -1.10240
H    -1.21378  -1.67955   1.19730
H    -2.70186  -1.53233   0.24489
