64
Generated by autodE on: 2022-06-29. E = -1645.399950 Ha
C    -1.93926   1.46278  -3.76379
O    -2.08470   0.89653  -2.44936
C    -1.12604   1.15615  -1.57181
O    -0.17458   1.87326  -1.81171
C    -1.31298   0.36260  -0.25486
C    -2.69557   0.63209   0.33149
C    -3.32921   1.86654   0.13304
C    -4.57084   2.13221   0.71435
C    -5.20100   1.16349   1.50064
C    -4.57825  -0.07185   1.70035
C    -3.33505  -0.33444   1.12097
N    -1.10002  -1.06337  -0.51064
C    -2.02468  -1.79939  -1.36267
C     0.32214  -1.33468  -0.70319
C     0.62479  -1.15617  -2.15790
N     0.64199  -1.06440  -3.31509
C     0.67287  -2.78043  -0.33062
C     1.76464  -3.42869  -0.91957
C     2.11049  -4.72537  -0.52940
C     1.36560  -5.38598   0.45141
C     0.27466  -4.74035   1.04198
C    -0.06926  -3.44340   0.65475
C     1.05092  -0.24736   0.21719
C     1.85086  -0.90863   1.36600
C     2.16543   0.48089  -0.53094
O     2.85885  -0.10965  -1.34997
C     2.52422   1.84681  -0.11790
O     3.71633   2.32990  -0.55903
C     4.89521   1.71212  -0.02890
C     1.61770   2.64471   0.51972
O     1.77274   3.90852   0.91243
C     3.06441   4.51345   1.05327
C     0.21980   2.17058   0.75564
O    -0.62775   2.98190   1.08641
C    -0.11147   0.67924   0.72702
C    -0.50877   0.35630   2.18221
H    -2.82560   1.14704  -4.32489
H    -1.89304   2.55883  -3.70199
H    -1.02618   1.07590  -4.23716
H    -2.85136   2.63945  -0.47030
H    -5.04744   3.10114   0.54883
H    -6.17410   1.36941   1.95268
H    -5.06116  -0.83819   2.31108
H    -2.85472  -1.29880   1.28506
H    -3.05448  -1.51484  -1.12218
H    -1.91490  -2.87566  -1.17129
H    -1.86514  -1.62119  -2.43968
H     2.36002  -2.91563  -1.67680
H     2.96588  -5.21921  -0.99593
H     1.63345  -6.40090   0.75418
H    -0.31364  -5.24810   1.80978
H    -0.91573  -2.93570   1.11835
H     1.22109  -1.55352   1.98521
H     2.66099  -1.51975   0.95055
H     2.29595  -0.13101   2.00077
H     5.74775   2.18934  -0.52894
H     4.91024   0.63171  -0.23184
H     4.96192   1.88655   1.05751
H     2.88871   5.44499   1.60624
H     3.50759   4.73750   0.07520
H     3.73687   3.86240   1.63100
H     0.32936   0.55779   2.86125
H    -0.79908  -0.69549   2.28607
H    -1.34725   0.98979   2.48910
