26
Generated by autodE on: 2022-06-29. E = -689.460865 Ha
C    -2.53525  -2.23240  -0.35668
O    -1.13647  -2.15151  -0.06394
C    -0.46623  -0.99961  -0.05713
C    -0.90772   0.25760  -0.34393
O    -2.18398   0.52559  -0.74933
C    -3.01874   1.18156   0.21085
C     0.02553   1.40403  -0.30414
O    -0.37731   2.52316  -0.61688
C     1.44720   1.19048   0.10359
C     2.33983   2.38930   0.16620
C     1.89845  -0.05654   0.38735
C     3.31845  -0.31950   0.78350
C     0.97769  -1.21950   0.30995
O     1.35900  -2.35729   0.54796
H    -2.78583  -3.29754  -0.27341
H    -2.74728  -1.87778  -1.37356
H    -3.12425  -1.65881   0.37305
H    -3.99813   1.31780  -0.26671
H    -2.61056   2.16334   0.49313
H    -3.13579   0.55882   1.11337
H     1.79598   3.30380  -0.09730
H     3.19457   2.27442  -0.52097
H     2.76447   2.50525   1.17708
H     4.01201   0.02013  -0.00329
H     3.57833   0.24246   1.69577
H     3.48846  -1.38693   0.96689
