64
Generated by autodE on: 2022-06-29. E = -1645.340082 Ha. Imaginary frequency = -225.2 cm-1
C    -1.02299   1.59209  -3.77747
O    -1.34619   0.80024  -2.62312
C    -1.03565   1.32237  -1.43182
O    -0.58361   2.43597  -1.29394
C    -1.47583   0.34432  -0.34565
C    -2.79464   0.69582   0.21219
C    -3.31023   2.00242   0.02853
C    -4.51644   2.39312   0.60609
C    -5.25160   1.49914   1.38850
C    -4.75384   0.20939   1.59532
C    -3.54611  -0.18509   1.02596
N    -1.10956  -0.97472  -0.58808
C    -2.14004  -2.01085  -0.81824
C     0.22530  -1.29938  -0.80706
C     0.98753  -0.41792  -1.63966
N     1.63175   0.24420  -2.34770
C     0.73856  -2.67928  -0.76082
C     1.92270  -3.00506  -1.46221
C     2.49010  -4.27363  -1.36862
C     1.89434  -5.25811  -0.57491
C     0.72752  -4.95192   0.13152
C     0.15909  -3.68302   0.04802
C     1.01235  -0.27404   1.25816
C     1.06480  -1.52913   2.07882
C     2.32830   0.17749   0.74963
O     3.28298  -0.60439   0.66724
C     2.51270   1.59640   0.38403
O     3.75555   2.00934   0.00681
C     4.32581   1.51227  -1.20902
C     1.50305   2.49667   0.56306
O     1.52819   3.79841   0.25216
C     2.28821   4.25641  -0.87060
C     0.24279   2.10205   1.26593
O    -0.50711   2.97942   1.68700
C    -0.02613   0.66490   1.49147
C    -0.99667   0.39140   2.60821
H    -1.33628   0.99942  -4.64415
H    -1.56573   2.54725  -3.74754
H     0.05946   1.77914  -3.81185
H    -2.76207   2.73416  -0.56117
H    -4.88210   3.40892   0.44072
H    -6.19843   1.80575   1.83840
H    -5.30536  -0.49923   2.21714
H    -3.18137  -1.18291   1.24736
H    -1.76014  -2.70361  -1.57710
H    -2.40970  -2.57927   0.07709
H    -3.03378  -1.51698  -1.21375
H     2.40521  -2.25830  -2.09216
H     3.40404  -4.49362  -1.92466
H     2.33734  -6.25388  -0.50404
H     0.25615  -5.70573   0.76593
H    -0.72596  -3.47550   0.64188
H     0.10026  -2.04835   2.10791
H     1.83212  -2.21721   1.70984
H     1.31967  -1.26873   3.12217
H     4.34628   0.41542  -1.22626
H     5.35291   1.89973  -1.24151
H     3.76422   1.88283  -2.07934
H     1.87355   5.23918  -1.13113
H     2.16402   3.56895  -1.72128
H     3.35315   4.35545  -0.62425
H    -1.78333   1.15055   2.65358
H    -1.46061  -0.59743   2.52224
H    -0.45297   0.41115   3.56906
