40
Generated by autodE on: 2022-05-26. E = -824.109697 Ha
C     3.47647  -0.49642   2.08002
N     2.38045  -0.75612   1.16506
C     1.36287   0.10906   1.02622
O     1.32371   1.16875   1.66485
C     0.29988  -0.20570  -0.03282
C     0.44812   0.86538  -1.10290
C     1.66027   0.95546  -1.87768
N     2.65346   0.99320  -2.47923
N    -0.52641   1.65929  -1.31316
C    -1.62205   1.36814  -0.36492
C    -2.93600   1.28994  -1.14770
C    -1.69374   2.59519   0.55890
C    -1.22127   0.01723   0.38473
C    -1.47925   0.08565   1.89108
C    -1.88425  -1.26030  -0.24711
C    -1.57024  -2.51233   0.59559
C    -0.03913  -2.68693   0.39858
C     0.30010  -1.62201  -0.67761
C    -1.01244  -1.56801  -1.47995
H     3.11121  -0.38213   3.11236
H     4.17652  -1.33963   2.04190
H     4.01210   0.42622   1.80564
H     2.39532  -1.60761   0.61652
H    -3.76465   1.04525  -0.46704
H    -2.90667   0.53642  -1.94523
H    -3.15079   2.26468  -1.61030
H    -0.76514   2.71929   1.13088
H    -2.53790   2.50898   1.25716
H    -1.84651   3.49797  -0.05050
H    -2.56318   0.06450   2.08656
H    -1.02779  -0.76679   2.41450
H    -1.06442   0.98777   2.34710
H    -2.95704  -1.13252  -0.42755
H    -1.86544  -2.43166   1.64824
H    -2.11866  -3.36630   0.17099
H     0.21385  -3.68973   0.02520
H     0.51798  -2.53670   1.33202
H     1.21213  -1.83278  -1.25432
H    -1.26223  -2.53654  -1.93728
H    -1.02638  -0.80291  -2.26601
