27
Generated by autodE on: 2022-05-26. E = -520.325041 Ha
C     3.52607  -1.27838   0.10170
N     2.20037  -0.79191   0.42115
C     1.45657  -0.10906  -0.48248
O     1.90617   0.13536  -1.61795
C     0.11567   0.30967  -0.02872
C    -0.93830   0.65862  -0.81273
C    -1.07236   0.74304  -2.29239
C    -2.13881   0.80591   0.10828
C    -2.50985  -0.64957   0.54814
C    -1.31567  -1.05258   1.46029
C    -0.40577   0.21472   1.40616
C    -1.46587   1.33245   1.38983
H     3.50386  -2.00289  -0.72916
H     4.19340  -0.45329  -0.19462
H     3.94794  -1.77135   0.98620
H     1.80792  -1.00266   1.33099
H    -0.14316   0.48341  -2.81155
H    -1.88162   0.07303  -2.63253
H    -1.37462   1.76264  -2.59004
H    -2.97735   1.37951  -0.30817
H    -3.45850  -0.64269   1.10555
H    -2.63539  -1.31485  -0.31845
H    -0.78314  -1.94636   1.10512
H    -1.64593  -1.24449   2.49241
H     0.35319   0.26631   2.19796
H    -1.03096   2.33552   1.26726
H    -2.12877   1.31800   2.26906
