40
Generated by autodE on: 2022-05-26. E = -824.012259 Ha. Imaginary frequency = -333.8 cm-1
C     3.61059  -0.35779   1.86095
N     2.42557  -0.76875   1.13627
C     1.29513  -0.02580   1.13776
O     1.23372   1.03222   1.79431
C     0.17248  -0.52754   0.30967
C     0.59757   1.10317  -1.26454
C     1.77715   1.28429  -1.99672
N     2.82967   1.27281  -2.50870
N    -0.46142   1.73482  -1.24675
C    -1.61674   1.79228  -0.60708
C    -2.87974   1.44743  -1.33892
C    -1.70568   2.81972   0.48785
C    -1.17926  -0.35207   0.62891
C    -1.74654   0.11736   1.93789
C    -1.92085  -1.45098  -0.13882
C    -1.59932  -2.78841   0.60099
C    -0.08422  -2.99123   0.30401
C     0.25812  -1.75894  -0.59209
C    -1.04783  -1.62256  -1.39370
H     3.40626  -0.24998   2.93817
H     4.39087  -1.11698   1.72579
H     3.99115   0.60938   1.49375
H     2.45567  -1.62537   0.59690
H    -3.61749   1.05565  -0.62345
H    -2.71323   0.70705  -2.13079
H    -3.31498   2.35681  -1.79132
H    -0.78356   2.84197   1.08353
H    -2.56389   2.60634   1.13739
H    -1.86613   3.81916   0.04623
H    -2.76582   0.51647   1.81962
H    -1.82693  -0.73841   2.63314
H    -1.12168   0.87411   2.42253
H    -2.99356  -1.26952  -0.28769
H    -1.82165  -2.73273   1.67595
H    -2.20300  -3.60664   0.17932
H     0.09830  -3.92579  -0.24798
H     0.53100  -3.01719   1.21478
H     1.18553  -1.85399  -1.17365
H    -1.29188  -2.53163  -1.96422
H    -1.05484  -0.76108  -2.07188
