42
Generated by autodE on: 2022-06-19. E = -937.475945 Ha
C    -0.28462   3.15822   0.18719
N    -0.86652   1.84121   0.36282
C    -1.09481   0.99819  -0.64980
O    -0.95434   1.27339  -1.84258
C    -1.57644  -0.43054  -0.25704
C    -3.01403  -0.52079  -0.81061
C    -4.12267   0.00590   0.04769
O    -3.19077  -0.98459  -1.91928
C    -0.64157  -1.50626  -0.85717
C     0.28849  -1.90570   0.30753
C     0.56007  -3.41257   0.37503
C     1.58278  -1.11779   0.41012
C     1.94168  -0.07141  -0.35986
C     3.15229   0.70498  -0.16443
C     3.50950   1.81582  -0.85540
C     4.78989   2.53611  -0.53999
C     2.69588   2.43217  -1.95899
C    -0.57451  -1.40764   1.47337
C    -0.26373  -1.75162   2.83594
N     0.02230  -2.06202   3.91814
N    -1.54464  -0.61846   1.19675
H    -0.75544   3.86927   0.88017
H    -0.45261   3.49613  -0.84224
H     0.79968   3.14066   0.38269
H    -0.98555   1.47866   1.30455
H    -3.86754   0.99911   0.44690
H    -5.05460   0.04777  -0.53032
H    -4.25297  -0.66037   0.91539
H    -1.24692  -2.37299  -1.15068
H    -0.11055  -1.15656  -1.74777
H     1.17281  -3.66628   1.25383
H     1.10916  -3.72796  -0.52500
H    -0.38218  -3.97884   0.42861
H     2.23475  -1.42028   1.23846
H     1.29525   0.22805  -1.18528
H     3.82229   0.35974   0.63157
H     4.58697   3.58100  -0.24474
H     5.35349   2.04805   0.26848
H     5.43627   2.59127  -1.43413
H     3.27636   2.44194  -2.89845
H     2.47895   3.48831  -1.72210
H     1.74070   1.92765  -2.14845
