23
Generated by autodE on: 2022-06-19. E = -351.519883 Ha
C     3.70447  -0.71033  -0.07086
C     2.56885   0.02077  -0.11496
C     2.60556   1.51336  -0.32081
C     1.27215  -0.63557   0.03705
C     0.06389  -0.01856   0.00681
C    -1.19844  -0.71147   0.15896
C    -2.42298  -0.12928   0.12514
C    -3.67435  -0.94142   0.28770
C    -2.61094   1.35526  -0.08316
H     3.67439  -1.79396   0.07898
H     4.68768  -0.24493  -0.18260
H     2.13147   2.04263   0.52247
H     2.04783   1.80349  -1.22677
H     3.63821   1.87648  -0.41982
H     1.29977  -1.72163   0.18653
H     0.02626   1.06434  -0.14282
H    -1.14344  -1.79582   0.31127
H    -4.26305  -0.58426   1.15208
H    -4.33159  -0.82741  -0.59346
H    -3.46198  -2.01154   0.42822
H    -3.67346   1.63277  -0.02725
H    -2.07007   1.94731   0.67331
H    -2.23465   1.67787  -1.06858
