42
Generated by autodE on: 2022-06-19. E = -937.378735 Ha. Imaginary frequency = -369.7 cm-1
C     3.35287  -3.18848   0.11357
N     2.13899  -2.61099  -0.42879
C     0.92326  -3.02822  -0.02210
O     0.77693  -3.92305   0.81910
C    -0.23991  -2.30549  -0.61144
C    -1.62091  -2.85438  -0.75559
C    -1.96496  -4.14982  -0.07596
O    -2.44881  -2.22901  -1.40995
C    -0.99401  -1.01759   1.36461
C    -1.10399   0.29029   0.91440
C    -2.46580   0.85227   0.56862
C     0.01488   1.20954   1.14899
C    -0.02856   2.55740   1.00514
C     1.11093   3.42012   1.23748
C     1.15633   4.76865   1.09156
C     2.42207   5.52987   1.36715
C    -0.00512   5.61345   0.65080
C    -0.36585  -0.03113  -1.28280
C    -0.38369   1.10618  -2.07618
N    -0.47755   2.14851  -2.59626
N    -0.02108  -1.19751  -1.30875
H     3.44366  -4.25603  -0.14514
H     3.37347  -3.10355   1.21094
H     4.21463  -2.65137  -0.30034
H     2.20955  -1.91297  -1.16138
H    -1.31818  -4.95893  -0.44744
H    -1.79184  -4.07917   1.00655
H    -3.01812  -4.38118  -0.28103
H    -1.88501  -1.63516   1.48227
H    -0.09016  -1.35072   1.87746
H    -2.42368   1.59171  -0.24448
H    -2.89415   1.36525   1.44683
H    -3.15213   0.04885   0.26824
H     0.95599   0.73942   1.45704
H    -0.96686   3.02286   0.69305
H     2.02934   2.91478   1.55991
H     2.25895   6.28999   2.15236
H     2.74854   6.08507   0.46933
H     3.24275   4.87077   1.68629
H     0.25845   6.17707  -0.26168
H    -0.24156   6.37037   1.41951
H    -0.91707   5.03870   0.44457
