69
Generated by autodE on: 2022-10-23. E = -1498.779454 Ha
C     5.22798   5.96431   6.50394
N     4.90065   6.67305   5.28604
C     5.31391   7.92492   5.06364
O     6.12826   8.50754   5.79390
C     4.63517   8.62429   3.84894
C     5.61976   9.49652   3.06279
C     6.97633   9.15441   2.97293
C     7.84020   9.86998   2.13680
C     7.35948  10.93520   1.37166
C     6.00345  11.27318   1.44190
C     5.14387  10.55580   2.27481
N     4.09643   7.61649   2.92821
C     2.67314   7.83558   2.66808
C     2.45082   8.34027   1.23458
C     1.98432   6.46575   2.94673
C     1.31073   5.72162   1.82835
O     2.13143   5.94154   4.04285
C     2.27801   8.86497   3.73900
C     3.36746   9.35500   4.37377
C     3.52418  10.37026   5.51773
C     4.75310  11.29119   5.33983
C     3.61811   9.59587   6.85869
C     4.33709  10.23289   8.01899
O     3.07800   8.51054   6.99486
C     2.30028  11.30937   5.71490
C     1.91601  12.14905   4.47961
C     0.53331  11.81791   3.92119
C     0.42024  10.52134   3.12215
C     0.77140   9.19211   3.82310
O     0.17323   8.10636   3.12082
C    -1.23289   8.08771   2.94834
O     0.23905   9.23018   5.12655
C     0.24802   8.00085   5.84655
H     6.29999   6.06173   6.72651
H     4.66318   6.35947   7.36546
H     4.98643   4.90051   6.38163
H     4.13844   6.34551   4.69130
H     7.37178   8.32648   3.56231
H     8.89510   9.58956   2.08505
H     8.03481  11.49671   0.72175
H     5.61214  12.10084   0.84536
H     4.08887  10.82811   2.32213
H     4.63271   7.58636   2.06664
H     1.38842   8.46851   0.99925
H     2.95929   9.30391   1.10005
H     2.88169   7.62709   0.51515
H     2.09362   5.37508   1.13169
H     0.62008   6.35141   1.25590
H     0.78736   4.84521   2.23295
H     5.69310  10.73306   5.31473
H     4.79516  12.00760   6.17045
H     4.66846  11.87192   4.41530
H     4.06325  11.28958   8.14592
H     4.10946   9.67012   8.93364
H     5.42098  10.19299   7.83230
H     1.43965  10.71942   6.04110
H     2.55480  11.98152   6.54659
H     1.93283  13.21526   4.75359
H     2.66439  12.03567   3.67885
H     0.21889  12.62988   3.24454
H    -0.20011  11.80629   4.74426
H     1.04414  10.58357   2.21855
H    -0.62026  10.43885   2.77777
H    -1.75556   8.54674   3.80111
H    -1.53520   8.59930   2.01957
H    -1.53026   7.03113   2.87979
H     0.06939   8.25501   6.90027
H     1.21342   7.48813   5.76183
H    -0.55246   7.32712   5.50031
