33
Generated by autodE on: 2022-10-23. E = -765.349370 Ha
C    -2.78561   3.17436  -0.95919
N    -2.13930   1.96919  -0.48252
C    -0.80903   1.78687  -0.60471
O    -0.07506   2.64294  -1.13874
C    -0.23732   0.51505  -0.10488
N     1.06090   0.41241  -0.37997
C     2.06197  -0.43451  -0.08290
C     1.90180  -1.57559   0.86478
C     3.30798  -0.05797  -0.72357
C     4.53784  -0.89482  -0.47117
O     3.36841   0.94204  -1.46800
C    -1.04279  -0.56490   0.49293
C    -1.08663  -1.83517  -0.11407
C    -1.87050  -2.85414   0.42884
C    -2.62970  -2.62175   1.58022
C    -2.60290  -1.36079   2.18511
C    -1.81712  -0.33992   1.64749
H    -2.71485   3.26739  -2.05569
H    -3.84500   3.14344  -0.67692
H    -2.32592   4.07145  -0.51599
H    -2.70699   1.23204  -0.07996
H     1.39996   1.21392  -0.94582
H     1.28178  -1.28814   1.72747
H     2.87955  -1.89623   1.24501
H     1.41941  -2.45493   0.40364
H     5.35895  -0.52862  -1.10095
H     4.34996  -1.95744  -0.69120
H     4.84121  -0.83174   0.58685
H    -0.51058  -2.01542  -1.02361
H    -1.89337  -3.83387  -0.05402
H    -3.24308  -3.42049   2.00349
H    -3.18996  -1.17265   3.08704
H    -1.78540   0.63670   2.13464
