33
Generated by autodE on: 2022-10-26. E = -765.334654 Ha
C     0.97118  -2.98294   1.87137
N     0.71021  -2.06549   0.77868
C     0.70463  -0.73131   0.99108
O     1.18662  -0.22168   2.00849
C     0.22223   0.11033  -0.14862
N    -0.81801  -0.24871  -0.90698
C    -1.88746  -1.07728  -0.70735
C    -2.65003  -1.47895  -1.93676
C    -2.35465  -1.35182   0.61890
C    -3.64049  -2.14202   0.74240
O    -1.78121  -0.93231   1.64847
C     0.97178   1.30342  -0.53388
C     2.34067   1.44705  -0.20793
C     3.05658   2.56736  -0.62208
C     2.43466   3.57311  -1.37228
C     1.08032   3.44999  -1.69617
C     0.35338   2.33658  -1.27460
H     1.96106  -2.79333   2.31080
H     0.21659  -2.88300   2.66960
H     0.94765  -4.01044   1.48788
H     0.17974  -2.42268  -0.01030
H    -0.84044   0.22181  -1.81799
H    -2.55078  -2.55795  -2.14848
H    -3.72672  -1.26612  -1.84813
H    -2.27126  -0.94313  -2.82110
H    -3.85015  -2.32077   1.80526
H    -3.56299  -3.10765   0.21759
H    -4.48939  -1.59988   0.29466
H     2.84559   0.66962   0.36503
H     4.11456   2.65387  -0.36345
H     3.00060   4.45053  -1.69317
H     0.57808   4.23622  -2.26458
H    -0.71500   2.28884  -1.49697
