43
Generated by autodE on: 2022-10-21. E = -904.370636 Ha
C    -0.57457  -2.86327  -1.13285
O    -0.69701  -1.45529  -1.27984
C    -0.37628  -0.65381  -0.16438
C    -1.09857  -1.07187   1.14502
C    -2.61206  -1.22576   0.85564
C    -3.11090   0.24135   0.75922
C    -1.80743   1.05386   0.86893
C    -1.07293   0.24025   1.95094
C    -0.91401   0.82968  -0.39331
C    -1.66214   1.02721  -1.70850
C     0.38686   1.71611  -0.33617
C     0.29206   3.03034   0.44114
C     0.86375   2.09010  -1.69961
N     1.29048   2.44858  -2.71742
O     1.38779   0.91885   0.27639
C     1.19477  -0.47062  -0.01660
C     1.95229  -0.83535  -1.30224
C     1.85358  -1.26698   1.12119
C     2.69717  -0.52379   2.11462
O     1.73610  -2.48044   1.15742
H    -1.39721  -3.28570  -0.53199
H     0.37648  -3.15076  -0.66340
H    -0.62585  -3.29073  -2.14438
H    -0.65399  -1.94811   1.62795
H    -3.09464  -1.76584   1.68294
H    -2.80544  -1.79025  -0.06432
H    -3.75598   0.49756   1.61282
H    -3.68587   0.44672  -0.15206
H    -1.98772   2.11309   1.08349
H    -1.64875   0.16451   2.88539
H    -0.06932   0.60746   2.19092
H    -2.53379   0.36787  -1.77873
H    -2.01076   2.06914  -1.79045
H    -1.02412   0.80913  -2.57401
H     1.25374   3.55962   0.38315
H     0.06519   2.83256   1.49497
H    -0.49006   3.67168   0.01175
H     2.99203  -0.48852  -1.20965
H     1.49630  -0.35871  -2.17784
H     1.95928  -1.91956  -1.46488
H     3.45664   0.07647   1.59002
H     3.17671  -1.23922   2.79487
H     2.07778   0.18454   2.68531
