24
Generated by autodE on: 2022-10-21. E = -426.769849 Ha
C     2.85723  -0.76283  -0.33335
O     1.86275   0.19971  -0.66218
C     0.67411   0.11682   0.00470
C    -0.20962   1.12940   0.13465
C    -0.11001   2.52596  -0.37949
C    -1.48964   0.49067   0.66276
C    -2.08526  -0.34845  -0.51533
C    -1.04810  -1.49936  -0.67584
C     0.00137  -1.17852   0.44010
C    -0.91861  -0.63471   1.54887
H     3.77039  -0.47024  -0.86951
H     2.56647  -1.77656  -0.65494
H     3.06453  -0.77475   0.75033
H     0.90431   2.74991  -0.74304
H    -0.81197   2.69421  -1.21745
H    -0.36932   3.26675   0.39704
H    -2.20223   1.18563   1.12875
H    -2.19686   0.25844  -1.42597
H    -3.07965  -0.74097  -0.25096
H    -0.58048  -1.52456  -1.67091
H    -1.50771  -2.48341  -0.49609
H     0.66270  -2.01434   0.69749
H    -1.67713  -1.36420   1.87498
H    -0.36425  -0.25729   2.42082
