60
Generated by autodE on: 2022-06-30. E = -1530.106466 Ha
C    -0.92117  -3.44317   3.14700
N    -0.54417  -2.75775   1.92720
C    -1.45475  -2.14801   1.15749
O    -2.66844  -2.22068   1.36036
C    -0.88452  -1.45128  -0.10390
C    -1.49269  -2.24908  -1.29205
O    -2.65683  -2.08671  -1.65858
N    -0.68041  -3.19217  -1.79126
C    -1.06570  -4.00780  -2.92493
O     0.53444  -1.56685  -0.08698
C     1.22097  -0.44450  -0.69880
C     2.11500  -0.97529  -1.81537
C     2.06437   0.27513   0.35689
C     2.97183   1.27351  -0.03734
C     3.68523   2.00574   0.91240
C     3.51874   1.74438   2.27641
C     2.64607   0.73102   2.67500
C     1.92885   0.00008   1.72198
C     0.02920   0.43680  -1.24468
O    -0.25804  -0.05110  -2.52584
C    -1.24468   0.56203  -3.35733
C     0.35969   1.93271  -1.28399
O     0.82309   2.40600  -2.30967
C     0.14641   2.75674  -0.07072
C     0.65630   4.16276  -0.10447
C    -0.43380   2.24081   1.05000
C    -0.55216   3.04503   2.30621
C    -0.90296   0.83574   1.10024
O    -1.23643   0.31151   2.14974
C    -1.10387   0.09888  -0.24190
O    -2.29789   0.57004  -0.79599
C    -3.50157   0.51475  -0.03070
H    -1.36222  -2.74385   3.87586
H    -0.02683  -3.89881   3.58878
H    -1.66031  -4.23268   2.94259
H     0.43371  -2.64263   1.68419
H     0.28447  -3.18998  -1.47706
H    -2.07669  -4.41322  -2.77682
H    -1.06402  -3.42663  -3.86264
H    -0.35812  -4.84021  -3.02521
H     2.55987  -0.14763  -2.38295
H     2.92314  -1.57226  -1.36938
H     1.54400  -1.59770  -2.51069
H     3.11173   1.50612  -1.09282
H     4.37324   2.78739   0.58254
H     4.07179   2.32222   3.02029
H     2.51272   0.50482   3.73532
H     1.24272  -0.77316   2.05440
H    -1.49444   1.58223  -3.04284
H    -2.16181  -0.04372  -3.35657
H    -0.83027   0.59487  -4.37634
H     1.02411   4.42627  -1.10259
H     1.47934   4.28489   0.61910
H    -0.13334   4.87195   0.18936
H    -1.13765   3.96126   2.12674
H    -1.02893   2.46601   3.10504
H     0.44531   3.36684   2.64767
H    -4.30468   0.79759  -0.72404
H    -3.48554   1.23547   0.80375
H    -3.68138  -0.49452   0.35821
