26
Generated by autodE on: 2022-06-30. E = -689.460844 Ha
C    -2.68116  -1.75367   0.56095
O    -2.26649  -0.64197  -0.24009
C    -0.95016  -0.29187  -0.14194
C    -0.52682   0.84484   0.47994
O    -1.23906   1.76865   1.12437
C    -2.64872   1.64776   1.34124
C     0.93647   1.20074   0.47383
O     1.29515   2.22916   1.03089
C     1.90750   0.29456  -0.19140
C     3.35410   0.68030  -0.15738
C     1.47601  -0.83888  -0.79844
C     2.41783  -1.78343  -1.47596
C     0.01968  -1.17155  -0.82915
O    -0.38460  -2.16514  -1.43062
H    -3.75403  -1.89232   0.37248
H    -2.14054  -2.67105   0.28536
H    -2.52279  -1.54104   1.63133
H    -2.88136   0.74358   1.92182
H    -3.19618   1.63574   0.39012
H    -2.92832   2.53675   1.92072
H     3.95177  -0.09376   0.35190
H     3.49890   1.63449   0.36264
H     3.75810   0.76841  -1.17922
H     3.17536  -2.15356  -0.76549
H     2.96886  -1.27171  -2.28262
H     1.88238  -2.63950  -1.90269
