60
Generated by autodE on: 2022-06-30. E = -1530.042433 Ha. Imaginary frequency = -224.9 cm-1
C    -0.51336  -1.31934   4.11712
N    -0.22681  -1.25715   2.70047
C    -1.08575  -1.67537   1.74369
O    -2.18159  -2.20562   1.99057
C    -0.65181  -1.50396   0.33480
C    -1.11844  -2.60947  -0.57081
O    -2.28158  -2.69547  -0.97255
N    -0.18688  -3.54767  -0.84749
C    -0.42232  -4.57172  -1.84686
O     0.61084  -1.00956   0.22263
C     1.17011  -0.48220  -0.86904
C     0.92708  -1.09156  -2.21217
C     2.43209   0.21172  -0.58585
C     3.13150   0.86655  -1.61913
C     4.29110   1.59026  -1.34183
C     4.77804   1.67068  -0.03489
C     4.09514   1.01889   0.99896
C     2.93452   0.29954   0.72957
C    -0.35278   1.21235  -1.14120
O     0.02645   1.54502  -2.41921
C    -0.66212   2.66917  -2.97443
C     0.18250   2.05514  -0.05951
O     1.06704   2.88089  -0.29567
C    -0.37461   1.89760   1.30654
C     0.38891   2.54415   2.42547
C    -1.57397   1.28108   1.47364
C    -2.32210   1.26230   2.76972
C    -2.28401   0.60543   0.34153
O    -3.44022   0.20574   0.49479
C    -1.58020   0.53027  -0.95624
O    -2.14398   0.08718  -2.08057
C    -3.54880  -0.16370  -2.24303
H    -0.61018  -0.31274   4.55217
H     0.28874  -1.85118   4.65289
H    -1.45470  -1.86068   4.26750
H     0.58707  -0.73203   2.40326
H     0.75966  -3.41032  -0.50860
H    -1.32381  -5.15356  -1.60540
H    -0.55814  -4.13008  -2.84882
H     0.44022  -5.24870  -1.87187
H     1.28423  -0.42650  -3.00173
H     1.49398  -2.03502  -2.27630
H    -0.12993  -1.30162  -2.40457
H     2.75973   0.83406  -2.64166
H     4.81512   2.09716  -2.15488
H     5.68702   2.23721   0.17945
H     4.47173   1.06963   2.02282
H     2.42112  -0.21004   1.54274
H    -0.45817   3.58260  -2.39373
H    -1.74871   2.49053  -3.01068
H    -0.28140   2.79706  -3.99663
H     1.39862   2.81674   2.09439
H     0.46960   1.86415   3.28671
H    -0.10940   3.46222   2.77943
H    -3.16611   1.97176   2.71529
H    -2.76126   0.27330   2.95803
H    -1.69225   1.54998   3.61838
H    -3.66764  -0.38642  -3.31127
H    -4.13189   0.73028  -1.98477
H    -3.86720  -1.01875  -1.64085
