19
Generated by autodE on: 2022-07-26. E = -585.837127 Ha
C     2.84687  -1.43268   1.81481
N     2.11451  -1.32232   0.56498
C     0.80873  -1.04336   0.55157
O     0.10981  -0.87440   1.55431
C     0.13426  -1.01576  -0.79489
C     0.29872  -2.10613  -1.77719
O    -0.73799  -0.12433  -1.06750
C    -1.08551   1.04876  -0.44492
C    -0.27440   1.67470   0.50882
N     0.40762   2.23114   1.28044
C    -2.21633   1.67074  -0.99450
N    -3.16527   2.19959  -1.42936
H     3.91568  -1.52370   1.59095
H     2.52214  -2.31548   2.38773
H     2.68042  -0.53936   2.43506
H     2.60606  -1.45729  -0.31425
H     1.31568  -2.06684  -2.20897
H     0.20275  -3.08320  -1.27559
H    -0.43930  -2.01258  -2.58380
