37
Generated by autodE on: 2022-05-29. E = -1410.613037 Ha. Imaginary frequency = -286.7 cm-1
C     4.25965  -0.40823   1.10029
N     3.32679  -0.56643   0.00112
C     2.22992   0.20041  -0.08014
O     1.99896   1.13392   0.69332
C     1.26715  -0.13599  -1.17915
C     1.55638  -1.18736  -2.19357
O     0.45086   0.79877  -1.60647
C    -0.26737   1.76073  -1.00313
C     0.18742   2.73387  -0.07549
N     0.35353   3.64716   0.63157
C    -1.40588   2.14343  -1.76501
N    -2.37072   2.44139  -2.34756
C    -1.19609  -0.09567   0.55349
C    -1.12888   0.71571   1.71152
N    -1.10021   1.39240   2.65924
C    -2.49823  -0.38966  -0.18848
C    -3.15939  -1.54392   0.63230
C    -2.22443  -2.75461   0.35553
C    -1.12857  -2.14956  -0.57961
C    -1.97732  -1.17072  -1.41094
C    -0.35078  -1.17949   0.29808
Cl    0.73009  -1.82775   1.51519
H     5.09349  -1.10572   0.96000
H     3.76916  -0.62044   2.06440
H     4.65131   0.61928   1.13554
H     3.44962  -1.34939  -0.63077
H     0.70342  -1.30673  -2.87183
H     2.44528  -0.91097  -2.78784
H     1.76515  -2.14913  -1.70368
H    -3.14039   0.47815  -0.36948
H    -4.17546  -1.71948   0.25052
H    -3.23690  -1.29188   1.69919
H    -2.74991  -3.55631  -0.18226
H    -1.79017  -3.18490   1.26786
H    -0.51755  -2.88515  -1.11369
H    -1.40601  -0.57002  -2.12569
H    -2.79078  -1.68104  -1.94492
