41
Generated by autodE on: 2022-06-19. E = -936.512950 Ha
C     3.44450  -0.68939  -0.95765
C     1.99679  -0.39938  -1.23561
O     1.53639  -0.49792  -2.36056
C     1.08353   0.15702  -0.10033
C     1.68101  -0.14250   1.27772
C     1.93792   0.98123   2.23746
O     1.95356  -1.29984   1.55928
C    -0.36722  -0.49063  -0.27754
N    -0.70997  -1.58921   0.56339
C    -0.29121  -2.91472   0.15711
C    -1.23830  -1.32843   1.80672
C    -1.66920  -0.10862   2.20295
C    -1.61809   1.09385   1.30159
C    -1.33195   0.72626  -0.17413
C    -2.60618   0.40355  -0.96091
N    -3.54326  -0.29730  -0.29919
O    -2.75061   0.74238  -2.14101
C    -0.49268   1.79584  -0.86287
N     0.84444   1.58883  -0.32340
C     1.87618   2.39170  -0.94910
H     3.88889   0.07952  -0.30848
H     3.99278  -0.75676  -1.90610
H     3.52433  -1.64632  -0.41956
H     2.37116   0.57501   3.16063
H     2.63002   1.71032   1.78752
H     1.01042   1.52557   2.46196
H    -0.38803  -0.83309  -1.31992
H     0.80377  -2.97747   0.04298
H    -0.60060  -3.64630   0.91575
H    -0.75568  -3.19594  -0.80360
H    -1.31388  -2.19644   2.46651
H    -2.07329   0.00213   3.21086
H    -2.56451   1.65773   1.35351
H    -0.84133   1.80064   1.63697
H    -4.39419  -0.56347  -0.78470
H    -3.40457  -0.58902   0.66483
H    -0.84259   2.81598  -0.63556
H    -0.53201   1.66298  -1.95964
H     1.99726   2.19145  -2.03383
H     2.84733   2.23024  -0.45949
H     1.61955   3.45685  -0.83765
