47
Generated by autodE on: 2022-06-24. E = -1160.661477 Ha
C     3.78893  -0.46841  -2.19121
N     2.58913  -0.66668  -1.40599
C     2.23541   0.12515  -0.39488
O     2.86598   1.10790  -0.05367
C     0.95720  -0.32019   0.37260
C     1.22295  -1.65312   1.15642
C     2.63503  -2.11693   1.36451
O     0.27146  -2.26156   1.62699
N     0.57676   0.73629   1.33528
C     0.88856   0.56127   2.74632
N    -0.75365   1.13165   1.09967
C    -1.01897   2.46499   0.89408
C     0.14016   3.41515   1.07279
O    -2.15423   2.86969   0.64220
C    -1.43811  -0.02524   0.46187
N    -2.70550   0.18340  -0.14898
C    -3.86685   0.26679   0.72059
C    -2.74454   0.75931  -1.41597
C    -1.66206   0.90163  -2.19786
C    -0.28739   0.51872  -1.73411
C    -0.31994  -0.46830  -0.53155
C    -0.48695  -1.88930  -1.07427
N    -1.73174  -2.35625  -1.16826
O     0.50126  -2.54179  -1.45180
H     3.56993  -0.60928  -3.25999
H     4.58088  -1.18053  -1.90292
H     4.16348   0.55079  -2.03424
H     1.98568  -1.47754  -1.59150
H     3.33059  -1.27761   1.50274
H     2.95519  -2.66568   0.46421
H     2.66960  -2.79828   2.22428
H     0.27263  -0.20484   3.25101
H     1.94823   0.28749   2.84334
H     0.74887   1.52003   3.26520
H    -0.18162   4.40758   0.73287
H     0.42501   3.48105   2.13475
H     1.02620   3.07535   0.52115
H    -1.54915  -0.79052   1.23933
H    -3.80036  -0.51372   1.49264
H    -4.77968   0.09312   0.13289
H    -3.94353   1.24978   1.21536
H    -3.74373   1.04048  -1.75547
H    -1.77927   1.31499  -3.20091
H     0.28501   1.41751  -1.44501
H     0.28313   0.06489  -2.55587
H    -1.88615  -3.27401  -1.57575
H    -2.52177  -1.78616  -0.86977
