20
Generated by autodE on: 2022-06-24. E = -457.715339 Ha
C    -2.99047  -0.45565   0.96384
N    -1.81627   0.00174   0.23862
C    -1.91397   1.12369  -0.59414
C    -0.84883   1.67201  -1.19984
C     0.55309   1.13518  -1.04750
C     0.56936  -0.03918  -0.08272
C     1.82566  -0.71687   0.27730
N     2.95027  -0.24203  -0.31486
O     1.88691  -1.67078   1.07935
C    -0.57751  -0.51313   0.48035
H    -3.84120  -0.57805   0.27668
H    -2.77589  -1.42642   1.42844
H    -3.28326   0.25597   1.75498
H    -2.92436   1.51835  -0.71527
H    -1.00635   2.54305  -1.84001
H     0.95837   0.84074  -2.03793
H     1.23200   1.94043  -0.70072
H     2.93980   0.52186  -0.97848
H     3.83664  -0.68419  -0.09789
H    -0.53757  -1.35920   1.16831
