27
Generated by autodE on: 2022-06-24. E = -702.912108 Ha
C    -3.15132  -1.29066   0.31574
N    -2.12911  -0.33955  -0.08003
C    -0.96666  -0.25512   0.58737
O    -0.73011  -0.82736   1.65051
C     0.01509   0.73171   0.00840
C    -0.54696   2.07066  -0.43431
C    -0.93064   3.02593   0.64928
O    -0.69158   2.27398  -1.62437
N     1.30164   0.51381  -0.01658
C     2.24223   1.58564  -0.39105
N     1.94271  -0.64067   0.27510
C     1.39002  -1.78545  -0.19577
C     2.12958  -3.02896   0.22850
O     0.38341  -1.86936  -0.92362
H    -3.36394  -1.19361   1.38928
H    -4.06744  -1.08640  -0.25148
H    -2.82889  -2.32659   0.11832
H    -2.17597   0.06036  -1.01359
H    -1.66472   2.54591   1.31726
H    -0.04480   3.25563   1.26423
H    -1.34978   3.94403   0.21736
H     1.78441   2.57490  -0.29122
H     2.56166   1.41667  -1.42823
H     3.10679   1.50406   0.27624
H     3.11121  -2.80347   0.66385
H     2.23885  -3.70612  -0.63179
H     1.51480  -3.55020   0.98188
