20
Generated by autodE on: 2022-05-31. E = -975.268381 Ha
C    -3.78973   0.33490   0.32705
N    -2.40932   0.11762  -0.05333
C    -1.43617  -0.21453   0.82119
O    -1.63094  -0.38476   2.03491
C    -0.07268  -0.37734   0.28132
C     0.56835   0.05279  -0.81869
Cl    0.00397   0.94692  -2.17206
C     2.06604  -0.27460  -0.60282
C     2.55973   0.66657   0.52079
C     1.94002   0.23108   1.62117
C     1.07520  -0.95829   1.14774
O     1.92314  -1.50465   0.11835
H    -4.11835   1.34887   0.04979
H    -4.45593  -0.39118  -0.16565
H    -3.88241   0.21767   1.41268
H    -2.16090   0.23462  -1.02995
H     2.67864  -0.37215  -1.50493
H     3.22281   1.51820   0.37547
H     1.95445   0.62629   2.63607
H     0.77981  -1.70441   1.89121
