21
Generated by autodE on: 2022-05-31. E = -607.944540 Ha
C     1.90028  -1.37407   1.46830
N     1.76946  -0.27011   0.51908
N     2.87036   0.33066   0.16418
O     2.48614   1.27546  -0.72658
C     1.09648   1.24783  -0.93827
O     0.56650   2.01739  -1.72093
C     0.64384   0.20452  -0.07299
C    -0.73409  -0.24320   0.11316
C    -1.63157  -0.10568  -0.96695
C    -2.96384  -0.49532  -0.83653
C    -3.42956  -1.02892   0.36959
C    -2.55073  -1.16067   1.44870
C    -1.21699  -0.76773   1.32884
H     2.94820  -1.69174   1.45691
H     1.24856  -2.19547   1.15004
H     1.62161  -1.03383   2.47311
H    -1.27538   0.30762  -1.91071
H    -3.64238  -0.38486  -1.68554
H    -4.47341  -1.33468   0.46993
H    -2.90686  -1.56299   2.39980
H    -0.56410  -0.84767   2.19658
