41
Generated by autodE on: 2022-05-31. E = -1583.187333 Ha. Imaginary frequency = -307.4 cm-1
C    -0.46225  -3.36276  -0.45874
N    -0.85943  -1.97517  -0.33824
C    -0.60294  -1.25353   0.77718
O    -0.09746  -1.78624   1.78491
C    -0.88557   0.18377   0.78771
C    -1.05581   0.86009   2.16646
C    -2.52226   0.59445   2.56115
C    -3.24603   1.37552   1.74987
C    -2.20463   2.11188   0.88341
O    -1.12655   2.24608   1.80377
C    -1.61774   1.03941  -0.08531
Cl   -2.80940   0.42524  -1.25520
N    -0.41957   1.87850  -1.22963
O     0.38513   2.53416  -0.30575
C     1.29522   1.63037   0.22088
O     2.00057   1.91579   1.16111
C     1.23269   0.47817  -0.68377
C     2.10994  -0.68063  -0.62965
C     2.70881  -0.99362   0.61168
C     3.50840  -2.12576   0.74628
C     3.73421  -2.96477  -0.34851
C     3.15579  -2.65908  -1.58446
C     2.34780  -1.53361  -1.72858
N     0.36852   0.84113  -1.65426
C     0.01818   0.20569  -2.91782
H    -1.11225  -4.03552   0.12706
H    -0.51682  -3.65611  -1.51497
H     0.57088  -3.49799  -0.10825
H    -1.39982  -1.55842  -1.08661
H    -0.27371   0.66688   2.90577
H    -2.85330  -0.14257   3.29205
H    -4.32625   1.45908   1.64160
H    -2.48722   3.06125   0.41624
H     2.52922  -0.35322   1.47224
H     3.95369  -2.35617   1.71640
H     4.36065  -3.85298  -0.24058
H     3.33285  -3.30374  -2.44779
H     1.92516  -1.32282  -2.70627
H    -0.23988  -0.85020  -2.78101
H     0.86613   0.29156  -3.61066
H    -0.83499   0.75094  -3.33137
