33
Generated by autodE on: 2022-06-29. E = -802.386987 Ha
C    -1.05405  -1.40412   2.67955
N    -0.98973  -0.86991   1.32619
N    -0.55078   0.52539   1.28858
C     0.88166   0.38109   1.52861
O     1.59192   1.16824   2.09596
O     1.26688  -0.82410   1.07546
C     0.04299  -1.38263   0.43887
C     0.21097  -2.86928   0.32495
C    -0.27446  -0.55419  -0.84887
C    -1.27691  -1.29759  -1.72295
C     0.96513  -0.02541  -1.64655
C     0.41332   0.78566  -2.81814
C    -0.04091   1.92484  -2.28058
C     0.25474   1.81313  -0.78745
O     1.45658   1.03042  -0.80024
C    -0.77161   0.80311  -0.18813
C    -2.21501   1.21265  -0.39386
H    -1.40193  -2.44461   2.62721
H    -1.79171  -0.82368   3.24945
H    -0.09108  -1.38392   3.22255
H    -0.73792  -3.34235   0.04276
H     0.54657  -3.28775   1.28387
H     0.96310  -3.10108  -0.44241
H    -0.79385  -2.14904  -2.22634
H    -1.68997  -0.63995  -2.49795
H    -2.11541  -1.68153  -1.12653
H     1.74699  -0.76485  -1.85352
H     0.33694   0.44048  -3.84873
H    -0.57707   2.74246  -2.76097
H     0.38708   2.73924  -0.21651
H    -2.45016   1.30017  -1.46273
H    -2.39597   2.18909   0.08124
H    -2.89840   0.47748   0.04909
