19
Generated by autodE on: 2022-06-29. E = -386.192013 Ha
C    -1.81992   1.50268  -0.80609
C    -0.78022   0.66208  -0.15521
C    -0.79053  -0.61370   0.26337
C    -1.84566  -1.66105   0.23302
C     0.67342  -0.89264   0.69600
C     1.53336  -0.90979  -0.58906
C     1.54349   0.36070  -1.00631
C     0.68973   1.12149   0.03466
O     1.03825   0.39575   1.23066
H    -1.97416   2.45037  -0.26126
H    -1.50861   1.77906  -1.83025
H    -2.78612   0.98078  -0.87339
H    -1.54351  -2.49572  -0.42591
H    -2.01100  -2.09815   1.23321
H    -2.80448  -1.26664  -0.13515
H     0.83079  -1.70147   1.41950
H     1.96098  -1.79905  -1.05173
H     1.98181   0.79617  -1.90406
H     0.86299   2.19929   0.13838
