33
Generated by autodE on: 2022-06-29. E = -802.338005 Ha. Imaginary frequency = -412.7 cm-1
C    -1.81470  -1.62609   2.04590
N    -0.54597  -0.99648   1.75484
N    -0.36616   0.31237   2.04716
C     0.91433   0.59098   1.68436
O     1.58391   1.59257   1.88331
O     1.44575  -0.52964   1.04262
C     0.36292  -1.34992   0.78242
C     0.70605  -2.76933   0.46974
C    -0.39757  -0.47311  -0.83027
C    -1.43281  -1.44556  -1.35082
C     0.79491  -0.15306  -1.79007
C     0.18116   0.55332  -3.02239
C    -0.17675   1.76540  -2.58322
C     0.23489   1.77401  -1.08946
O     1.40828   0.95938  -1.13505
C    -0.77615   0.83435  -0.42006
C    -2.15118   1.32422  -0.13647
H    -2.63600  -1.18885   1.45997
H    -2.03372  -1.49133   3.11388
H    -1.74466  -2.69794   1.82974
H    -0.19538  -3.37231   0.31315
H     1.28332  -3.19670   1.30388
H     1.32003  -2.80985  -0.43973
H    -0.98426  -2.41220  -1.61946
H    -1.89317  -1.02808  -2.26294
H    -2.24152  -1.62975  -0.63244
H     1.50805  -0.96473  -1.97363
H     0.04351   0.10524  -4.00590
H    -0.69964   2.56889  -3.10075
H     0.41931   2.74290  -0.61192
H    -2.61473   1.62296  -1.09859
H    -2.14769   2.21444   0.50921
H    -2.79304   0.55874   0.31465
