37
Generated by autodE on: 2022-07-27. E = -1029.254806 Ha
C     4.51166  -0.56420   2.54603
N     3.64184  -0.56214   1.38874
C     2.34208  -0.23546   1.49110
O     1.83840   0.11252   2.58463
C     1.47624  -0.27940   0.29498
N     0.19595   0.07998   0.62717
C    -0.89408   0.35911  -0.05653
C    -0.78593   0.67906  -1.51431
O     0.03559   1.45558  -1.95699
O    -1.74450   0.10418  -2.23181
C    -1.75967   0.40356  -3.63677
C    -2.16436   0.51845   0.65105
C    -3.19408   1.32265   0.11617
C    -4.38517   1.50230   0.81616
C    -4.57687   0.88665   2.05818
C    -3.56654   0.08206   2.59524
C    -2.37447  -0.10776   1.89844
C     1.74034  -0.90555  -0.97607
O     0.88169  -1.21209  -1.80127
O     3.04983  -1.16876  -1.19401
C     3.37570  -1.87428  -2.39715
H     4.20243  -1.31661   3.29052
H     5.53312  -0.79482   2.21932
H     4.51413   0.41789   3.04446
H     3.98548  -0.87113   0.48485
H     0.14059   0.16187   1.65883
H    -0.81765   0.07800  -4.10019
H    -2.60466  -0.15509  -4.05437
H    -1.89751   1.48243  -3.79687
H    -3.05653   1.82444  -0.84257
H    -5.16866   2.13344   0.39103
H    -5.51370   1.02757   2.60175
H    -3.71343  -0.41538   3.55645
H    -1.61325  -0.77132   2.31399
H     3.05875  -1.29997  -3.27955
H     4.46602  -1.98796  -2.39208
H     2.89295  -2.86226  -2.41281
