37
Generated by autodE on: 2022-06-26. E = -1029.254599 Ha
C    -3.32155   0.72554  -3.22974
N    -2.67688  -0.23582  -2.36169
C    -1.71962   0.14235  -1.48744
O    -1.27621   1.31046  -1.46993
C    -1.24031  -0.86733  -0.53755
N    -0.23206  -0.54602   0.34137
C     0.74958   0.33219   0.27899
C     1.14217   0.89377  -1.05230
O     1.27588   0.20351  -2.04297
O     1.44467   2.18568  -0.98541
C     1.87335   2.80443  -2.20805
C     1.53528   0.61283   1.47891
C     2.88328   1.02142   1.37992
C     3.63958   1.24022   2.52876
C     3.07173   1.06101   3.79551
C     1.73524   0.66451   3.90636
C     0.96950   0.44801   2.76180
C    -1.93129  -2.10753  -0.27377
O    -2.89332  -2.54945  -0.90456
O    -1.40473  -2.78253   0.77711
C    -2.05604  -3.99672   1.16219
H    -3.95927   1.43374  -2.67213
H    -3.94846   0.18834  -3.95275
H    -2.57280   1.31376  -3.78066
H    -3.08646  -1.15821  -2.21716
H    -0.26720  -1.09939   1.20474
H     2.07270   3.85322  -1.96135
H     2.78520   2.31998  -2.58524
H     1.07702   2.73280  -2.96254
H     3.34684   1.14958   0.40104
H     4.68326   1.54812   2.43512
H     3.66744   1.23867   4.69358
H     1.27942   0.53940   4.89094
H    -0.08462   0.18221   2.86802
H    -2.04290  -4.72221   0.33579
H    -3.09730  -3.80436   1.46035
H    -1.48714  -4.38720   2.01425
