60
Generated by autodE on: 2022-06-26. E = -1380.752450 Ha. Imaginary frequency = -292.5 cm-1
C     5.41835   0.82280  -0.65046
C     4.32337   1.02450   0.11962
C     4.43407   1.19644   1.61279
C     3.00655   1.07260  -0.49770
C     1.81838   1.14202   0.16847
C     0.55498   1.17790  -0.50031
C     0.32792  -1.40041  -0.04859
C     1.07455  -1.75822   1.18656
O     0.44848  -1.83776   2.26883
N     2.39939  -1.96308   1.12996
C     3.17459  -2.21590   2.32591
C     0.80924  -1.52852  -1.40770
O     0.10526  -1.55615  -2.41385
O     2.15570  -1.60562  -1.49579
C     2.72804  -1.62786  -2.80644
N    -1.00457  -1.22116   0.22615
C    -1.84163  -0.27038  -0.30598
C    -2.05954  -0.33264  -1.82173
O    -1.83706   0.53331  -2.63609
O    -2.69028  -1.47427  -2.11666
C    -2.99031  -1.69870  -3.50052
C    -3.13559  -0.06633   0.41323
C    -4.20371   0.58192  -0.23766
C    -5.40734   0.82870   0.42410
C    -5.57503   0.43226   1.75287
C    -4.52377  -0.21246   2.41230
C    -3.31804  -0.45533   1.75468
C    -0.69655   1.49187   0.09889
C    -0.73714   1.55241   1.61100
C    -1.50673   2.59656  -0.55648
H     6.42028   0.76826  -0.21604
H     5.33140   0.70519  -1.73499
H     3.83668   0.44349   2.14813
H     5.47727   1.11102   1.94788
H     4.04860   2.18195   1.92300
H     2.98488   1.02516  -1.59103
H     1.81970   1.17166   1.26005
H     0.59468   1.22155  -1.59361
H     2.86149  -1.82561   0.23608
H     2.95324  -3.20943   2.74985
H     4.24038  -2.17215   2.07098
H     2.96146  -1.46613   3.10347
H     2.40073  -0.75385  -3.38678
H     3.81372  -1.59723  -2.65734
H     2.44267  -2.54674  -3.33895
H    -1.14000  -1.40714   1.22454
H    -2.06338  -1.71082  -4.09112
H    -3.48473  -2.67580  -3.54816
H    -3.66001  -0.91447  -3.88228
H    -4.10081   0.90273  -1.27511
H    -6.21822   1.33238  -0.10672
H    -6.51734   0.62216   2.27155
H    -4.63903  -0.52880   3.45138
H    -2.52328  -0.94795   2.31711
H    -0.33543   0.64436   2.08047
H    -1.76135   1.71062   1.97434
H    -0.13189   2.40448   1.96374
H    -2.57160   2.54198  -0.28730
H    -1.41419   2.59790  -1.64707
H    -1.12966   3.56210  -0.17556
