17
Generated by autodE on: 2022-10-26. E = -397.498867 Ha
C    -0.99866   0.67394  -2.82392
C    -1.65180   0.98394  -1.53150
N    -1.11944   0.64562  -0.39895
N     0.04012  -0.00121  -0.24313
C     0.28128  -0.19215   1.09432
O    -0.48646   0.18342   2.01499
N     1.44965  -0.83029   1.37093
C     2.35259  -1.37083   0.37696
H    -1.60368   1.03485  -3.66518
H     0.00357   1.13548  -2.87294
H    -0.84264  -0.41439  -2.92863
H    -2.60644   1.50825  -1.46240
H    -1.60283   0.87568   0.48819
H     1.60806  -1.04335   2.34876
H     3.21610  -1.81291   0.89118
H     2.72167  -0.58892  -0.30486
H     1.87932  -2.15379  -0.23962
