14
Generated by autodE on: 2022-10-21. E = -506.330249 Ha
C    -1.58741  -1.69152  -1.00894
O    -1.18126  -0.31692  -1.08543
C    -0.03768  -0.03293  -0.41720
O     1.07595  -0.68780  -0.83448
C     1.84427  -1.38254   0.15650
C    -0.04203   0.88818   0.55294
F    -1.13056   1.49444   1.00299
F     1.05247   1.32849   1.16246
H    -2.51448  -1.77792  -1.58973
H    -0.82159  -2.35460  -1.43946
H    -1.77652  -1.97848   0.03870
H     2.50679  -2.06963  -0.38624
H     1.18428  -1.95611   0.82652
H     2.45408  -0.68413   0.74980
