28
Generated by autodE on: 2022-05-31. E = -691.408465 Ha
C    -2.38405   2.71877  -0.32566
C    -1.05579   2.03130  -0.53698
O    -0.02566   2.69368  -0.67024
C    -1.09200   0.56712  -0.57385
C    -0.16167  -0.38588  -0.27043
C     1.23701  -0.36646   0.13772
C     1.73247  -1.43894   0.91541
C     3.05796  -1.45815   1.34513
C     3.92706  -0.42103   0.98966
C     3.45666   0.63760   0.20552
C     2.12768   0.67069  -0.21488
C    -0.97926  -1.71414  -0.27405
C    -1.89913  -1.67954   0.96258
C    -2.81111  -0.74562   0.67638
C    -2.42031  -0.23043  -0.72563
O    -1.91345  -1.43195  -1.32190
H    -2.93233   2.27845   0.52234
H    -2.22185   3.79072  -0.15389
H    -3.01523   2.58740  -1.22043
H     1.07091  -2.25731   1.20389
H     3.41624  -2.28949   1.95646
H     4.96877  -0.44140   1.31829
H     4.13260   1.44599  -0.08315
H     1.75852   1.49776  -0.81632
H    -0.41260  -2.63053  -0.46463
H    -1.75024  -2.26257   1.87057
H    -3.62579  -0.35335   1.28402
H    -3.20545   0.23087  -1.33228
