10
Generated by autodE on: 2022-05-31. E = -396.601691 Ha
C    -2.23541  -0.06056  -0.01117
C    -0.76678  -0.17654  -0.01599
O    -0.16618  -1.35612  -0.05261
N     1.15700  -1.28195  -0.03821
O     1.42483   0.02228   0.01125
C     0.25249   0.81501   0.03076
O     0.28662   2.02676   0.07343
H    -2.68541  -0.73118  -0.75841
H    -2.50669   0.97870  -0.24117
H    -2.64890  -0.31836   0.97866
