38
Generated by autodE on: 2022-05-31. E = -1088.004463 Ha. Imaginary frequency = -244.5 cm-1
C    -0.95902   0.29639   2.53380
C    -1.18797   1.13354   1.29917
O    -1.90790   2.13365   1.35759
C    -0.57037   0.79250   0.01243
C    -0.71783   1.78795  -1.16595
C     0.42290   2.80859  -0.98441
C     1.54026   2.13066  -1.27384
C     1.05595   0.70792  -1.63420
O    -0.20061   1.00049  -2.24430
C     0.61472   0.08473  -0.27502
C     1.68383  -0.33660   0.66689
C     2.09997   0.57105   1.65933
C     3.17255   0.26743   2.49980
C     3.85329  -0.94504   2.35996
C     3.46199  -1.84407   1.36312
C     2.39354  -1.54031   0.51708
N    -0.21397  -1.87927  -0.81978
O    -0.90443  -1.52034  -1.94363
C    -2.11240  -0.92392  -1.60793
O    -2.86624  -0.43435  -2.41434
C    -2.17551  -1.10280  -0.17281
C    -3.37235  -0.96551   0.67734
O    -1.15357  -1.87810   0.17100
H    -1.90402   0.22867   3.09133
H    -0.23615   0.82079   3.17769
H    -0.56712  -0.70440   2.32118
H    -1.72420   2.16221  -1.37210
H     0.30102   3.82981  -0.62583
H     2.58144   2.44449  -1.21768
H     1.69974   0.08505  -2.26386
H     1.59133   1.53040   1.75936
H     3.47757   0.98488   3.26512
H     4.69003  -1.18548   3.01993
H     3.99419  -2.79015   1.23928
H     2.09755  -2.24525  -0.25819
H    -4.17995  -1.60234   0.27864
H    -3.15936  -1.25452   1.71262
H    -3.72579   0.07622   0.64699
