62
Generated by autodE on: 2022-06-11. E = -1491.727961 Ha
C    16.55989  -6.58159  19.98251
C    17.06563  -6.74557  21.44437
C    16.06431  -7.64000  22.04959
N    15.16213  -8.24430  22.45755
C    16.99582  -5.35765  22.16412
C    17.04898  -5.33439  23.69266
C    18.19302  -6.08695  24.39009
C    17.93697  -7.60134  24.55114
C    18.76973  -8.63064  23.68564
C    19.99786  -9.08759  24.51226
C    20.40156 -10.42979  24.55103
C    21.52026 -10.82509  25.28874
C    22.26140  -9.88237  26.00418
C    21.87025  -8.54058  25.97351
C    20.74962  -8.15015  25.23762
C    17.87074  -9.85014  23.39866
C    17.65016 -10.37417  22.12082
C    16.82033 -11.48490  21.92981
C    16.19103 -12.09076  23.01698
C    16.40310 -11.57582  24.30125
C    17.23521 -10.47261  24.48714
C    19.22680  -7.96246  22.38532
C    18.49833  -7.27208  21.47441
C    19.47926  -6.87378  20.35788
C    19.49032  -5.44444  19.96667
N    19.55825  -4.32715  19.66861
C    19.28701  -7.72152  19.14070
N    19.18209  -8.45885  18.25224
O    20.76107  -7.11444  20.91104
N    20.59900  -7.93324  22.09874
C    21.44142  -9.08969  21.96656
C    22.71218  -9.02758  22.54411
C    23.57288 -10.12072  22.43792
C    23.16434 -11.26797  21.75031
C    21.90192 -11.31274  21.14790
C    21.04090 -10.21912  21.24444
H    17.14038  -5.82091  19.44407
H    16.60787  -7.53297  19.43695
H    15.51623  -6.24096  19.99974
H    16.06274  -4.86954  21.84215
H    17.81978  -4.75562  21.75596
H    17.10141  -4.27093  23.97702
H    16.09152  -5.70446  24.09743
H    19.14689  -5.88122  23.88070
H    18.29765  -5.65939  25.39873
H    16.87546  -7.79302  24.36535
H    18.10091  -7.88704  25.59737
H    19.85211 -11.17960  23.98395
H    21.81625 -11.87664  25.29383
H    23.13865 -10.18873  26.57881
H    22.44055  -7.78928  26.52507
H    20.47428  -7.09590  25.22228
H    18.09593  -9.90268  21.24720
H    16.66341 -11.86805  20.91868
H    15.53958 -12.95521  22.86903
H    15.91898 -12.03819  25.16486
H    17.39879 -10.09586  25.49791
H    23.00250  -8.13279  23.09496
H    24.55993 -10.08133  22.90337
H    23.83379 -12.12811  21.67766
H    21.58701 -12.20244  20.59825
H    20.06353 -10.24143  20.76551
