44
Generated by autodE on: 2022-06-11. E = -906.079321 Ha
C     1.88769  -3.61369   1.43673
C     1.67454  -2.16860   1.94036
C     1.41217  -2.21046   3.39072
N     1.22908  -2.24738   4.53621
C     0.57264  -1.50402   1.23096
C     0.06246  -0.77034   0.41305
C    -0.08964   0.22532  -0.65108
C    -1.18665  -0.19715  -1.64172
C    -1.00828  -0.16056  -3.03005
C    -2.05418  -0.51679  -3.89045
C    -3.28910  -0.91511  -3.37526
C    -3.47516  -0.95445  -1.98835
C    -2.43249  -0.59747  -1.13292
C    -0.43937   1.61685  -0.08556
C    -0.67294   2.67347  -0.98054
C    -0.96112   3.95585  -0.51207
C    -1.02631   4.20525   0.86396
C    -0.79925   3.15987   1.76084
C    -0.50640   1.87471   1.28858
C     1.33721   0.26871  -1.29975
C     2.51903   0.42533  -0.31998
C     3.19682  -0.86208   0.22986
C     2.93852  -1.26920   1.69389
H     2.73073  -4.07520   1.97093
H     0.98456  -4.21842   1.59904
H     2.11012  -3.59600   0.36128
H    -0.05504   0.14987  -3.45741
H    -1.89636  -0.48222  -4.97119
H    -4.10318  -1.19443  -4.04824
H    -4.43649  -1.26524  -1.57204
H    -2.58434  -0.62581  -0.05090
H    -0.63414   2.49043  -2.05631
H    -1.13901   4.76453  -1.22513
H    -1.25465   5.20839   1.23172
H    -0.84821   3.33975   2.83759
H    -0.32814   1.06662   1.99927
H     1.34672   1.10585  -2.01271
H     1.47231  -0.65225  -1.88772
H     3.29470   0.97972  -0.87014
H     2.22940   1.08410   0.51582
H     2.98625  -1.71091  -0.44128
H     4.28458  -0.70596   0.16219
H     3.80300  -1.83097   2.08131
H     2.83900  -0.36312   2.31145
