18
Generated by autodE on: 2022-06-11. E = -585.543470 Ha
N     2.92903   1.64570   1.95693
C     2.58212   0.99739   1.04993
C     2.18623   0.21440  -0.04908
C     3.08410  -0.31461  -0.99248
N     3.84861  -0.74386  -1.76373
O     0.89386  -0.07337  -0.25810
N    -0.01158   0.37448   0.55743
C    -1.27461  -0.01771   0.19009
C    -2.30552   0.44848   1.04086
C    -3.62742   0.11687   0.76915
C    -3.93475  -0.67669  -0.34289
C    -2.91257  -1.14148  -1.18866
C    -1.58735  -0.82135  -0.93528
H    -2.03744   1.06501   1.90031
H    -4.42370   0.47620   1.42375
H    -4.97375  -0.93700  -0.55551
H    -3.16277  -1.76005  -2.05298
H    -0.79113  -1.17964  -1.58753
