18
Generated by autodE on: 2022-07-27. E = -585.543465 Ha
N     0.67850   3.99073  -1.44705
C     0.06654   3.03141  -1.18477
C    -0.69496   1.89009  -0.87915
C    -2.07923   1.79229  -1.10785
N    -3.22844   1.72911  -1.30447
O    -0.01289   0.86783  -0.34423
N    -0.62922  -0.23116  -0.03170
C     0.22292  -1.16557   0.50220
C     1.61470  -0.98454   0.70367
C     2.35678  -2.01767   1.25583
C     1.74044  -3.22982   1.61221
C     0.36609  -3.41025   1.41375
C    -0.39544  -2.38719   0.86178
H     2.08790  -0.04274   0.42643
H     3.42908  -1.88679   1.41505
H     2.33817  -4.03404   2.04631
H    -0.10961  -4.35275   1.69141
H    -1.46799  -2.50069   0.69612
