62
Generated by autodE on: 2022-06-11. E = -1491.627614 Ha. Imaginary frequency = -231.3 cm-1
C    17.69921  -4.81971  20.34381
C    17.36574  -5.82184  21.46408
C    16.04950  -6.42073  21.16137
N    15.01103  -6.88269  20.92567
C    17.28639  -5.03896  22.81399
C    16.67268  -5.72227  24.03851
C    17.49848  -6.74563  24.84071
C    17.37435  -8.22325  24.44187
C    18.45279  -8.87138  23.48176
C    19.82664  -8.89186  24.19900
C    20.32716 -10.00814  24.88283
C    21.53808  -9.94572  25.57906
C    22.28064  -8.76421  25.61165
C    21.80913  -7.65086  24.91335
C    20.60429  -7.71927  24.21071
C    17.85997 -10.23763  23.08724
C    17.46064 -10.49715  21.76719
C    16.85658 -11.70793  21.41781
C    16.62601 -12.68758  22.38606
C    16.97821 -12.42636  23.71302
C    17.57264 -11.21069  24.06050
C    18.54966  -7.98964  22.30360
C    18.30279  -6.97825  21.63272
C    19.86953  -7.16576  19.86321
C    20.48401  -5.92647  19.53982
N    20.99977  -4.91202  19.29360
C    18.85648  -7.71842  19.02726
N    18.01651  -8.14884  18.34517
O    20.69712  -7.98309  20.53016
N    20.15557  -9.13107  20.91321
C    21.09361  -9.92686  21.55245
C    22.35774  -9.47720  21.99641
C    23.21942 -10.37063  22.61773
C    22.84623 -11.71066  22.80381
C    21.60005 -12.15984  22.35477
C    20.72425 -11.27780  21.73006
H    16.90486  -4.06223  20.29373
H    17.76559  -5.30603  19.36252
H    18.64590  -4.31538  20.57172
H    18.31258  -4.70429  23.03315
H    16.69490  -4.13572  22.59869
H    16.43110  -4.89810  24.72866
H    15.69945  -6.16680  23.76649
H    17.13608  -6.68575  25.87896
H    18.55105  -6.42921  24.88809
H    16.39270  -8.38608  23.97065
H    17.39236  -8.84183  25.35037
H    19.79478 -10.95491  24.86234
H    21.90404 -10.83910  26.09046
H    23.22606  -8.71845  26.15705
H    22.38564  -6.72280  24.90087
H    20.27725  -6.84718  23.64563
H    17.63313  -9.75087  20.99420
H    16.56701 -11.88198  20.37867
H    16.16045 -13.63774  22.11396
H    16.78043 -13.16796  24.49065
H    17.79506 -11.02338  25.11025
H    22.64173  -8.43468  21.86200
H    24.19079 -10.02191  22.97388
H    23.53092 -12.40187  23.29976
H    21.30966 -13.20345  22.49117
H    19.75444 -11.61313  21.36707
