26
Generated by autodE on: 2022-06-23. E = -689.460844 Ha
C     2.50039   2.28792  -0.21856
O     1.15892   2.12513   0.25326
C     0.47350   0.99256   0.10057
C     0.84278  -0.16244  -0.52185
O     2.04119  -0.31768  -1.15785
C     2.99326  -1.15897  -0.49844
C    -0.09641  -1.30210  -0.59906
O     0.23728  -2.32078  -1.20189
C    -1.44167  -1.20129   0.04379
C    -2.34061  -2.39450  -0.03538
C    -1.82198  -0.05485   0.66054
C    -3.16542   0.09739   1.30430
C    -0.89760   1.10677   0.71271
O    -1.21666   2.15742   1.25200
H     2.78210   3.31087   0.06156
H     2.55261   2.17251  -1.30884
H     3.17938   1.57400   0.26904
H     3.89208  -1.16903  -1.12919
H     3.24845  -0.75258   0.49441
H     2.61292  -2.18528  -0.38835
H    -2.62453  -2.73498   0.97414
H    -3.27934  -2.14044  -0.55534
H    -1.85619  -3.22226  -0.56612
H    -3.97087  -0.06116   0.56839
H    -3.30698  -0.65901   2.09381
H    -3.28309   1.09391   1.74594
