51
Generated by autodE on: 2022-06-23. E = -1320.739967 Ha. Imaginary frequency = -388.2 cm-1
C    -4.75809  -0.18852  -1.11474
O    -3.81375   0.89041  -1.07088
C    -2.69475   0.87109  -0.34138
C    -1.74099   1.80497  -0.62660
O    -1.94615   2.71297  -1.62970
C    -1.33185   2.35125  -2.87237
C    -0.46047   1.84963   0.08094
O     0.33708   2.76032  -0.14484
C    -0.11225   0.72982   1.03209
C     0.82373   1.19834   2.13212
C     0.97145  -0.37787  -0.20757
C     2.24640   0.27659  -0.58261
C     2.36360   0.85433  -1.86009
C     3.53500   1.51229  -2.23536
C     4.60666   1.60824  -1.34346
C     4.49497   1.04326  -0.07009
C     3.32490   0.38628   0.31395
O     0.05591  -0.45843  -1.26253
C    -0.84316  -1.45471  -0.98978
O    -1.80900  -1.67279  -1.69595
C    -0.34661  -2.10904   0.20970
C    -0.93129  -3.34259   0.77545
N     0.91104  -1.64070   0.40671
C     1.88883  -2.21333   1.32071
C    -1.18692  -0.16249   1.41579
C    -1.14272  -0.84022   2.76035
C    -2.51588  -0.04031   0.83620
O    -3.49908  -0.64410   1.28716
H    -5.33327  -0.02417  -2.03586
H    -4.25016  -1.15908  -1.16485
H    -5.42926  -0.16092  -0.24727
H    -1.66558   3.08440  -3.61905
H    -1.64465   1.34107  -3.18325
H    -0.23336   2.38530  -2.79576
H     1.60982   1.84331   1.72546
H     0.25305   1.78858   2.86774
H     1.29215   0.36645   2.66892
H     1.53298   0.78672  -2.56129
H     3.60817   1.95202  -3.23252
H     5.52371   2.12369  -1.63757
H     5.32326   1.11736   0.63793
H     3.26051  -0.02051   1.31963
H    -0.68167  -3.46775   1.83655
H    -2.02378  -3.29627   0.66391
H    -0.57108  -4.22881   0.22517
H     1.99859  -1.61759   2.23491
H     2.86030  -2.28579   0.81494
H     1.55774  -3.22196   1.58894
H    -1.91537  -1.61349   2.83849
H    -0.16710  -1.29453   2.97029
H    -1.33131  -0.10271   3.56128
