23
Generated by autodE on: 2022-06-18. E = -351.521383 Ha
C     3.18357  -0.78663   1.88286
C     2.12749  -1.00802   1.06957
C     1.92275  -2.34154   0.39723
C     1.15679   0.05749   0.82739
C     0.06154  -0.03640   0.03212
C    -0.87000   1.05329  -0.17631
C    -1.98060   1.03996  -0.95616
C    -2.85346   2.25744  -1.07261
C    -2.44232  -0.14553  -1.75527
H     3.32979   0.18267   2.36948
H     3.92500  -1.56574   2.08085
H     1.90609  -2.23499  -0.70020
H     0.95572  -2.78701   0.68434
H     2.72125  -3.04833   0.66346
H     1.35005   1.00708   1.34089
H    -0.13772  -0.98016  -0.48268
H    -0.63922   1.98241   0.35892
H    -2.92665   2.58749  -2.12453
H    -3.88630   2.03064  -0.75219
H    -2.47860   3.09747  -0.46964
H    -2.51763   0.12047  -2.82443
H    -3.45876  -0.44401  -1.44282
H    -1.78651  -1.02111  -1.66632
