18
Generated by autodE on: 2022-07-27. E = -489.757821 Ha
C     1.61292   0.83323   2.73052
N     0.74122   0.21333   1.75521
C     0.72284   0.62944   0.47754
O     1.43861   1.55749   0.05903
C    -0.19143  -0.05091  -0.47110
C    -0.16294   0.42747  -1.80143
N    -0.13422   0.82784  -2.89723
N    -1.03787  -1.07493  -0.17126
C    -1.87576  -1.61648  -1.27369
N    -1.13012  -1.56738   1.00546
H     1.46591   0.34079   3.69961
H     1.39328   1.90735   2.84221
H     2.67231   0.73765   2.44229
H     0.11465  -0.55612   1.99974
H    -2.52511  -0.81865  -1.65388
H    -1.22215  -1.98188  -2.07464
H    -2.47689  -2.43727  -0.86966
H    -1.82421  -2.31870   0.98432
