18
Generated by autodE on: 2022-06-18. E = -489.751668 Ha
C     3.23791  -0.67302  -0.31214
N     1.99827   0.05873  -0.14578
C     0.80740  -0.58528  -0.12788
O     0.74369  -1.81554  -0.26064
C    -0.37719   0.28633   0.05298
C    -0.21429   1.68657   0.14175
N    -0.06198   2.84288   0.21535
N    -1.66880  -0.17233   0.13838
C    -1.95145  -1.62483   0.07684
N    -2.71264   0.54692   0.27674
H     3.40431  -1.38198   0.51527
H     3.24075  -1.24671  -1.25232
H     4.06841   0.04299  -0.33365
H     2.04336   1.06312  -0.01406
H    -1.61914  -2.01658  -0.88906
H    -1.40573  -2.13430   0.87655
H    -3.03276  -1.72584   0.20010
H    -2.42780   1.53721   0.30637
