41
Generated by autodE on: 2022-06-18. E = -841.264429 Ha. Imaginary frequency = -418.7 cm-1
C     4.40556   1.27847  -0.90558
C     3.44538   0.91498  -0.02403
C     3.39739   1.49718   1.36590
C     2.41095  -0.03087  -0.41866
C     1.41945  -0.49753   0.39193
C     0.37721  -1.37624  -0.04397
C    -0.53812  -2.05528   0.81467
C    -0.37640  -1.92418   2.31381
C    -0.95718  -3.44563   0.36589
N    -2.22045  -1.09463   0.62414
N    -2.28065  -0.57863  -0.59622
C    -2.86262  -1.35037  -1.69919
C    -1.30756   0.34578  -0.87186
C    -0.92132   0.54027  -2.22080
N    -0.55885   0.67859  -3.32140
C    -0.80628   1.37613   0.07225
O     0.00730   2.22129  -0.34115
N    -1.26572   1.35489   1.33837
C    -0.69318   2.20823   2.35866
H     5.18464   1.99726  -0.63710
H     4.42892   0.86524  -1.91864
H     4.23098   2.19272   1.53694
H     3.44078   0.70820   2.13464
H     2.45030   2.03984   1.52106
H     2.43575  -0.37083  -1.46054
H     1.39054  -0.16108   1.43064
H     0.44133  -1.73111  -1.07683
H    -0.22324  -0.88377   2.62874
H     0.48883  -2.51619   2.65618
H    -1.26984  -2.30779   2.82905
H    -1.10289  -3.50038  -0.72229
H    -1.88041  -3.77999   0.86411
H    -0.16545  -4.16698   0.63344
H    -2.94630  -1.81210   0.70726
H    -2.09395  -1.97884  -2.17597
H    -3.29015  -0.66731  -2.44327
H    -3.65635  -1.98768  -1.29181
H    -1.76675   0.50356   1.60361
H    -1.32418   2.16464   3.25580
H     0.32881   1.89503   2.63485
H    -0.64593   3.25008   2.01189
