65
Generated by autodE on: 2022-06-11. E = -1679.759292 Ha
C     1.80707   2.95223  -3.49571
N     3.08743   2.28945  -3.34096
C     3.76264   2.34338  -2.18895
O     3.40836   3.03731  -1.22979
C     5.12435   1.59180  -2.12418
C     5.12467   0.23968  -2.86306
O     4.62858   0.06895  -3.95938
O     5.83140  -0.69005  -2.23182
C     5.91270  -1.98300  -2.85594
C     6.10493   2.46341  -2.96492
C     7.59197   2.11550  -2.81741
C     8.36664   3.28466  -2.21771
C     7.72563   3.85522  -0.95673
C     7.56687   2.90195   0.26661
C     8.92294   2.19722   0.46768
C     9.07122   0.80783   0.34582
C    10.32711   0.20000   0.45454
C    11.46705   0.97162   0.68027
C    11.33994   2.36148   0.77760
C    10.08676   2.96390   0.66340
C     7.15432   3.84617   1.43483
C     5.89236   4.46388   1.35067
C     5.45211   5.34496   2.33837
C     6.26337   5.62456   3.44363
C     7.50861   5.00353   3.54748
C     7.94896   4.12144   2.55356
C     6.43840   1.85592   0.22795
C     6.15235   1.13970   1.45079
C     6.87250   1.14846   2.68523
N     7.43966   1.09718   3.69756
N     5.10671   0.34560   1.35579
N     4.67553   0.49861   0.09587
C     3.52401  -0.21979  -0.30847
O     3.05531  -0.14075  -1.42127
O     3.05206  -0.96292   0.66911
C     1.87966  -1.74266   0.36255
C     5.46931   1.39356  -0.65437
H     1.49069   2.87441  -4.54321
H     1.03387   2.49448  -2.85590
H     1.88614   4.01543  -3.22578
H     3.39040   1.59539  -4.02207
H     4.90573  -2.41111  -2.95818
H     6.52499  -2.59824  -2.18768
H     6.38529  -1.89971  -3.84429
H     5.91992   3.51453  -2.71271
H     5.77989   2.34843  -4.00607
H     7.72170   1.22111  -2.19001
H     8.01416   1.85487  -3.79953
H     9.40590   2.98477  -2.01645
H     8.41619   4.10229  -2.95720
H     8.34192   4.69561  -0.60749
H     6.74410   4.29191  -1.18078
H     8.20456   0.17757   0.14646
H    10.40731  -0.88518   0.35593
H    12.44787   0.49867   0.76853
H    12.22378   2.98386   0.93652
H    10.01995   4.05101   0.71599
H     5.23347   4.23517   0.51050
H     4.46730   5.80946   2.24683
H     5.92107   6.31166   4.22106
H     8.14754   5.19527   4.41295
H     8.91184   3.63080   2.68006
H     1.04964  -1.08080   0.07971
H     2.09658  -2.44350  -0.45529
H     1.64154  -2.28672   1.28280
