12
Generated by autodE on: 2022-06-11. E = -469.033890 Ha
C    -3.67399   0.04965  -0.29919
O    -2.47085  -0.73266  -0.26500
C    -1.33646  -0.05716  -0.11444
O    -1.23786   1.14776  -0.00406
N    -0.27055  -0.97103  -0.10425
N     0.85899  -0.47179   0.03176
C     1.95783  -0.08638   0.15479
C     3.24203   0.34036   0.29508
N     4.34469   0.70752   0.41555
H    -3.65115   0.75129  -1.14552
H    -3.79533   0.60831   0.64005
H    -4.49335  -0.66754  -0.42273
