65
Generated by autodE on: 2022-06-11. E = -1679.604128 Ha. Imaginary frequency = -284.2 cm-1
C     1.64335   1.94198  -3.42117
N     3.06408   1.65088  -3.41149
C     3.81095   1.85825  -2.32212
O     3.39685   2.44043  -1.31386
C     5.30032   1.41780  -2.40123
C     5.49514   0.06353  -3.09063
O     4.92595  -0.25858  -4.11719
O     6.40665  -0.69105  -2.49719
C     6.68627  -1.96915  -3.09380
C     6.06012   2.50286  -3.26756
C     7.59226   2.48721  -3.09607
C     8.20091   3.65619  -2.29728
C     7.64429   4.02902  -0.91576
C     7.65089   2.94248   0.21962
C     9.03265   2.29691   0.37428
C     9.17917   0.91121   0.52947
C    10.44258   0.33269   0.68734
C    11.58755   1.13215   0.68378
C    11.45653   2.51443   0.51620
C    10.19317   3.08904   0.36026
C     7.16510   3.63396   1.51212
C     5.79079   3.88909   1.66600
C     5.30021   4.51142   2.81529
C     6.17673   4.89655   3.83451
C     7.54479   4.65862   3.68514
C     8.03447   4.03362   2.53323
C     6.64886   1.93428  -0.21160
C     5.91664   0.73675   1.81011
C     6.54658   0.94387   3.02112
N     7.10252   1.15039   4.02534
N     5.12438   0.03706   1.23751
N     4.70862  -0.38339   0.13701
C     3.34466  -0.32335  -0.16043
O     2.92943  -0.71195  -1.23364
O     2.60477   0.19426   0.81680
C     1.20729   0.37986   0.53509
C     5.89780   1.47553  -1.06576
H     1.27393   1.88947  -4.45297
H     1.08261   1.21850  -2.80548
H     1.45604   2.94967  -3.02569
H     3.45619   1.03401  -4.12166
H     5.77920  -2.58957  -3.09293
H     7.46284  -2.42517  -2.46998
H     7.04684  -1.83852  -4.12360
H     5.65017   3.48138  -2.97659
H     5.77379   2.33454  -4.31521
H     7.91145   1.52934  -2.65993
H     8.04993   2.51817  -4.09729
H     9.28346   3.47049  -2.21172
H     8.10384   4.57014  -2.90874
H     8.21509   4.89525  -0.54750
H     6.60380   4.37438  -1.00807
H     8.29771   0.26848   0.51471
H    10.52792  -0.74994   0.80771
H    12.57593   0.68238   0.80376
H    12.34374   3.15205   0.50323
H    10.11511   4.16906   0.22967
H     5.09454   3.57904   0.88408
H     4.22691   4.68980   2.91612
H     5.79500   5.37601   4.73895
H     8.24136   4.94953   4.47515
H     9.10309   3.83896   2.45319
H     1.08587   1.14264  -0.24692
H     0.74975  -0.56597   0.21392
H     0.75738   0.72245   1.47372
