49
Generated by autodE on: 2022-10-21. E = -1095.974547 Ha
C     1.58162  -0.90316   3.07378
O     1.98550  -1.11174   1.73273
C     1.11487  -0.73149   0.68443
C     1.60348  -1.40889  -0.61951
C     1.71718  -2.92714  -0.37011
C     0.23118  -3.37851  -0.25701
C    -0.55155  -2.06889  -0.49639
C     0.35193  -1.34581  -1.51299
C    -0.38317  -1.20751   0.77142
C    -1.19869   0.12621   0.79090
C    -1.47209   0.50672   2.20384
N    -1.66169   0.82556   3.30309
C    -2.51980   0.07659   0.03599
C    -2.66912   0.73130  -1.19016
C    -3.87349   0.62733  -1.89437
C    -4.92956  -0.12798  -1.37913
C    -4.78087  -0.77953  -0.14949
C    -3.58171  -0.67577   0.55676
O    -0.34863   1.11053   0.22872
C     0.99621   0.82874   0.60730
C     1.97092   1.51628  -0.30785
C     1.58802   2.06359  -1.53827
C     2.54141   2.65757  -2.37246
C     3.88383   2.70619  -1.98772
C     4.27032   2.16244  -0.75704
C     3.31896   1.57680   0.07957
H     2.40323  -1.26550   3.70755
H     0.66929  -1.46966   3.32536
H     1.40678   0.16052   3.30832
H     2.51735  -0.95089  -1.01624
H     2.30625  -3.15606   0.52596
H     2.21333  -3.40161  -1.22940
H    -0.00609  -3.82216   0.72151
H    -0.02364  -4.11984  -1.02866
H    -1.59701  -2.22376  -0.78777
H     0.48049  -1.91343  -2.44691
H     0.02048  -0.33121  -1.76139
H    -0.59462  -1.79032   1.67465
H    -1.84591   1.31920  -1.59408
H    -3.98342   1.14194  -2.85174
H    -5.86848  -0.20790  -1.93183
H    -5.60236  -1.37033   0.26200
H    -3.46847  -1.18737   1.51573
H     1.16003   1.20912   1.62963
H     0.54220   2.02590  -1.84418
H     2.23043   3.08349  -3.32952
H     4.62704   3.16898  -2.64135
H     5.31714   2.19935  -0.44602
H     3.61992   1.14954   1.03908
