21
Generated by autodE on: 2022-10-21. E = -387.436421 Ha
C     2.91437  -0.33102   0.51289
O     1.86815  -0.66005  -0.39186
C     0.70177  -0.00125  -0.21134
C     0.32882   0.92563   0.69729
C    -1.16755   1.13284   0.48139
C    -1.88682  -0.16441   0.97615
C    -1.41740  -1.23061  -0.05869
C    -0.51083  -0.40255  -1.02704
C    -1.27058   0.93956  -1.04848
H     3.78686  -0.93423   0.23009
H     3.17039   0.74024   0.44627
H     2.62441  -0.56386   1.55166
H     0.90849   1.32537   1.52873
H    -1.58268   2.06283   0.89279
H    -1.60320  -0.41602   2.00829
H    -2.98059  -0.03790   0.94924
H    -0.86347  -2.06366   0.39812
H    -2.26871  -1.65640  -0.61092
H    -0.28783  -0.89088  -1.98452
H    -0.74627   1.72204  -1.61681
H    -2.30634   0.84422  -1.41150
