28
Generated by autodE on: 2022-10-21. E = -708.440779 Ha
N     1.21167   3.12149   1.68994
C     1.16800   2.07719   1.15793
C     1.08415   0.83336   0.52047
O    -0.13980   0.37385   0.17543
C    -1.30169   0.91194   0.34639
C    -2.47056   0.23004  -0.11086
C    -3.72993   0.84165   0.09724
C    -4.89494   0.21225  -0.33159
C    -4.82774  -1.03107  -0.97226
C    -3.58377  -1.64508  -1.18368
C    -2.41279  -1.02784  -0.76070
C     2.21465  -0.00978   0.19986
C     3.52748   0.39869   0.53168
C     4.62178  -0.40775   0.22596
C     4.44385  -1.63945  -0.41573
C     3.14780  -2.05270  -0.74799
C     2.04467  -1.25557  -0.44778
H    -1.35889   1.88631   0.84262
H    -3.77673   1.81166   0.59749
H    -5.86241   0.69150  -0.16690
H    -5.74298  -1.52346  -1.30808
H    -3.53337  -2.61458  -1.68416
H    -1.44559  -1.50553  -0.92580
H     3.68422   1.35654   1.03345
H     5.62614  -0.06981   0.49305
H     5.30383  -2.26913  -0.65363
H     2.99226  -3.01158  -1.24888
H     1.04193  -1.59304  -0.71382
