49
Generated by autodE on: 2022-10-21. E = -1095.887746 Ha. Imaginary frequency = -240.7 cm-1
C     1.74688  -1.20869   3.06301
O     2.16102  -1.01648   1.71482
C     1.20947  -1.13284   0.74884
C     1.67265  -1.52551  -0.64465
C     1.77713  -3.08293  -0.60032
C     0.28793  -3.52845  -0.48143
C    -0.48215  -2.16560  -0.44931
C     0.37097  -1.34876  -1.44305
C    -0.11243  -1.53029   0.87708
C    -1.45875   0.64297   0.82325
C    -1.44245   0.68290   2.23201
N    -1.41207   0.70614   3.40210
C    -2.66288   0.35458   0.06597
C    -2.71870   0.56583  -1.32907
C    -3.86687   0.23613  -2.04837
C    -4.98070  -0.31532  -1.40462
C    -4.93379  -0.52796  -0.02141
C    -3.79403  -0.19574   0.70837
O    -0.44384   1.24067   0.15579
C     0.80311   1.22291   0.58487
C     1.83522   1.73016  -0.27933
C     1.59863   2.06503  -1.63182
C     2.65039   2.47998  -2.44429
C     3.95264   2.56400  -1.93305
C     4.19612   2.23502  -0.59382
C     3.14978   1.82669   0.23008
H     2.63181  -1.04399   3.69147
H     1.37293  -2.23578   3.21304
H     0.95615  -0.49778   3.35108
H     2.57064  -1.00496  -1.00051
H     2.39712  -3.41924   0.24335
H     2.23683  -3.45705  -1.52720
H     0.09087  -4.12969   0.41797
H    -0.02637  -4.11895  -1.35614
H    -1.55622  -2.24385  -0.65955
H     0.42070  -1.81561  -2.43807
H     0.05131  -0.30882  -1.55148
H    -0.60498  -1.78670   1.81352
H    -1.85779   0.99104  -1.84509
H    -3.89005   0.41043  -3.12699
H    -5.87565  -0.57612  -1.97379
H    -5.79541  -0.95710   0.49590
H    -3.77062  -0.36971   1.78667
H     0.97200   1.17054   1.66119
H     0.58624   2.00109  -2.03308
H     2.45630   2.74041  -3.48740
H     4.77393   2.88794  -2.57623
H     5.20899   2.30191  -0.19001
H     3.33741   1.56502   1.27322
