12
Generated by autodE on: 2022-06-18. E = -157.299004 Ha
C    -1.60921  -0.46924  -0.11891
C    -0.64133   0.66218   0.05927
C     0.69888   0.59553   0.10124
C     1.55906  -0.62668  -0.02098
H    -2.30161  -0.53120   0.73932
H    -1.11520  -1.44546  -0.22651
H    -2.24103  -0.30765  -1.01019
H    -1.09875   1.65392   0.16742
H     1.24469   1.53750   0.24007
H     2.25291  -0.53376  -0.87523
H     2.19267  -0.75098   0.87501
H     0.97806  -1.55025  -0.15563
