30
Generated by autodE on: 2022-07-27. E = -837.428102 Ha
C    -3.45947   0.20985  -3.23748
N    -2.53003  -0.15926  -2.19225
C    -1.58492   0.69230  -1.75092
O    -1.43174   1.83224  -2.24876
C    -0.71528   0.25702  -0.64935
N     0.20790   1.22835  -0.32944
C     1.30767   1.25520   0.37632
C     1.99008   2.55190   0.64804
C     1.96596  -0.01431   0.80297
O     2.07124  -0.99180   0.08986
O     2.51444   0.09888   2.00944
C     3.24781  -1.04001   2.49189
C    -0.98859  -0.88820   0.17682
O    -1.73399  -1.82163  -0.13310
O    -0.40002  -0.83381   1.39045
C    -0.52818  -1.97638   2.23993
H    -4.08788  -0.65755  -3.47526
H    -4.11480   1.04314  -2.93222
H    -2.93039   0.52042  -4.15257
H    -2.60440  -1.05364  -1.71092
H    -0.04970   2.10713  -0.81105
H     1.93309   2.79009   1.72379
H     1.51593   3.36755   0.08370
H     3.05813   2.49592   0.38491
H     3.59739  -0.76910   3.49428
H     4.10154  -1.25037   1.83223
H     2.59261  -1.92127   2.53963
H    -1.58306  -2.16749   2.48456
H    -0.09785  -2.86624   1.75755
H     0.03138  -1.73532   3.15152
