35
Generated by autodE on: 2022-06-19. E = -1028.014042 Ha
C     2.44808  -0.61093   2.26477
N     1.62523  -0.83439   1.09229
C     1.77681  -0.16223  -0.04681
O     2.67351   0.63915  -0.31665
C     0.63785  -0.38026  -1.08135
C     1.24964  -0.67192  -2.38692
N     1.71847  -0.91548  -3.41833
O    -0.21799  -1.43924  -0.71605
C    -1.49844  -0.97195  -0.23153
C    -2.55870  -1.32267  -1.27468
C    -1.77151  -1.71266   1.09891
C    -3.18188  -1.74231   1.60345
O    -0.86586  -2.31013   1.65567
C    -1.31822   0.56441  -0.07618
C    -0.90848   1.05598   1.30643
O    -1.35763   0.54894   2.32302
C    -0.01023   2.22625   1.38808
C     0.60119   2.76492   0.31553
C     0.44422   2.20711  -1.04250
O     0.87648   2.77799  -2.02936
C    -0.28697   0.88161  -1.16552
H     1.80182  -0.39370   3.12821
H     3.11366   0.24170   2.08488
H     3.05737  -1.49844   2.49587
H     0.83028  -1.48023   1.16915
H    -2.31088  -0.84599  -2.23336
H    -3.55289  -0.97917  -0.96127
H    -2.58598  -2.41159  -1.42503
H    -3.18074  -1.98224   2.67419
H    -3.72990  -2.53361   1.06422
H    -3.70000  -0.79172   1.41914
H    -2.26799   1.07883  -0.29061
H     0.13503   2.63334   2.39161
H     1.24638   3.64218   0.40472
H    -0.76463   0.87196  -2.15201
