23
Generated by autodE on: 2022-06-19. E = -646.289290 Ha
C     3.63267   1.29052   1.89351
N     2.80747   0.51608   0.98976
C     1.46788   0.66968   0.89863
O     0.81761   1.48240   1.56940
C     0.78373  -0.21596  -0.07044
C     1.44232  -1.18067  -0.85507
N     2.09626  -1.95424  -1.46404
O    -0.52218   0.00863  -0.12362
C    -1.52108  -0.51052  -0.75370
C    -1.39518  -1.63207  -1.70194
C    -2.81280   0.12336  -0.40500
C    -2.79295   1.26708   0.57204
O    -3.84162  -0.29470  -0.92677
H     4.49827   1.70939   1.35902
H     4.00623   0.67468   2.72849
H     3.03745   2.11332   2.30616
H     3.26804  -0.16429   0.39313
H    -1.02005  -2.53439  -1.18785
H    -0.68560  -1.39165  -2.51032
H    -2.38052  -1.84544  -2.13163
H    -2.23512   1.00462   1.48264
H    -2.27369   2.12906   0.12168
H    -3.82437   1.54728   0.81918
