35
Generated by autodE on: 2022-06-19. E = -1027.937396 Ha. Imaginary frequency = -258.0 cm-1
C     3.54036  -0.11737   1.50286
N     2.32237  -0.57558   0.86154
C     2.19946  -0.56368  -0.47632
O     3.12094  -0.31139  -1.25917
C     0.83176  -0.81819  -1.00610
C     0.72241  -1.07634  -2.40050
N     0.68873  -1.25479  -3.55104
O    -0.05763  -1.21420  -0.10767
C    -1.36970  -1.25922  -0.15501
C    -2.10650  -1.65173  -1.38591
C    -1.92759  -1.45272   1.22956
C    -3.40175  -1.67327   1.35463
O    -1.17601  -1.39500   2.19173
C    -1.50103   1.12565  -0.48601
C    -1.73309   1.46823   0.93255
O    -2.86033   1.47383   1.42469
C    -0.54822   1.81781   1.74899
C     0.64522   2.05936   1.17781
C     0.82564   1.98533  -0.29259
O     1.85043   2.40746  -0.82437
C    -0.27755   1.39180  -1.07800
H     3.38538  -0.11258   2.58811
H     3.79859   0.90057   1.16992
H     4.38746  -0.77986   1.26758
H     1.48709  -0.71594   1.42281
H    -1.75369  -1.12523  -2.27886
H    -3.17723  -1.45307  -1.26593
H    -1.97127  -2.73725  -1.54647
H    -3.67237  -1.72758   2.41606
H    -3.69176  -2.60604   0.84389
H    -3.94689  -0.84872   0.86962
H    -2.39348   0.96935  -1.09245
H    -0.71120   1.91134   2.82506
H     1.51951   2.36172   1.75881
H    -0.16785   1.42497  -2.16241
