26
Generated by autodE on: 2022-10-25. E = -685.642218 Ha
C     3.06705  -2.01382  -0.47640
O     1.75829  -1.44651  -0.39962
C     1.68924  -0.10462  -0.18991
O     2.70242   0.56174  -0.00325
C     0.32494   0.37039  -0.17247
C    -0.08655   1.71920   0.14217
C     0.97073   2.77060   0.39708
O    -1.28643   2.04804   0.19232
N    -0.69218  -0.51189  -0.60807
C    -0.61106  -1.10486  -1.95548
C    -1.81337  -0.63633   0.06415
C    -3.03814  -1.26778  -0.50456
C    -1.84085  -0.23042   1.43589
N    -1.93446   0.00240   2.57114
H     3.64628  -1.56054  -1.29486
H     3.61185  -1.87396   0.46917
H     2.92254  -3.08396  -0.66893
H     1.56256   2.50987   1.28729
H     0.46396   3.73098   0.55939
H     1.67676   2.85031  -0.44091
H     0.38101  -0.91262  -2.36758
H    -0.80115  -2.18434  -1.90549
H    -1.36957  -0.62996  -2.59439
H    -2.84073  -2.32504  -0.74737
H    -3.33040  -0.76002  -1.43770
H    -3.86514  -1.21595   0.21242
