38
Generated by autodE on: 2022-10-25. E = -3346.050340 Ha
C    -3.93856  -1.07646  -1.93457
O    -3.89721  -0.33039  -0.72564
C    -2.88189  -0.70480   0.17189
O    -2.98616  -2.07031   0.53141
C    -4.16439  -2.44478   1.23726
C    -1.51416  -0.54579  -0.37238
C    -0.34583  -0.22724  -0.31608
C     0.90809   0.27570   0.20153
Br    1.10893   2.18116  -0.58330
C     2.14457  -0.48693  -0.21369
C     3.37718  -0.24873   0.41621
C     4.51285  -0.96576   0.03980
C     4.43601  -1.92971  -0.97246
C     3.21432  -2.16920  -1.60583
C     2.07577  -1.45180  -1.22814
C     0.72832   0.42103   1.73191
C    -0.58759   1.04385   2.23450
C    -1.83419   0.12973   2.40472
C    -2.97068   0.26046   1.37263
H    -4.71044  -0.61796  -2.56713
H    -4.19590  -2.13269  -1.75513
H    -2.96807  -1.03341  -2.46063
H    -4.23307  -3.53964   1.17271
H    -4.11470  -2.15528   2.30008
H    -5.06652  -2.00464   0.78407
H     3.45755   0.50938   1.19661
H     5.46484  -0.76973   0.53855
H     5.32690  -2.48987  -1.26575
H     3.14259  -2.91859  -2.39752
H     1.12291  -1.64490  -1.72521
H     0.83657  -0.59762   2.14220
H     1.57586   1.00492   2.11661
H    -0.35224   1.45793   3.22670
H    -0.84115   1.91445   1.60758
H    -2.27563   0.36724   3.38421
H    -1.52435  -0.92650   2.47252
H    -3.94544   0.09070   1.85347
H    -2.99996   1.27917   0.95800
