64
Generated by autodE on: 2022-10-25. E = -4031.677556 Ha. Imaginary frequency = -203.9 cm-1
C    19.25856 -20.90577  -4.08000
O    18.26796 -21.59129  -4.85638
C    17.08869 -20.96392  -5.01424
O    16.81437 -19.94053  -4.41521
C    16.18193 -21.71410  -5.92747
C    14.83217 -22.10386  -5.44406
C    14.50020 -21.94079  -3.98446
O    14.03327 -22.64464  -6.20787
C    15.41079 -20.05638  -7.52230
C    15.99578 -20.30118  -8.59152
C    16.04052 -19.98533 -10.02108
Br   18.00321 -19.82385 -10.68281
C    15.38702 -21.04248 -10.89310
C    15.31722 -20.87542 -12.28675
C    14.67614 -21.82222 -13.08490
C    14.09429 -22.95703 -12.50606
C    14.15656 -23.13030 -11.12247
C    14.79608 -22.17784 -10.32198
C    15.43889 -18.57909 -10.22236
C    16.03766 -17.46780  -9.33424
C    15.15085 -16.93090  -8.19751
C    15.07761 -17.69690  -6.87087
C    14.43882 -19.09875  -6.89573
O    14.10841 -19.55935  -5.61073
C    13.20407 -18.78587  -4.83857
O    13.27512 -19.00305  -7.69636
C    12.51197 -20.19206  -7.84944
C    17.65729 -21.96589  -7.78465
C    18.28334 -22.81678  -8.84961
C    18.35240 -20.75611  -7.46100
N    18.99229 -19.80834  -7.24160
N    16.76431 -22.48605  -6.91981
C    16.31127 -23.86481  -7.19293
H    18.91727 -20.78324  -3.04214
H    20.15537 -21.53529  -4.11236
H    19.47131 -19.91962  -4.51661
H    13.41450 -22.02396  -3.84785
H    14.98991 -22.76925  -3.44207
H    14.86810 -21.00219  -3.56002
H    15.78586 -20.00811 -12.75439
H    14.63482 -21.67650 -14.16687
H    13.59660 -23.70027 -13.13332
H    13.70503 -24.00865 -10.65530
H    14.82386 -22.31325  -9.24192
H    14.36225 -18.69170 -10.01844
H    15.52980 -18.31510 -11.28498
H    17.00703 -17.79501  -8.92526
H    16.26874 -16.61382  -9.98920
H    15.52763 -15.92774  -7.93852
H    14.12786 -16.77621  -8.57631
H    14.48511 -17.08323  -6.17603
H    16.07726 -17.81035  -6.42342
H    12.41036 -18.34458  -5.46081
H    12.74343 -19.46958  -4.11197
H    13.72239 -17.98419  -4.28679
H    11.65510 -19.93235  -8.48578
H    13.09723 -20.98461  -8.34162
H    12.14383 -20.56934  -6.88281
H    17.51981 -23.26929  -9.49743
H    18.87801 -23.62661  -8.39329
H    18.94670 -22.20605  -9.46866
H    15.74084 -24.23966  -6.34352
H    17.19969 -24.49404  -7.32196
H    15.69982 -23.91121  -8.10219
