45
Generated by autodE on: 2022-06-20. E = -993.865006 Ha
C     0.22656   2.63458   1.55339
N     0.09793   1.74954   0.41261
C     0.10974   2.26416  -0.86740
C    -0.34314   1.60525  -1.95319
C    -0.93781   0.23134  -1.84042
C    -1.49635  -0.01549  -0.41928
C    -2.81764   0.74060  -0.19832
N    -3.77848   0.56342  -1.12287
O    -2.99882   1.46229   0.78789
C    -0.47779   0.45759   0.64109
C     0.54401  -0.76623   0.75667
C     0.79665  -1.00408   2.19322
N     0.97290  -1.22462   3.32047
C     1.88993  -0.50057   0.07196
C     2.78070   0.43254   0.62353
C     3.98635   0.72464  -0.01711
C     4.32029   0.08176  -1.21425
C     3.44334  -0.86006  -1.75826
C     2.23450  -1.14979  -1.11709
N    -0.19849  -1.87744   0.16894
C    -1.61634  -1.54061  -0.07230
C    -2.14230  -2.41537  -1.21166
C    -2.48752  -1.78920   1.17318
H     0.89257   3.47206   1.30051
H     0.66837   2.09625   2.40532
H    -0.74852   3.04722   1.87563
H     0.53433   3.26875  -0.94604
H    -0.25130   2.07209  -2.93538
H    -0.18565  -0.54163  -2.06053
H    -1.72356   0.09275  -2.59650
H    -3.65991  -0.04092  -1.92625
H    -4.67352   1.02408  -0.98996
H    -1.01072   0.50632   1.59454
H     2.53708   0.93220   1.56276
H     4.66887   1.45637   0.42167
H     5.26374   0.30996  -1.71597
H     3.69903  -1.37585  -2.68708
H     1.54710  -1.88535  -1.53288
H    -0.08939  -2.75134   0.67836
H    -1.54895  -2.29879  -2.12757
H    -3.19511  -2.18879  -1.43580
H    -2.09065  -3.47282  -0.90844
H    -3.54630  -1.56787   0.97185
H    -2.17104  -1.19429   2.04115
H    -2.41583  -2.85205   1.45210
