25
Generated by autodE on: 2022-07-27. E = -536.117189 Ha
C    -3.08058  -0.96363  -2.25238
C    -2.48032  -0.63185  -0.93193
C    -3.34880  -0.44058   0.25716
N    -1.17655  -0.52146  -0.83998
C    -0.35531  -0.36439   0.28353
C    -0.71536  -0.99315   1.48000
N    -0.98362  -1.53296   2.48925
C     0.92498   0.30607   0.13067
C     1.90498   0.24608   1.15362
C     3.13863   0.87487   1.00874
C     3.45284   1.58071  -0.16105
C     2.49584   1.65497  -1.17770
C     1.24931   1.04194  -1.03533
H    -2.32926  -0.99284  -3.05467
H    -3.86319  -0.22968  -2.50515
H    -3.57692  -1.94893  -2.20153
H    -2.96830   0.38622   0.87981
H    -4.37808  -0.22681  -0.06077
H    -3.37030  -1.33837   0.89908
H    -0.67223  -0.57409  -1.73011
H     1.68858  -0.30995   2.06888
H     3.87003   0.80695   1.81857
H     4.42324   2.06929  -0.27267
H     2.71289   2.21139  -2.09346
H     0.51487   1.15729  -1.83542
