11
Generated by autodE on: 2022-05-28. E = -285.463888 Ha
C     2.24909  -1.08413   0.14856
N     1.42617  -0.22037   0.25689
C     0.45267   0.61817   0.45898
C    -0.88394   0.36200  -0.05337
C    -1.11171  -0.91920  -0.81987
O    -1.78950   1.17848   0.14149
H     2.99925  -1.25472  -0.63315
H     0.65769   1.52854   1.02806
H    -0.50505  -0.92919  -1.74011
H    -2.17434  -1.00302  -1.08134
H    -0.80481  -1.79368  -0.22310
