19
Generated by autodE on: 2022-05-28. E = -634.779115 Ha
C     3.39717   0.56261   1.36221
O     2.08153   0.74437   0.82419
C     1.48177  -0.34610   0.31524
O     2.00336  -1.44936   0.29689
C     0.15492  -0.03582  -0.19687
C    -0.80419  -0.87505  -0.62339
F    -0.79761  -2.18617  -0.71541
C    -2.05424  -0.02919  -0.91180
C    -2.57077   0.46719   0.45971
C    -1.64119   1.33017   0.87866
C    -0.56516   1.33632  -0.23160
O    -1.40080   1.15405  -1.39712
H     3.71718   1.54842   1.71930
H     4.08570   0.19848   0.58561
H     3.37865  -0.15482   2.19582
H    -2.77638  -0.45032  -1.61910
H    -3.47670   0.11355   0.94976
H    -1.57767   1.88765   1.81233
H     0.07924   2.21618  -0.31512
