42
Generated by autodE on: 2022-06-18. E = -866.277472 Ha
C     0.17378   2.45005   0.31575
C     0.08122   1.60253  -0.71878
C    -0.30113   2.08062  -2.09328
C     0.36246   0.11735  -0.59101
C     1.30040  -0.31026   0.56028
C     2.74171  -0.01936   0.28105
C     3.58287   0.74164   1.00495
C     5.00498   0.95800   0.55909
C     3.21420   1.44808   2.28197
C     0.96162  -1.79247   0.67050
O    -0.46101  -1.84591   0.51457
C    -0.87984  -0.81834  -0.38404
C    -1.36990  -1.47826  -1.69416
C    -2.20090  -2.71815  -1.53174
O    -1.07200  -1.02472  -2.78165
C    -2.08255  -0.06427   0.20986
O    -2.82045   0.59603  -0.53031
N    -2.22945  -0.18805   1.53310
C    -3.27811   0.45743   2.29452
H    -0.03721   3.51520   0.18109
H     0.45616   2.12989   1.31989
H    -1.21577   1.57729  -2.44054
H     0.48973   1.83514  -2.82260
H    -0.46885   3.16733  -2.10980
H     0.82478  -0.20783  -1.53598
H     0.97126   0.16914   1.49096
H     3.12793  -0.47719  -0.63880
H     5.22624   0.44127  -0.38658
H     5.21148   2.03461   0.42362
H     5.71587   0.60242   1.32586
H     3.93873   1.20330   3.07762
H     3.26482   2.54229   2.14266
H     2.20937   1.19779   2.64550
H     1.45561  -2.37813  -0.12634
H     1.21073  -2.23242   1.64574
H    -1.54148  -3.54296  -1.21698
H    -2.68012  -2.97737  -2.48460
H    -2.95441  -2.59328  -0.73940
H    -1.57396  -0.81214   1.99605
H    -2.85053   1.03985   3.12443
H    -3.83186   1.13427   1.63280
H    -3.97930  -0.28203   2.71296
