23
Generated by autodE on: 2022-06-18. E = -351.519802 Ha
C     3.63930   0.78399   0.62530
C     2.54163   0.41036  -0.06540
C     2.62492   0.02808  -1.52096
C     1.24003   0.37000   0.59887
C     0.06015   0.01103   0.01718
C    -1.20868  -0.01343   0.71588
C    -2.39886  -0.36072   0.17001
C    -3.66097  -0.34279   0.98186
C    -2.54042  -0.77325  -1.27633
H     3.57572   1.06077   1.68217
H     4.62513   0.82279   0.15356
H     3.65613   0.10301  -1.89387
H     1.98430   0.67803  -2.13994
H     2.27254  -1.00448  -1.68120
H     1.23371   0.65785   1.65718
H     0.05619  -0.27605  -1.03841
H    -1.18830   0.27935   1.77227
H    -4.41059   0.32784   0.52384
H    -4.12553  -1.34525   1.00454
H    -3.48640  -0.01527   2.01741
H    -2.32656   0.06751  -1.95833
H    -1.84529  -1.58536  -1.54384
H    -3.56138  -1.12043  -1.49179
