19
Generated by autodE on: 2022-06-18. E = -514.666939 Ha
C    -1.20711   2.41123   0.50564
O    -1.35283   1.16676   0.31412
C    -0.49095   0.14356   0.06832
C    -1.15647  -1.11934  -0.07932
C    -2.66432  -1.15235   0.05137
O    -0.52943  -2.17480  -0.30941
C     0.94666   0.41431  -0.01762
O     1.40150   1.56877   0.13108
N     1.72692  -0.66190  -0.26594
C     3.16524  -0.59411  -0.38344
H    -0.21385   2.86037   0.49027
H    -2.14128   2.95196   0.67940
H    -2.98390  -0.78787   1.04008
H    -3.14067  -0.50692  -0.70307
H    -3.00451  -2.18692  -0.08508
H     1.23033  -1.55043  -0.36505
H     3.65992  -1.21123   0.38480
H     3.50231  -0.94798  -1.37163
H     3.49046   0.44536  -0.25670
