19
Generated by autodE on: 2022-07-27. E = -514.659218 Ha
C     2.60612   0.24699   1.28672
O     1.37613   0.39292   1.03319
C     0.44758  -0.02183   0.13664
C     0.72584  -0.91276  -0.95645
C     2.11767  -1.45651  -1.16576
O    -0.17720  -1.25352  -1.75154
C    -0.86108   0.58953   0.47677
O    -0.97789   1.34843   1.45509
N    -1.88695   0.26463  -0.33994
C    -3.23085   0.76656  -0.16991
H     3.26527  -0.38113   0.68680
H     2.95876   0.80215   2.15979
H     2.10088  -2.11118  -2.04643
H     2.45620  -2.03821  -0.29257
H     2.84380  -0.64489  -1.33631
H    -1.65325  -0.36873  -1.10777
H    -3.56281   1.32769  -1.05895
H    -3.94732  -0.05431  -0.00078
H    -3.26030   1.43786   0.69650
