42
Generated by autodE on: 2022-06-18. E = -866.193009 Ha. Imaginary frequency = -202.4 cm-1
C    -0.50056   2.63854   0.65155
C    -0.36525   1.96789  -0.51424
C    -1.35141   2.13565  -1.64393
C     0.72282   1.03221  -0.77187
C     1.81288   0.80225   0.04955
C     2.98631   0.06740  -0.42104
C     4.14404  -0.12069   0.25241
C     5.27056  -0.90494  -0.35952
C     4.41382   0.40594   1.63395
C     0.92832  -0.76283   1.39600
O    -0.35933  -0.64639   1.34785
C    -1.20371  -0.83143   0.28965
C    -0.94036  -1.67143  -0.84266
C     0.24443  -2.61237  -0.88361
O    -1.72554  -1.68328  -1.82364
C    -2.48685  -0.15308   0.57174
O    -2.66429   0.48207   1.62803
N    -3.44901  -0.25273  -0.37154
C    -4.67630   0.50246  -0.26881
H     0.20270   2.51898   1.47897
H    -1.34229   3.31680   0.81027
H    -1.71651   1.15638  -1.98713
H    -0.86859   2.61868  -2.51078
H    -2.21405   2.74707  -1.34399
H     0.70531   0.53076  -1.74465
H     1.93604   1.44582   0.92364
H     2.89029  -0.38513  -1.41439
H     5.01743  -1.28219  -1.36115
H     6.18119  -0.28477  -0.43869
H     5.53980  -1.76416   0.28024
H     3.59591   1.01280   2.04321
H     4.59904  -0.43163   2.32912
H     5.33289   1.01751   1.63867
H     1.45223  -1.50124   0.79716
H     1.35503  -0.43985   2.34799
H     0.03992  -3.36256  -1.65895
H     0.41125  -3.12101   0.07774
H     1.16825  -2.08239  -1.16137
H    -3.17026  -0.71754  -1.23774
H    -4.49140   1.59113  -0.27589
H    -5.32090   0.25391  -1.12180
H    -5.21897   0.26483   0.65990
