56
Generated by autodE on: 2022-06-10. E = -1465.616497 Ha. Imaginary frequency = -178.0 cm-1
C     7.08555  -7.79473   5.31927
N     7.35263  -8.15051   6.69886
C     7.34599  -7.23083   7.66651
O     7.23289  -6.01980   7.45869
C     7.60251  -7.74743   9.11237
C     6.97558  -9.13802   9.36140
O     7.33518 -10.10423   8.67403
N     6.08011  -9.24766  10.34797
C     5.38806 -10.49642  10.60825
C     9.16864  -7.86949   9.24033
C     9.74494  -8.04089  10.65496
C    10.12363  -6.76180  11.44884
C     9.19713  -6.34108  12.60160
C     7.99941  -5.41398  12.23570
C     7.03937  -5.28729  13.40675
C     6.13442  -6.31753  13.70324
C     5.27653  -6.21183  14.79958
C     5.31617  -5.07594  15.61654
C     6.21939  -4.04892  15.32906
C     7.07607  -4.15493  14.22809
C     7.37720  -5.97556  11.03770
C     7.19203  -6.73523  10.08754
N     4.57345  -6.60414  10.05786
C     4.40038  -6.34657   8.68996
O     4.53817  -7.24806   7.88990
O     3.95617  -5.12486   8.42768
C     3.82035  -4.76895   7.03779
O     4.61693  -5.61597  10.93500
N     5.38845  -4.55282  10.89990
C     5.80477  -3.98696   9.76293
N     6.27772  -3.26798   8.96962
H     6.05156  -7.43171   5.19702
H     7.76835  -7.00205   4.97912
H     7.22737  -8.68112   4.68900
H     7.41110  -9.12788   6.98467
H     5.70742  -8.39385  10.75702
H     4.69221 -10.74964   9.79135
H     6.11001 -11.31864  10.71157
H     4.82078 -10.39911  11.54184
H     9.44534  -8.73243   8.61964
H     9.59994  -6.97308   8.77023
H    10.66775  -8.62651  10.52502
H     9.07980  -8.67836  11.26145
H    10.26905  -5.91613  10.75459
H    11.11098  -6.94356  11.90035
H     8.79194  -7.24191  13.08991
H     9.77501  -5.80054  13.36713
H     8.38756  -4.41362  11.98550
H     6.09629  -7.20331  13.06392
H     4.57109  -7.01783  15.01569
H     4.64299  -4.99210  16.47301
H     6.25619  -3.15815  15.96090
H     7.77726  -3.34791  14.00044
H     3.46962  -3.73168   7.03071
H     3.08896  -5.42814   6.55130
H     4.79674  -4.85201   6.54134
