52
Generated by autodE on: 2022-06-04. E = -3725.179355 Ha
C    -7.18624  -0.29506   8.35702
C    -6.38639  -0.26341   7.07611
O    -6.91928  -0.12481   5.98218
N    -5.02141  -0.36998   7.22989
N    -4.51172  -0.69265   8.51633
C    -3.40204  -1.60885   8.24804
C    -3.89789  -3.07927   8.33276
C    -4.65435  -3.46259   9.57039
O    -3.71407  -3.84912   7.41013
C    -2.22310  -1.44568   9.22078
C    -1.93344  -0.08574   9.77750
O    -1.54117  -2.42426   9.46819
C    -2.97163  -1.25970   6.81862
C    -3.97204  -0.54080   6.26209
C    -4.07718   0.00466   4.85777
Br   -4.65766   1.95870   5.06524
C    -5.07794  -0.77901   4.00829
C    -5.22813  -2.15459   4.24031
C    -6.04009  -2.93216   3.40968
C    -6.71049  -2.34899   2.33166
C    -6.55310  -0.98067   2.08729
C    -5.73969  -0.20476   2.91525
C    -2.76044   0.05722   4.05207
C    -1.58595   0.93646   4.50589
C    -1.06648   0.81173   5.93981
C    -0.57121  -0.57415   6.35020
C    -1.64116  -1.68889   6.28382
H    -6.85377   0.48375   9.05876
H    -7.06955  -1.26409   8.86385
H    -8.24034  -0.13493   8.09804
H    -4.14940   0.17600   8.91552
H    -5.70524  -3.15786   9.42975
H    -4.28095  -2.94369  10.46405
H    -4.62057  -4.55171   9.70652
H    -2.70227   0.17383  10.52605
H    -0.95068  -0.09210  10.26523
H    -1.96676   0.68112   8.98842
H    -4.71150  -2.62581   5.07808
H    -6.14882  -4.00043   3.61225
H    -7.34990  -2.95504   1.68555
H    -7.06907  -0.51078   1.24643
H    -5.63370   0.86340   2.72126
H    -2.44536  -0.98572   3.91348
H    -3.04845   0.39342   3.04542
H    -1.86167   1.98817   4.33344
H    -0.75864   0.71878   3.80817
H    -0.23310   1.52462   6.05639
H    -1.84445   1.14818   6.64443
H     0.27682  -0.87546   5.71276
H    -0.17920  -0.51507   7.37877
H    -1.74738  -2.05471   5.25616
H    -1.29364  -2.54956   6.87173
