22
Generated by autodE on: 2022-07-27. E = -608.189819 Ha
C    -2.25161   2.38192  -0.01141
C    -2.31361   1.11564  -0.83661
O    -3.25724   0.88154  -1.58460
N    -1.29450   0.16977  -0.77876
N    -0.32028   0.44106   0.04076
C     0.74634  -0.30667   0.27314
C     0.92661  -1.64118  -0.38820
C    -0.25313  -2.56262  -0.52587
O     2.04100  -1.96336  -0.76557
C     1.77213   0.21236   1.21687
C     1.57943   1.59136   1.80100
O     2.73401  -0.48015   1.51731
H    -3.13967   2.98300  -0.23766
H    -2.24073   2.15948   1.06852
H    -1.35314   2.97572  -0.24708
H    -0.35014   1.33332   0.56185
H    -0.72258  -2.40065  -1.50852
H    -1.01915  -2.38330   0.24086
H     0.11454  -3.59765  -0.47913
H     0.65381   1.64284   2.39779
H     1.51522   2.35401   1.00824
H     2.43282   1.81531   2.45232
