52
Generated by autodE on: 2022-06-04. E = -3725.082278 Ha. Imaginary frequency = -273.3 cm-1
C    -6.61048   0.78543   8.41524
C    -6.39893  -0.24664   7.33311
O    -7.16220  -0.35495   6.38467
N    -5.31570  -1.13535   7.41157
N    -4.63693  -1.11540   8.54146
C    -3.55084  -1.90762   8.61994
C    -3.62155  -3.31475   8.07533
C    -4.96872  -3.98331   7.96286
O    -2.59900  -3.91929   7.79700
C    -2.57649  -1.61772   9.72372
C    -2.69003  -0.29025  10.42856
O    -1.70047  -2.41951  10.00320
C    -2.55439  -1.06159   6.83794
C    -3.49018  -0.66747   6.11087
C    -3.94762  -0.10300   4.84189
Br   -4.61799   1.78978   5.27886
C    -5.05029  -0.91116   4.17054
C    -5.10814  -2.29286   4.40062
C    -6.04901  -3.08603   3.73910
C    -6.94571  -2.50818   2.83652
C    -6.88156  -1.13298   2.58978
C    -5.93754  -0.34208   3.24809
C    -2.76758   0.04361   3.84679
C    -1.60695   1.00014   4.14108
C    -0.83138   0.87432   5.46115
C    -0.34355  -0.54140   5.83456
C    -1.09319  -1.13305   7.04082
H    -5.70875   1.39922   8.57170
H    -6.86262   0.30121   9.37244
H    -7.43830   1.43886   8.11635
H    -4.63693  -0.26626   9.11699
H    -5.34894  -3.85902   6.93789
H    -5.71177  -3.56323   8.65254
H    -4.82826  -5.05708   8.15121
H    -3.65223  -0.20618  10.96010
H    -1.87386  -0.20751  11.15652
H    -2.62733   0.53995   9.70667
H    -4.41449  -2.75136   5.10550
H    -6.08253  -4.15989   3.93817
H    -7.68949  -3.12499   2.32661
H    -7.57471  -0.66927   1.88387
H    -5.90599   0.73155   3.05813
H    -2.39170  -0.98499   3.71781
H    -3.20260   0.32941   2.87694
H    -1.97354   2.03525   4.05497
H    -0.89872   0.86036   3.30596
H     0.03446   1.55159   5.38515
H    -1.44587   1.27689   6.28292
H    -0.44817  -1.22372   4.97502
H     0.72916  -0.52525   6.08360
H    -0.79179  -2.17295   7.23703
H    -0.83046  -0.56334   7.94846
