47
Generated by autodE on: 2022-06-20. E = -1073.945343 Ha
C    -2.10778   0.74578   3.56318
O    -1.55633   0.75519   2.23744
C    -1.76350  -0.32670   1.48737
O    -2.43254  -1.27202   1.85135
C    -1.07998  -0.20625   0.10974
C    -2.06295   0.49393  -0.83890
C    -3.44607   0.27181  -0.75305
C    -4.32245   0.87706  -1.65770
C    -3.83038   1.71029  -2.66632
C    -2.45349   1.93158  -2.76149
C    -1.57760   1.32907  -1.85418
N     0.17777   0.54186   0.19680
C     1.28807  -0.37975   0.37950
C     1.28794  -0.89675   1.77654
N     1.17735  -1.27034   2.87051
C     2.63841   0.23744   0.03397
C     3.80647  -0.12356   0.71706
C     5.04358   0.40301   0.33206
C     5.12375   1.29717  -0.73821
C     3.95920   1.65997  -1.42384
C     2.72399   1.13334  -1.04142
C     0.87955  -1.52360  -0.59468
C     1.65525  -2.82050  -0.44432
C    -0.63822  -1.64397  -0.37351
C    -1.37841  -2.20533  -1.57891
H    -1.84457   1.71257   4.00677
H    -1.66550  -0.07485   4.14623
H    -3.19961   0.62598   3.52420
H    -3.84919  -0.38503   0.01915
H    -5.39617   0.69363  -1.57197
H    -4.51574   2.18392  -3.37317
H    -2.05521   2.57882  -3.54676
H    -0.50450   1.50179  -1.92747
H     0.14770   1.28838   0.88753
H     3.75644  -0.81996   1.55676
H     5.94605   0.11325   0.87527
H     6.08944   1.71137  -1.03733
H     4.01209   2.35895  -2.26193
H     1.81609   1.41531  -1.57558
H     1.05731  -1.10174  -1.59650
H     2.73438  -2.65611  -0.58785
H     1.32381  -3.55228  -1.19592
H     1.50317  -3.26661   0.55138
H    -0.80293  -2.32811   0.47088
H    -1.25959  -1.56229  -2.46382
H    -0.98407  -3.20334  -1.82516
H    -2.45394  -2.31041  -1.37575
