12
Generated by autodE on: 2022-06-20. E = -157.300303 Ha
C     1.96123  -0.10694  -0.00786
C     0.50288  -0.42173   0.13393
C    -0.50289   0.42171  -0.13398
C    -1.96123   0.10695   0.00790
H     2.12391   0.92180  -0.36608
H     2.45313  -0.79859  -0.71477
H     2.49141  -0.22362   0.95410
H     0.25717  -1.43285   0.48782
H    -0.25717   1.43281  -0.48791
H    -2.12394  -0.92201   0.36543
H    -2.49162   0.22441  -0.95384
H    -2.45289   0.79814   0.71544
