35
Generated by autodE on: 2022-06-20. E = -916.592477 Ha
C     3.17998   0.48531   3.62163
O     2.70849   0.26616   2.28613
C     1.38346   0.24393   2.11306
O     0.57999   0.41610   3.02730
C     0.97554   0.02100   0.72531
N    -0.35559   0.07629   0.58184
C    -1.21579  -0.17634  -0.42273
C    -0.76086  -0.78194  -1.61720
N    -0.45959  -1.30223  -2.61796
C    -2.64409   0.11732  -0.26357
C    -3.12467   0.92043   0.79319
C    -4.49016   1.16403   0.93677
C    -5.40823   0.63277   0.02494
C    -4.94185  -0.14915  -1.03718
C    -3.57976  -0.40652  -1.18146
C     1.91703  -0.15186  -0.39082
C     1.85581   0.70087  -1.50953
C     2.76292   0.55629  -2.55918
C     3.74274  -0.44035  -2.50970
C     3.81419  -1.28980  -1.40022
C     2.91119  -1.14658  -0.34664
H     2.85302   1.46878   3.98962
H     4.27391   0.44753   3.56416
H     2.80756  -0.29885   4.29673
H    -0.80071   0.33807   1.47349
H    -2.43819   1.38541   1.50395
H    -4.83665   1.78889   1.76317
H    -6.47597   0.83310   0.13688
H    -5.64563  -0.56841  -1.75996
H    -3.23498  -1.02824  -2.00980
H     1.09553   1.48381  -1.55260
H     2.70539   1.22688  -3.41959
H     4.45058  -0.55460  -3.33397
H     4.57609  -2.07158  -1.35688
H     2.96542  -1.81240   0.51612
