35
Generated by autodE on: 2022-07-27. E = -916.586147 Ha
C    -1.09258  -0.45346   3.78728
O    -0.78740  -0.06493   2.44279
C    -1.63725  -0.46681   1.48611
O    -2.69861  -1.01750   1.73217
C    -1.18536  -0.10705   0.13231
N     0.12018   0.04709  -0.16185
C     1.26728  -0.39928   0.40192
C     1.22308  -1.45760   1.33574
N     1.22620  -2.35914   2.07815
C     2.55088   0.15579  -0.02189
C     3.75241  -0.53019   0.26405
C     4.97752  -0.02747  -0.16658
C     5.03956   1.16754  -0.89385
C     3.85872   1.86286  -1.17159
C     2.62838   1.37507  -0.73063
C    -2.15187   0.13908  -0.93856
C    -3.46540   0.58090  -0.65815
C    -4.35778   0.85674  -1.69065
C    -3.96938   0.70791  -3.02810
C    -2.67545   0.26986  -3.32172
C    -1.77964  -0.02197  -2.29232
H    -0.25857  -0.09471   4.40128
H    -1.17544  -1.54687   3.86271
H    -2.03357   0.00970   4.11773
H     0.28277   0.57161  -1.02793
H     3.71919  -1.47040   0.81814
H     5.89338  -0.57702   0.06298
H     6.00193   1.55865  -1.23087
H     3.89401   2.80688  -1.72019
H     1.73098   1.96911  -0.91768
H    -3.78075   0.72012   0.37544
H    -5.36618   1.20140  -1.44983
H    -4.67408   0.92504  -3.83388
H    -2.36363   0.13317  -4.35975
H    -0.79201  -0.41206  -2.54868
