47
Generated by autodE on: 2022-06-20. E = -1073.871128 Ha. Imaginary frequency = -344.0 cm-1
C    -1.73841   0.07378   3.72641
O    -1.35910   0.44473   2.39215
C    -1.60141  -0.44420   1.42574
O    -2.21069  -1.47801   1.60968
C    -1.09146   0.06519   0.09857
C    -2.14150   0.63352  -0.77854
C    -3.42659   0.05228  -0.80546
C    -4.40516   0.51939  -1.68196
C    -4.13184   1.57941  -2.55206
C    -2.86516   2.17029  -2.52965
C    -1.88227   1.70673  -1.65489
N     0.14073   0.65884   0.08840
C     1.28817   0.11205   0.61585
C     1.29956  -0.35356   1.95472
N     1.38394  -0.76771   3.04373
C     2.58463   0.45105   0.00195
C     3.78672   0.30712   0.72509
C     5.01713   0.59042   0.13256
C     5.08236   1.03322  -1.19248
C     3.89759   1.17894  -1.92157
C     2.66538   0.88380  -1.33861
C     0.73793  -2.15013  -0.24624
C     0.84502  -3.10430   0.90365
C    -0.47261  -1.83808  -0.85939
C    -0.49042  -1.41306  -2.30537
H    -1.47210   0.92559   4.36216
H    -1.18284  -0.82181   4.03857
H    -2.81885  -0.12048   3.77674
H    -3.65532  -0.78418  -0.14568
H    -5.39034   0.04726  -1.68510
H    -4.89954   1.94479  -3.23763
H    -2.63666   3.00581  -3.19524
H    -0.91418   2.21100  -1.66371
H     0.31859   1.22155  -0.73862
H     3.75587  -0.02666   1.76368
H     5.93298   0.46991   0.71607
H     6.04636   1.25751  -1.65429
H     3.93048   1.51380  -2.96096
H     1.76620   0.97487  -1.95101
H     1.65203  -1.98372  -0.82343
H     1.74154  -2.92778   1.51542
H     0.91741  -4.14057   0.52383
H    -0.03673  -3.05538   1.55993
H    -1.36834  -2.33856  -0.48118
H     0.22542  -0.59692  -2.49543
H    -0.19423  -2.25537  -2.95458
H    -1.48462  -1.08047  -2.63231
