59
Generated by autodE on: 2022-07-02. E = -2161.964740 Ha
C     1.91707   3.47086  -1.92860
N     1.35014   2.69091  -0.84617
C     2.07961   1.77799  -0.19470
O     3.30274   1.67098  -0.30760
C     1.33351   0.94905   0.88835
C     1.72745   1.66371   2.19339
O    -0.07653   1.06341   0.77850
C    -0.81648  -0.09224   0.40815
C    -1.22779   0.04830  -1.08933
C    -1.52468   1.36853  -1.47825
C    -1.98929   1.67253  -2.75662
C    -2.20654   0.65167  -3.68552
C    -1.98664  -0.66733  -3.29190
C    -1.51808  -0.96826  -2.00764
C    -2.17344   0.00009   1.15105
C    -2.37835   0.98179   2.12767
C    -3.62064   1.11134   2.75700
C    -4.67371   0.25917   2.42244
C    -4.47725  -0.71903   1.44172
C    -3.24341  -0.83938   0.80406
C     0.18620  -1.28145   0.93400
C     0.04116  -2.67958   0.23573
F     0.72924  -3.63151   0.87689
F    -1.24319  -3.06798   0.22202
F     0.47196  -2.70712  -1.02769
C    -0.15979  -1.57362   2.45289
F    -0.15405  -0.45899   3.18698
F     0.69791  -2.42655   3.02494
F    -1.36565  -2.13703   2.58361
C     1.63874  -0.60850   0.74433
C     2.11282  -0.84295  -0.74601
O     1.54114  -0.21486  -1.63230
N     3.09846  -1.70745  -1.00996
C     3.46213  -1.98930  -2.38809
C     2.75990  -1.05934   1.72699
F     2.53043  -0.76966   3.00939
F     2.97290  -2.39153   1.66465
F     3.91720  -0.46689   1.40782
H     2.15269   2.83623  -2.79989
H     2.84363   3.96403  -1.60300
H     1.19436   4.23766  -2.23400
H     0.34304   2.59780  -0.79317
H     1.36888   2.69840   2.09861
H     1.26533   1.21892   3.07590
H     2.81585   1.69439   2.31539
H    -1.43877   2.17525  -0.75098
H    -2.19491   2.71309  -3.01793
H    -2.56619   0.88027  -4.69119
H    -2.18379  -1.48839  -3.98508
H    -1.40879  -2.01658  -1.76503
H    -1.56485   1.65121   2.39844
H    -3.75957   1.88701   3.51378
H    -5.64359   0.35911   2.91522
H    -5.29343  -1.38917   1.16229
H    -3.12366  -1.59725   0.03203
H     3.47779  -2.31123  -0.29137
H     3.71336  -1.05887  -2.91705
H     2.63272  -2.47877  -2.92406
H     4.33480  -2.65312  -2.39092
