37
Generated by autodE on: 2022-07-27. E = -863.599433 Ha
C     1.58071   2.03800  -2.79795
N     1.41113   1.70922  -1.39786
C     2.41036   1.12361  -0.68326
O     3.58575   1.12168  -1.11314
C     2.12909   0.59675   0.64448
C     3.22458   0.47331   1.64805
O     0.94461   0.19040   1.09933
C    -0.22211  -0.18367   0.60500
C    -0.39845  -0.48783  -0.81992
C    -1.52139  -0.02095  -1.52926
C    -1.66852  -0.30273  -2.88953
C    -0.70460  -1.06037  -3.55911
C     0.41033  -1.54128  -2.85879
C     0.56669  -1.25376  -1.50635
C    -1.25228  -0.36027   1.61249
C    -1.08893   0.17695   2.91339
C    -2.06143  -0.01430   3.89129
C    -3.22942  -0.73173   3.60347
C    -3.40701  -1.26459   2.32120
C    -2.43556  -1.08780   1.33819
H     2.36941   2.79235  -2.94228
H     0.63511   2.44026  -3.18216
H     1.84946   1.14778  -3.39273
H     0.46148   1.65859  -1.05339
H     3.95980   1.28429   1.54053
H     2.80410   0.49949   2.66540
H     3.77697  -0.48143   1.54766
H    -2.26813   0.58659  -1.01518
H    -2.53858   0.07859  -3.42882
H    -0.81732  -1.27581  -4.62399
H     1.16407  -2.14022  -3.37486
H     1.44854  -1.61823  -0.97502
H    -0.19492   0.75808   3.14300
H    -1.91337   0.41146   4.88678
H    -3.99425  -0.87209   4.37052
H    -4.30947  -1.83397   2.08584
H    -2.58270  -1.53411   0.35449
