37
Generated by autodE on: 2022-07-02. E = -863.610933 Ha
C     4.81434   0.69880   0.45542
N     3.42712   0.33437   0.27479
C     3.07017  -0.75119  -0.46554
O     3.93477  -1.49842  -0.97415
C     1.64734  -1.00838  -0.63825
C     1.13115  -2.11544  -1.47017
O     0.86686  -0.06611  -0.12046
C    -0.43386   0.11640  -0.01569
C    -1.38670  -0.99333  -0.09221
C    -1.13590  -2.19758   0.59934
C    -2.07259  -3.23222   0.58489
C    -3.27053  -3.08971  -0.12117
C    -3.53228  -1.89731  -0.80810
C    -2.60534  -0.85732  -0.79032
C    -0.79651   1.48756   0.30941
C     0.13146   2.53945   0.11028
C    -0.19408   3.85086   0.44752
C    -1.45392   4.15698   0.97659
C    -2.38343   3.12880   1.17306
C    -2.06317   1.81173   0.84978
H     5.31235   0.91188  -0.50559
H     4.86629   1.59897   1.08076
H     5.38415  -0.10431   0.95160
H     2.70198   0.91711   0.67558
H     1.97032  -2.53715  -2.03821
H     0.66063  -2.93339  -0.89319
H     0.36019  -1.74912  -2.17052
H    -0.21425  -2.30854   1.17355
H    -1.86494  -4.15442   1.13254
H    -3.99921  -3.90340  -0.13619
H    -4.46413  -1.78071  -1.36635
H    -2.81117   0.06543  -1.33558
H     1.10736   2.31683  -0.32271
H     0.53806   4.64545   0.28427
H    -1.70957   5.18784   1.23160
H    -3.36647   3.35361   1.59380
H    -2.79201   1.02259   1.03582
