59
Generated by autodE on: 2022-07-02. E = -2161.903540 Ha. Imaginary frequency = -141.7 cm-1
C     0.70083   3.26494  -2.59290
N     0.59467   2.72055  -1.25157
C     1.49036   1.84530  -0.77702
O     2.54610   1.60090  -1.38631
C     1.23792   1.29116   0.60990
C     2.04114   2.08813   1.61275
O    -0.05252   1.20573   1.01848
C    -1.14718   0.64610   0.54353
C    -1.43092   0.50988  -0.90506
C    -2.65923   1.01903  -1.38228
C    -2.95466   1.01851  -2.74539
C    -2.03762   0.50495  -3.66444
C    -0.81400   0.00414  -3.20817
C    -0.51196   0.01649  -1.85054
C    -2.25512   0.69362   1.51094
C    -2.18497   1.55626   2.62385
C    -3.22330   1.60188   3.54968
C    -4.34860   0.78571   3.38682
C    -4.42940  -0.07263   2.28569
C    -3.39652  -0.11740   1.35207
C     0.27353  -1.54841   1.22321
C    -0.42227  -2.56583   0.34105
F    -1.75792  -2.39181   0.25960
F     0.01008  -2.57854  -0.92881
F    -0.25286  -3.82330   0.82331
C    -0.22308  -1.61482   2.65413
F    -1.48678  -2.07029   2.73873
F    -0.19833  -0.43650   3.29574
F     0.51863  -2.46655   3.41046
C     1.58461  -1.09465   0.92931
C     2.34305  -1.81350  -0.22290
O     2.51400  -3.03134  -0.12211
N     2.83860  -1.08613  -1.21999
C     3.60285  -1.71068  -2.28206
C     2.64805  -0.95916   2.02859
F     3.06360  -2.17517   2.44258
F     2.28082  -0.30537   3.13422
F     3.74553  -0.33998   1.54673
H     1.57155   3.93200  -2.68699
H    -0.21052   3.83332  -2.81268
H     0.80451   2.45336  -3.32967
H    -0.24987   2.90869  -0.72246
H     1.81756   3.16257   1.48963
H     1.79370   1.79972   2.63826
H     3.11395   1.94839   1.43790
H    -3.37621   1.45312  -0.68753
H    -3.90636   1.43043  -3.08747
H    -2.26960   0.50238  -4.73169
H    -0.08194  -0.39383  -3.91350
H     0.45222  -0.36668  -1.54170
H    -1.31327   2.19809   2.74980
H    -3.15815   2.28239   4.40147
H    -5.16174   0.82102   4.11544
H    -5.30189  -0.71610   2.15430
H    -3.46361  -0.80286   0.50977
H     2.77514  -0.05716  -1.20156
H     3.81507  -0.95494  -3.04899
H     4.55685  -2.12047  -1.91057
H     3.03469  -2.53518  -2.73914
