54
Generated by autodE on: 2022-06-25. E = -1414.259466 Ha
C    -1.05009   3.15747  -2.41032
N    -1.33423   1.89623  -1.75586
C    -0.89439   1.61843  -0.52622
O    -0.35319   2.43925   0.22168
C    -1.14836   0.16568  -0.05063
C    -2.34962   0.14073   0.88832
C    -3.32682  -0.85236   0.73951
C    -4.41858  -0.90424   1.60924
C    -4.54468   0.03206   2.63926
C    -3.57095   1.02324   2.79101
C    -2.48016   1.08175   1.92034
O    -1.41779  -0.66467  -1.18297
C    -0.30371  -1.48853  -1.55685
C    -0.62862  -2.96149  -1.28331
C    -0.14865  -1.36025  -3.02384
N    -0.16606  -1.41260  -4.18299
C     0.88473  -0.95363  -0.68057
O     1.82365  -1.92989  -0.33176
C     2.75478  -2.32667  -1.33976
C     1.62897   0.25626  -1.29301
O     1.55243   0.52967  -2.47722
C     2.51238   1.02769  -0.38908
C     3.62934   1.75405  -1.07138
C     2.17271   1.16325   0.92194
C     2.87775   2.04997   1.89567
C     0.96639   0.49026   1.46772
O     0.64542   0.62443   2.63693
C     0.13692  -0.47527   0.59533
O    -0.33325  -1.53084   1.38340
C     0.57162  -2.31976   2.15786
H    -1.13307   3.98115  -1.68946
H    -1.76937   3.31624  -3.22361
H    -0.02995   3.16131  -2.83104
H    -1.66304   1.11077  -2.31062
H    -3.22828  -1.58669  -0.05859
H    -5.17324  -1.68375   1.48036
H    -5.39835  -0.00951   3.31981
H    -3.65924   1.76144   3.59150
H    -1.73141   1.86228   2.04373
H     0.19022  -3.60901  -1.62298
H    -1.53958  -3.22580  -1.83812
H    -0.79600  -3.10978  -0.21242
H     3.49537  -1.53525  -1.54075
H     3.27495  -3.20842  -0.94453
H     2.25293  -2.59768  -2.28190
H     3.23329   2.64896  -1.58187
H     4.08675   1.12091  -1.84566
H     4.40458   2.07930  -0.36847
H     3.83664   2.41828   1.51621
H     2.23613   2.91800   2.12540
H     3.04063   1.52116   2.84656
H     1.54450  -1.83349   2.30304
H     0.10323  -2.47842   3.14058
H     0.73457  -3.29225   1.67057
