26
Generated by autodE on: 2022-06-25. E = -689.460837 Ha
C    -2.71401  -1.78356   0.20693
O    -2.00339  -1.00492  -0.76139
C    -0.82438  -0.45795  -0.34267
C    -0.66018   0.87765  -0.12619
O    -1.55351   1.86249  -0.21559
C    -2.93645   1.62933  -0.50192
C     0.69485   1.41204   0.25535
O     0.82342   2.61444   0.44074
C     1.83579   0.47363   0.41054
C     3.16024   1.04968   0.80638
C     1.65910  -0.85417   0.19910
C     2.77765  -1.83677   0.34554
C     0.32364  -1.38106  -0.21524
O     0.16996  -2.57566  -0.46425
H    -3.63165  -2.13259  -0.28494
H    -2.98054  -1.16694   1.08146
H    -2.12347  -2.65123   0.53580
H    -3.40645   2.62072  -0.47838
H    -3.06499   1.17936  -1.49463
H    -3.39448   0.98839   0.26492
H     3.51245   0.60377   1.75116
H     3.92652   0.82350   0.04666
H     3.09883   2.13709   0.93156
H     2.43918  -2.85749   0.13306
H     3.60635  -1.58791  -0.33816
H     3.19338  -1.80369   1.36620
