59
Generated by autodE on: 2022-06-04. E = -1376.049248 Ha
C    -7.86513  -8.63701  -6.12164
N    -6.77703  -7.71759  -6.38608
C    -6.81404  -6.45526  -5.94884
O    -7.81062  -5.93326  -5.42543
C    -5.52647  -5.62483  -6.07012
N    -4.58691  -5.99456  -7.11902
C    -3.35044  -6.51057  -6.55548
C    -2.13919  -5.63318  -6.96605
C    -2.43023  -4.20026  -7.29706
O    -0.99398  -6.06140  -6.95005
C    -3.20237  -8.02465  -6.87730
O    -4.22027  -8.70923  -7.07080
N    -1.97972  -8.55454  -6.90628
C    -1.76463  -9.96615  -7.16261
C    -3.51512  -6.30347  -5.03048
C    -4.71463  -5.74506  -4.78611
C    -5.36899  -5.38900  -3.46239
C    -6.14697  -4.05250  -3.57122
C    -5.55427  -2.91782  -4.37095
O    -7.16419  -3.84192  -2.92765
C    -6.21679  -6.62765  -3.02937
O    -5.82645  -7.76151  -3.33333
N    -7.29402  -6.41844  -2.26396
C    -8.18446  -7.50641  -1.91337
C    -4.38516  -5.16096  -2.26023
C    -3.20895  -4.17927  -2.45244
C    -1.83172  -4.84489  -2.39852
C    -1.43316  -5.60858  -3.65999
C    -2.40611  -6.72498  -4.10445
H    -7.75123  -9.52646  -6.75503
H    -8.83205  -8.16398  -6.34213
H    -7.87059  -8.95417  -5.06417
H    -5.86050  -8.10458  -6.64982
H    -5.89722  -4.59796  -6.21465
H    -4.97892  -6.62487  -7.81109
H    -1.49400  -3.62756  -7.28487
H    -2.88281  -4.14622  -8.29934
H    -3.16024  -3.77255  -6.59555
H    -1.19643  -7.90402  -6.82837
H    -2.09680 -10.24649  -8.17523
H    -2.32068 -10.58268  -6.44020
H    -0.69383 -10.18337  -7.06724
H    -5.26028  -2.13305  -3.65586
H    -6.34207  -2.49477  -5.01195
H    -4.68578  -3.19151  -4.97831
H    -7.60889  -5.44978  -2.19674
H    -7.62195  -8.34575  -1.48060
H    -8.91364  -7.14927  -1.17501
H    -8.72959  -7.87916  -2.79806
H    -4.00411  -6.14701  -1.96486
H    -5.01453  -4.82833  -1.42319
H    -3.26546  -3.41843  -1.65928
H    -3.29362  -3.62988  -3.39983
H    -1.06878  -4.06959  -2.21616
H    -1.79421  -5.52442  -1.52824
H    -1.29862  -4.89290  -4.48672
H    -0.44523  -6.06676  -3.49196
H    -1.82080  -7.49332  -4.62471
H    -2.83510  -7.22835  -3.22725
