27
Generated by autodE on: 2022-06-04. E = -702.974684 Ha
C    -5.04231   0.63277   0.45704
N    -3.73844   0.00434   0.49127
C    -2.59812   0.63047   0.15073
O    -2.52753   1.81278  -0.22836
C    -1.37682  -0.19343   0.25057
N    -0.27558   0.42336  -0.09661
C     1.04588   0.07865  -0.16573
C     1.95618   1.10528  -0.62944
C     1.40403   2.46723  -1.00805
O     3.18343   0.91192  -0.73072
C     1.43998  -1.29093   0.22828
O     0.59151  -2.12339   0.60912
N     2.75745  -1.57592   0.14964
C     3.31895  -2.86066   0.49730
H    -5.50076   0.64220   1.45840
H    -4.92978   1.66583   0.10866
H    -5.71801   0.09695  -0.22788
H    -3.67664  -0.96650   0.78471
H    -1.35422  -1.22762   0.57799
H    -0.49408   1.39400  -0.37651
H     0.66214   2.39706  -1.82017
H     2.23839   3.09297  -1.34767
H     0.92114   2.96164  -0.14961
H     3.35278  -0.81076  -0.17633
H     3.85304  -3.30575  -0.35813
H     2.51373  -3.54121   0.79794
H     4.03256  -2.77254   1.33329
