27
Generated by autodE on: 2022-07-27. E = -702.969854 Ha
C    -4.40939  -0.87688   0.89623
N    -3.07106  -0.50396   0.47842
C    -2.67635   0.78866   0.48766
O    -3.42096   1.71165   0.84804
C    -1.29886   1.11312   0.06210
N    -0.33639   0.22869   0.04418
C     0.99655   0.19369  -0.26047
C     1.78290   1.28281  -0.78409
C     1.13996   2.61874  -1.05662
O     2.99916   1.13768  -1.02593
C     1.51182  -1.17253   0.00848
O     0.72219  -2.04262   0.44690
N     2.80434  -1.42339  -0.22985
C     3.38557  -2.72927  -0.00393
H    -5.17543  -0.50247   0.19638
H    -4.63044  -0.46630   1.89210
H    -4.47524  -1.97081   0.93958
H    -2.51581  -1.20362  -0.00352
H    -1.11047   2.15532  -0.17589
H    -0.56191  -0.74068   0.36721
H     1.89416   3.28625  -1.49228
H     0.29417   2.52078  -1.75618
H     0.75560   3.06978  -0.12744
H     3.34736  -0.63594  -0.59078
H     2.91677  -3.49784  -0.64019
H     3.26793  -3.04617   1.04486
H     4.45612  -2.68598  -0.23913
