59
Generated by autodE on: 2022-06-04. E = -1375.962657 Ha. Imaginary frequency = -270.3 cm-1
C    -8.89507  -7.74987  -6.10532
N    -7.54856  -7.39084  -6.50537
C    -6.93476  -6.28818  -6.03838
O    -7.52462  -5.41881  -5.37630
C    -5.49436  -6.08737  -6.33799
N    -4.72634  -7.04862  -6.85442
C    -3.37120  -6.98839  -7.01394
C    -2.65023  -5.84035  -7.52891
C    -3.37817  -4.59182  -7.96561
O    -1.40671  -5.86670  -7.63354
C    -2.77660  -8.35239  -6.88176
O    -3.51761  -9.31272  -6.58604
N    -1.45872  -8.48601  -7.07572
C    -0.78811  -9.75648  -6.90239
C    -3.12488  -6.07605  -4.70008
C    -4.31198  -5.85483  -4.40369
C    -5.22923  -5.51438  -3.28712
C    -5.82414  -4.09002  -3.40187
C    -5.25131  -3.13078  -4.40365
O    -6.70366  -3.73386  -2.63138
C    -6.30276  -6.63150  -3.13934
O    -6.11667  -7.73698  -3.65886
N    -7.35097  -6.36203  -2.34927
C    -8.44830  -7.29358  -2.18935
C    -4.42472  -5.55515  -1.93376
C    -3.21260  -4.61861  -1.77187
C    -1.80245  -5.18505  -2.03720
C    -1.21900  -5.08514  -3.45229
C    -1.68298  -6.14599  -4.46467
H    -9.34191  -8.39665  -6.87119
H    -9.50665  -6.84481  -5.99857
H    -8.89595  -8.28661  -5.14192
H    -7.02644  -8.06504  -7.05367
H    -5.22823  -5.05363  -6.51398
H    -4.98533  -8.02656  -6.65164
H    -2.71498  -4.03265  -8.63841
H    -4.32697  -4.81089  -8.47567
H    -3.59478  -3.95248  -7.09477
H    -0.95525  -7.62660  -7.30614
H    -1.17449 -10.51575  -7.60130
H    -0.92140 -10.14408  -5.87908
H     0.28413  -9.61996  -7.08968
H    -5.51757  -2.10547  -4.11615
H    -5.70199  -3.34693  -5.38442
H    -4.16461  -3.24316  -4.50671
H    -7.46844  -5.38590  -2.07917
H    -8.06440  -8.31579  -2.07082
H    -9.02533  -7.02434  -1.29490
H    -9.12373  -7.27874  -3.06190
H    -4.11060  -6.60022  -1.78626
H    -5.15555  -5.32787  -1.14516
H    -3.22605  -4.30648  -0.71576
H    -3.35098  -3.68789  -2.34606
H    -1.11473  -4.63036  -1.37800
H    -1.76029  -6.23467  -1.69405
H    -1.42569  -4.08246  -3.86493
H    -0.12184  -5.17107  -3.38184
H    -1.11899  -6.01688  -5.40226
H    -1.43421  -7.15571  -4.09317
