52
Generated by autodE on: 2022-06-22. E = -1188.688684 Ha
C    -0.11722   0.26700  -3.30358
C     0.28481   1.16513  -2.39450
C     0.87740   2.49412  -2.77742
C     0.17789   0.93022  -0.89844
C    -1.01563   0.06533  -0.43057
C    -1.42311   0.37748   0.99348
C    -2.09730   1.47252   1.38182
C    -2.58890   2.52838   0.42996
C    -2.35516   1.74447   2.83819
N    -0.49610  -1.30960  -0.60508
C    -1.01580  -2.36821   0.15435
C    -0.19425  -3.32469   0.77438
C    -0.77104  -4.38685   1.47627
C    -2.15874  -4.51612   1.57440
C    -2.97410  -3.56182   0.95350
C    -2.41687  -2.49868   0.24544
O     0.94515  -1.25712  -0.54441
C     1.34187   0.07854  -0.31350
C     2.69993   0.33280  -0.99723
O     3.36207   1.32850  -0.69478
N     3.06147  -0.58319  -1.89872
C     4.25653  -0.45162  -2.70811
C     1.52990   0.29923   1.20287
O     1.70471  -0.61242   1.98141
O     1.48748   1.57984   1.54126
C     1.59565   1.88583   2.94170
H    -0.02367   0.47655  -4.37328
H    -0.54632  -0.69475  -3.01546
H     0.23824   3.31637  -2.41097
H     1.86471   2.63753  -2.30994
H     0.98590   2.59319  -3.86698
H     0.15293   1.89966  -0.39273
H    -1.85400   0.20339  -1.12596
H    -1.08357  -0.32563   1.75800
H    -2.00510   3.45709   0.55965
H    -3.63819   2.78796   0.64941
H    -2.51869   2.23358  -0.62588
H    -1.86110   2.68334   3.14553
H    -3.43341   1.88248   3.03040
H    -1.98461   0.93266   3.48102
H     0.88722  -3.22305   0.71667
H    -0.11797  -5.12011   1.95645
H    -2.60153  -5.34823   2.12578
H    -4.06190  -3.64510   1.01767
H    -3.06433  -1.76721  -0.24014
H     2.39188  -1.32136  -2.09720
H     5.04814   0.03405  -2.12277
H     4.59754  -1.44758  -3.01904
H     4.06927   0.15497  -3.61001
H     0.78023   1.40022   3.49595
H     1.51328   2.97554   3.01796
H     2.56460   1.54536   3.33284
