23
Generated by autodE on: 2022-06-22. E = -351.521383 Ha
C    -2.62015   2.03115   1.81918
C    -2.12890   1.08407   0.99003
C    -3.04334   0.16399   0.22231
C    -0.68427   0.93718   0.82388
C    -0.06842   0.02894   0.02596
C     1.37087  -0.07433  -0.10263
C     2.06131  -0.95164  -0.87420
C     1.42667  -1.99461  -1.74975
C     3.56357  -0.93418  -0.90189
H    -1.95340   2.69756   2.37514
H    -3.69631   2.16281   1.96214
H    -2.84710  -0.89166   0.47343
H    -2.88507   0.26275  -0.86452
H    -4.09908   0.38003   0.43864
H    -0.06258   1.63052   1.40316
H    -0.68162  -0.66576  -0.55445
H     1.95181   0.63989   0.49347
H     1.77790  -3.00092  -1.46046
H     0.32963  -1.99281  -1.71556
H     1.73826  -1.85274  -2.79974
H     3.93422  -0.76409  -1.92879
H     3.98271  -0.15605  -0.24721
H     3.97218  -1.91183  -0.58871
