52
Generated by autodE on: 2022-06-22. E = -1188.588726 Ha. Imaginary frequency = -179.9 cm-1
C     0.01405   0.24957  -3.49011
C     0.24382   1.23643  -2.59973
C     1.12657   2.41442  -2.92501
C    -0.30543   1.21990  -1.23836
C    -1.44543   0.52384  -0.86690
C    -2.11875   0.61031   0.41126
C    -2.18559   1.65185   1.28090
C    -1.63756   3.02969   1.03462
C    -2.87345   1.47412   2.60312
N    -0.41683  -1.84208  -0.87601
C    -0.78202  -2.59421   0.21383
C     0.12006  -3.20095   1.12279
C    -0.35494  -4.05670   2.11184
C    -1.72480  -4.32316   2.23889
C    -2.62119  -3.73786   1.33376
C    -2.16276  -2.89745   0.32399
O     0.86800  -1.36281  -0.88882
C     1.39870  -0.33712  -0.23866
C     2.64923   0.14630  -0.92057
O     3.32979   1.08246  -0.48440
N     2.96331  -0.51051  -2.05524
C     4.03255  -0.05117  -2.91602
C     1.02519   0.03791   1.14103
O     0.21593  -0.56955   1.81828
O     1.62364   1.15625   1.57079
C     1.31495   1.55993   2.91203
H     0.44929   0.29170  -4.49216
H    -0.58998  -0.62498  -3.24064
H     0.56288   3.35871  -2.83518
H     1.96501   2.48107  -2.21383
H     1.53426   2.34752  -3.94343
H     0.10574   1.96093  -0.55300
H    -1.94800  -0.06904  -1.63139
H    -2.66789  -0.29566   0.69136
H    -0.65830   3.15947   1.52600
H    -2.30961   3.78392   1.47498
H    -1.50962   3.25612  -0.03191
H    -2.17949   1.73426   3.42282
H    -3.73184   2.16223   2.69979
H    -3.22308   0.44330   2.75704
H     1.18903  -3.01172   1.02421
H     0.35690  -4.52316   2.79787
H    -2.08801  -4.98890   3.02461
H    -3.69127  -3.94583   1.41225
H    -2.85646  -2.45905  -0.39587
H     2.29267  -1.17946  -2.41781
H     4.93530   0.15805  -2.32530
H     4.26071  -0.83330  -3.65096
H     3.75607   0.87082  -3.45538
H     0.23210   1.68277   3.04861
H     1.82886   2.51651   3.06005
H     1.68785   0.81431   3.62963
