47
Generated by autodE on: 2022-06-21. E = -1015.905403 Ha
C     0.17321  -2.52291   1.74659
C     0.19905  -1.21075   2.01949
C    -0.16341  -0.67354   3.37553
C     0.58643  -0.16196   0.99288
C     1.65718  -0.64258  -0.01662
C     2.65940   0.41427  -0.42589
C     3.90656   0.19151  -0.88099
C     4.79358   1.34037  -1.27732
C     4.52143  -1.17048  -1.05078
C     0.77486  -0.97662  -1.20523
C     1.28630  -1.71344  -2.33078
N     1.73378  -2.31701  -3.20292
N    -0.41661  -0.51330  -1.19864
C    -0.60702   0.26083   0.04489
C    -0.48899   1.77148  -0.31901
O    -0.03065   2.58622   0.48599
N    -0.95838   2.09591  -1.53112
C    -0.99539   3.44932  -2.04690
C    -2.00032   0.02546   0.62077
C    -2.60748   0.97519   1.45611
C    -3.86748   0.73223   2.00915
C    -4.53719  -0.46409   1.73712
C    -3.93723  -1.41525   0.90656
C    -2.67769  -1.17174   0.35314
H    -0.12966  -3.24703   2.50859
H     0.44000  -2.92773   0.76678
H     0.69832  -0.14602   3.82058
H    -0.97651   0.06630   3.30210
H    -0.47925  -1.47225   4.06223
H     0.92428   0.73610   1.52134
H     2.17528  -1.54230   0.33763
H     2.30093   1.44699  -0.37039
H     4.29249   2.31183  -1.15595
H     5.71824   1.34444  -0.67386
H     5.11182   1.23948  -2.32983
H     5.50219  -1.21380  -0.54707
H     3.89623  -1.98752  -0.66729
H     4.71065  -1.36811  -2.12002
H    -1.29781   1.33707  -2.11452
H    -2.02339   3.84686  -2.05643
H    -0.60314   3.47441  -3.07389
H    -0.37650   4.09372  -1.41153
H    -2.09067   1.90859   1.68310
H    -4.32580   1.48357   2.65649
H    -5.52249  -0.65385   2.16937
H    -4.45070  -2.35451   0.68742
H    -2.21478  -1.91892  -0.29201
