23
Generated by autodE on: 2022-06-21. E = -351.521383 Ha
C     3.59229  -0.96220   0.68433
C     2.55575  -0.15661   0.36431
C     2.76480   1.30442   0.05794
C     1.19953  -0.69869   0.31108
C     0.07834   0.00275   0.00801
C    -1.24494  -0.58574  -0.02946
C    -2.41171   0.04354  -0.31986
C    -2.52815   1.50173  -0.66233
C    -3.71220  -0.70925  -0.31769
H     3.43716  -2.02259   0.90623
H     4.61690  -0.58306   0.73221
H     3.82614   1.57951   0.13493
H     2.41587   1.55117  -0.95861
H     2.19057   1.94199   0.75057
H     1.10170  -1.76675   0.54007
H     0.16750   1.06808  -0.22131
H    -1.29335  -1.65614   0.20458
H    -2.97639   1.62396  -1.66429
H    -1.57029   2.03733  -0.64897
H    -3.21358   2.00550   0.04194
H    -3.57768  -1.77179  -0.06727
H    -4.20488  -0.64224  -1.30440
H    -4.41960  -0.26635   0.40638
