47
Generated by autodE on: 2022-06-21. E = -1015.826082 Ha. Imaginary frequency = -322.5 cm-1
C     0.35963  -2.15256   2.02969
C     0.41806  -0.80761   2.17773
C    -0.31217  -0.11151   3.29889
C     1.11405   0.06758   1.25006
C     1.98213  -0.34991   0.24193
C     2.76058   0.62920  -0.52305
C     3.83229   0.38406  -1.31223
C     4.51188   1.50446  -2.04808
C     4.43909  -0.97443  -1.52374
C     0.58435  -0.91135  -1.32132
C     1.12872  -1.47807  -2.48579
N     1.69835  -1.99719  -3.36219
N    -0.51875  -0.40451  -1.11211
C    -1.17265   0.34212  -0.23335
C    -0.85925   1.80958  -0.22283
O    -1.17931   2.53969   0.72572
N    -0.20355   2.29143  -1.29927
C     0.35767   3.62816  -1.29117
C    -2.29342  -0.25490   0.49120
C    -3.24389   0.51104   1.20123
C    -4.27098  -0.11432   1.90473
C    -4.37736  -1.51045   1.92105
C    -3.44730  -2.28017   1.21651
C    -2.41661  -1.66289   0.50900
H    -0.20289  -2.76979   2.73433
H     0.86041  -2.66878   1.20683
H     0.40066   0.37134   3.98955
H    -0.95216   0.68937   2.89706
H    -0.93848  -0.80665   3.87576
H     1.01486   1.14122   1.42331
H     2.35819  -1.37424   0.28039
H     2.40924   1.66330  -0.44632
H     4.03635   2.47692  -1.85295
H     4.49510   1.32009  -3.13725
H     5.57754   1.57176  -1.76530
H     5.49452  -0.97206  -1.19827
H     3.91703  -1.77797  -0.98884
H     4.44572  -1.22775  -2.59727
H     0.08418   1.65781  -2.03604
H    -0.43052   4.38778  -1.17694
H     0.87717   3.79759  -2.24199
H     1.07611   3.75658  -0.46468
H    -3.16595   1.59551   1.20183
H    -4.99864   0.49551   2.44529
H    -5.18516  -1.99417   2.47501
H    -3.52342  -3.36992   1.21613
H    -1.70748  -2.27378  -0.04990
