22
Generated by autodE on: 2022-06-05. E = -625.207671 Ha
C     4.50281   0.29240  -1.32780
O     3.07939   0.15423  -1.24157
C     2.54522   0.25789  -0.02047
O     3.19864   0.45977   0.99741
N     1.17310   0.10434  -0.09555
N     0.64602   0.20531   1.10013
N    -0.56062   0.12990   1.46870
C    -1.62082  -0.09156   0.58844
C    -1.57097  -0.27207  -0.81368
C    -2.75465  -0.48278  -1.52235
C    -3.98961  -0.51785  -0.86790
C    -4.04639  -0.34015   0.52044
C    -2.87592  -0.12970   1.23946
H     4.75228   0.18549  -2.38998
H     4.81945   1.28059  -0.96287
H     5.00484  -0.49102  -0.74110
H     1.31992   0.37497   1.87218
H    -0.61749  -0.24590  -1.32985
H    -2.70805  -0.62151  -2.60495
H    -4.90698  -0.68367  -1.43726
H    -5.00664  -0.36635   1.04000
H    -2.89849   0.01109   2.32143
