52
Generated by autodE on: 2022-06-05. E = -1367.070238 Ha. Imaginary frequency = -354.9 cm-1
C    -8.41329 -12.90580  10.61468
O    -9.82261 -13.11357  10.43996
C   -10.21778 -13.49586   9.23083
O    -9.49201 -13.58614   8.25549
N   -11.59600 -13.75640   9.24919
N   -12.04124 -14.05224   8.03409
N   -13.21981 -14.53873   7.85000
C   -14.34933 -13.98976   8.50238
C   -14.35062 -12.89987   9.39344
C   -15.55967 -12.43232   9.91167
C   -16.77094 -13.04474   9.57520
C   -16.77165 -14.12255   8.68273
C   -15.57427 -14.58069   8.13925
C   -12.86917 -16.11846   9.37357
C   -12.04233 -15.58927  10.15249
C   -11.37793 -15.67947  11.46833
C    -9.88153 -15.94744  11.38231
C    -9.29404 -16.51766  10.24658
C    -7.92149 -16.78973  10.21523
C    -7.12135 -16.50182  11.32367
C    -7.70259 -15.93637  12.46475
C    -9.07052 -15.66095  12.49086
C   -12.08137 -16.81816  12.26065
C   -13.53445 -16.56852  12.69255
C   -14.59875 -16.15646  11.66148
C   -14.89421 -17.09332  10.48455
C   -13.80624 -17.24873   9.41482
F   -13.08494 -18.41532   9.65098
F   -14.40443 -17.48454   8.19381
H    -8.07790 -12.06086   9.99606
H    -7.85568 -13.81137  10.34128
H    -8.27229 -12.67912  11.67661
H   -11.33388 -14.39079   7.36545
H   -13.41610 -12.42874   9.68504
H   -15.54989 -11.58244  10.59826
H   -17.70866 -12.68034  10.00040
H   -17.71115 -14.60324   8.40087
H   -15.56041 -15.41424   7.43756
H   -11.52390 -14.72735  12.00517
H    -9.91316 -16.74528   9.37636
H    -7.47803 -17.22870   9.31812
H    -6.04959 -16.71243  11.29890
H    -7.08481 -15.70094  13.33484
H    -9.51861 -15.20830  13.37941
H   -12.00491 -17.73629  11.65994
H   -11.48962 -16.99508  13.17236
H   -13.52843 -15.78447  13.46928
H   -13.87707 -17.48899  13.19692
H   -15.54678 -16.05156  12.21398
H   -14.38115 -15.15206  11.26818
H   -15.13365 -18.11104  10.83254
H   -15.78075 -16.70944   9.95984
