31
Generated by autodE on: 2022-06-04. E = -1612.098916 Ha
C     1.03626  -1.86453  -3.71414
O     1.18300  -1.13782  -2.48109
C     0.66516   0.08529  -2.43619
O     0.09728   0.62378  -3.35852
C     0.92260   0.74213  -1.06502
C     2.43054   1.11458  -1.00103
C     2.91748   2.13858  -1.98159
O     3.14569   0.60226  -0.16511
C     0.54473  -0.16816   0.00786
C    -0.10802  -0.65751   0.90301
C    -1.21252  -0.72206   1.83130
Cl   -0.65890  -0.09513   3.46137
Cl   -1.80481  -2.42763   2.06811
C    -2.35727   0.15560   1.29635
C    -1.94521   1.56969   0.84009
C    -1.46438   1.75894  -0.62648
C     0.03535   2.01414  -0.88697
H     1.53120  -1.32431  -4.53344
H    -0.02887  -1.99957  -3.94916
H     1.51796  -2.83459  -3.54902
H     4.01469   2.13906  -2.00262
H     2.56512   3.13207  -1.65709
H     2.50865   1.96705  -2.98813
H    -3.11664   0.21198   2.09006
H    -2.80459  -0.39287   0.45269
H    -1.20303   1.98175   1.54320
H    -2.84473   2.18987   0.96904
H    -1.98217   2.64758  -1.01806
H    -1.81447   0.92061  -1.25087
H     0.14624   2.60908  -1.80347
H     0.46005   2.60408  -0.06016
