15
Generated by autodE on: 2022-06-04. E = -661.547917 Ha
C     3.89030   0.81845   0.36430
O     2.45244   0.69317   0.39591
C     1.92154  -0.19774  -0.41330
O     2.48674  -0.93026  -1.18798
C     0.42977  -0.22335  -0.27212
O    -0.31423  -1.01631  -0.94883
C    -1.75489  -0.76288  -0.53602
O    -2.63513  -1.39442  -1.04328
C    -1.57118   0.24885   0.41997
C    -2.50142   0.94417   1.19572
N    -3.29778   1.51130   1.83307
O    -0.21394   0.54161   0.54098
H     4.21507   1.11607  -0.64223
H     4.13538   1.59394   1.09700
H     4.35261  -0.13932   0.64038
