47
Generated by autodE on: 2022-06-04. E = -1587.676333 Ha
C     3.81296  -0.17320  -1.71111
C     2.92029  -1.00006  -0.83865
O     3.09688  -2.19048  -0.66411
C     1.75602  -0.28265  -0.10774
C     2.12752  -0.18295   1.42368
C     2.97906  -1.22466   2.08391
O     1.76000   0.81130   2.01558
N     1.55149   1.04389  -0.65616
C     0.18761   1.50770  -0.55021
C    -0.03652   2.44946   0.58301
N    -0.17346   3.28924   1.37062
C    -0.13792   2.33720  -1.74163
N    -0.35285   3.01959  -2.65343
C    -0.72573   0.18705  -0.47245
C    -1.79453   0.40352   0.59524
C    -3.07312   0.84000   0.20652
C    -4.05030   1.15342   1.15410
C    -3.76982   1.04209   2.51759
C    -2.49648   0.63260   2.91953
C    -1.51966   0.32515   1.97068
C    -1.30991  -0.15000  -1.88185
C    -2.15182  -1.44470  -1.79836
C    -1.07964  -2.56037  -1.72111
C     0.23922  -1.76974  -1.66545
C    -0.07227  -0.63647  -2.65490
C     0.36394  -0.99374  -0.32001
Cl    0.05393  -2.14797   1.05357
H     3.23788   0.21264  -2.56670
H     4.19127   0.70233  -1.15958
H     4.64886  -0.78998  -2.06424
H     2.85824  -1.14522   3.17195
H     4.03010  -1.00114   1.82900
H     2.76435  -2.23737   1.73045
H     2.23568   1.72942  -0.34294
H    -3.31931   0.94991  -0.84856
H    -5.03468   1.48859   0.81936
H    -4.53344   1.28354   3.26063
H    -2.25139   0.56066   3.98170
H    -0.52753   0.05355   2.31867
H    -1.85063   0.69141  -2.32560
H    -2.82998  -1.45621  -0.93714
H    -2.76848  -1.53401  -2.70385
H    -1.21398  -3.23533  -0.86855
H    -1.07157  -3.17457  -2.63279
H     1.11581  -2.38759  -1.86977
H    -0.33175  -1.02320  -3.65033
H     0.72832   0.10379  -2.76571
