20
Generated by autodE on: 2022-06-04. E = -623.989579 Ha
C    -3.33247  -1.05880   0.31262
C    -1.85281  -1.27619   0.29027
O    -1.37501  -2.40109   0.44685
C    -0.89568  -0.15317   0.05651
N     0.35615  -0.62292   0.03195
C     1.59864  -0.12457  -0.03914
C     1.96706   1.24162   0.06445
N     2.41932   2.30463   0.21715
C     2.66883  -1.06031  -0.08609
N     3.55777  -1.81154  -0.13515
C    -1.18118   1.25249  -0.29939
C    -2.49118   1.89650   0.05118
O    -0.31421   1.88014  -0.90329
H    -3.82675  -2.03144   0.42489
H    -3.61365  -0.40678   1.15286
H    -3.67169  -0.57244  -0.61356
H     0.30879  -1.65924   0.14587
H    -2.80930   1.64536   1.07223
H    -2.37326   2.98276  -0.05394
H    -3.27940   1.56482  -0.64209
