27
Generated by autodE on: 2022-06-04. E = -963.657726 Ha
Cl   -0.77062  -1.20431  -2.15697
C    -1.09844  -0.01845  -0.92661
C    -0.26992   0.45663   0.03481
C     1.13943   0.17830   0.32116
C     1.63076   0.32834   1.63560
C     2.96652   0.05977   1.93930
C     3.84958  -0.35208   0.93667
C     3.38149  -0.49026  -0.37483
C     2.04567  -0.23045  -0.68100
C    -1.19396   1.24040   0.97510
C    -2.04990   0.17829   1.73725
C    -2.96571  -0.39546   0.61779
C    -2.52019   0.41765  -0.64090
C    -2.23730   1.79554  -0.01346
H     0.95680   0.64732   2.43206
H     3.31947   0.17525   2.96702
H     4.89599  -0.55840   1.17338
H     4.06484  -0.79938  -1.16966
H     1.70299  -0.33198  -1.71015
H    -0.68570   1.96646   1.62093
H    -1.41829  -0.58626   2.21098
H    -2.64012   0.66566   2.52763
H    -4.02927  -0.20886   0.82877
H    -2.83599  -1.47603   0.46250
H    -3.20616   0.36531  -1.49486
H    -3.11606   2.23253   0.48522
H    -1.81443   2.51562  -0.72896
