47
Generated by autodE on: 2022-06-04. E = -1587.628976 Ha. Imaginary frequency = -320.6 cm-1
C     3.46568   0.69217  -1.73497
C     2.80793  -0.43048  -0.97029
O     3.06117  -1.59444  -1.23268
C     1.91902  -0.09320   0.20266
C     2.39096  -0.62900   1.55408
C     3.17397  -1.90061   1.62860
O     2.11400   0.02229   2.55010
N     1.42907   1.17688   0.37382
C     0.49343   1.78735  -0.43025
C    -0.28057   2.82555   0.17605
N    -0.95071   3.65213   0.64550
C     0.63498   1.98407  -1.83644
N     0.65505   2.20188  -2.98004
C    -0.92201  -0.15328  -0.44619
C    -1.87425   0.42615   0.51206
C    -3.10943   0.93418   0.05466
C    -4.02504   1.50488   0.93859
C    -3.72823   1.59963   2.30139
C    -2.49692   1.12937   2.76717
C    -1.58186   0.55078   1.88892
C    -1.29432  -0.39230  -1.90805
C    -2.22191  -1.65250  -1.89466
C    -1.24074  -2.80176  -1.53683
C     0.12743  -2.06859  -1.40326
C    -0.01590  -1.01447  -2.50356
C     0.04890  -1.18902  -0.15295
Cl   -0.11630  -2.14811   1.35020
H     3.03747   0.74082  -2.74774
H     3.36831   1.67197  -1.25462
H     4.52994   0.43497  -1.84310
H     3.22811  -2.22020   2.67661
H     4.19300  -1.70886   1.25284
H     2.74060  -2.68688   1.00030
H     1.30619   1.37458   1.37583
H    -3.36012   0.88447  -1.00474
H    -4.97665   1.88200   0.55685
H    -4.44597   2.04667   2.99296
H    -2.24127   1.21604   3.82579
H    -0.62409   0.21417   2.28016
H    -1.71289   0.47660  -2.42764
H    -2.65639  -1.78635  -2.89606
H    -3.04781  -1.55490  -1.17852
H    -1.51569  -3.33408  -0.61728
H    -1.16946  -3.54147  -2.34690
H     1.00461  -2.72058  -1.43535
H    -0.19852  -1.46150  -3.49071
H     0.83187  -0.33245  -2.58999
