46
Generated by autodE on: 2022-06-18. E = -831.576185 Ha
C     5.06101  -0.34127   0.72201
C     4.02157  -0.61279  -0.09337
C     4.22724  -1.16640  -1.47892
C     2.65050  -0.36716   0.36681
C     1.53261  -0.58818  -0.34945
C     0.15662  -0.33703   0.17325
C    -0.72519   0.61596  -0.69634
C    -0.36065   0.69322  -2.18008
C    -0.62264   2.04248  -0.13061
O     0.48214   2.59370  -0.03337
N    -1.78950   2.61833   0.19278
C    -1.90961   3.94285   0.76241
O    -2.05911   0.11210  -0.58891
C    -2.15642  -0.93751   0.41029
C    -2.48718  -0.31340   1.77105
C    -3.30588  -1.84102  -0.01750
C    -0.74022  -1.60153   0.36594
C    -0.61489  -2.58670  -0.80629
C    -0.36388  -2.33894   1.65242
H     6.09431  -0.51353   0.40782
H     4.90120   0.06126   1.72707
H     3.71793  -2.13726  -1.59754
H     3.80104  -0.49363  -2.24169
H     5.29519  -1.30609  -1.69826
H     2.55228   0.03697   1.38135
H     1.61556  -0.98265  -1.36442
H     0.26436   0.12556   1.16415
H    -1.11793   1.29758  -2.70259
H     0.61880   1.17075  -2.31528
H    -0.33572  -0.30527  -2.63527
H    -2.61022   2.02571   0.10394
H    -2.16056   3.90065   1.83525
H    -0.95314   4.46803   0.64832
H    -2.69461   4.51529   0.24614
H    -3.38883   0.31012   1.67254
H    -1.67491   0.31865   2.15552
H    -2.69680  -1.09330   2.51709
H    -3.19387  -2.17335  -1.05756
H    -4.26042  -1.29909   0.06761
H    -3.35900  -2.72688   0.63290
H    -1.23798  -3.47582  -0.63152
H    -0.91656  -2.14544  -1.76605
H     0.42436  -2.93284  -0.90369
H    -1.06592  -3.16417   1.85239
H     0.64310  -2.77381   1.55254
H    -0.35206  -1.67531   2.52816
