23
Generated by autodE on: 2022-06-18. E = -479.948506 Ha
C     3.19910   0.51125   1.04666
N     1.83331   0.13143   0.76389
C     1.38458   0.04518  -0.53442
O     2.21095   0.06272  -1.48354
C    -0.02780  -0.10539  -0.75510
C    -0.62997  -0.14029  -2.11938
O    -0.75872  -0.02198   0.38187
C    -1.99741  -0.11648   0.71313
C    -2.27583   0.06193   2.16315
C    -3.08337  -0.48240  -0.23722
H     3.43198   1.55158   0.74965
H     3.38321   0.41475   2.12529
H     3.90466  -0.14611   0.51751
H     1.14138   0.29443   1.48569
H     0.19973  -0.20807  -2.83514
H    -1.20010   0.77565  -2.36073
H    -1.29360  -1.00104  -2.29752
H    -2.98290   0.89583   2.32211
H    -2.76288  -0.84039   2.57609
H    -1.35174   0.26238   2.72203
H    -2.96738  -1.53155  -0.56389
H    -3.09710   0.14629  -1.13780
H    -4.05284  -0.39149   0.26981
