34
Generated by autodE on: 2022-10-06. E = -1176.713338 Ha
C     4.69112   1.03960   0.14272
N     3.24369   1.09742   0.07834
C     2.50095  -0.01382   0.04676
O     2.96786  -1.15621   0.01041
C     0.99501   0.18195   0.00942
O     0.63612   1.58093   0.22547
C    -0.62129   1.71228  -0.25896
O    -1.25031   2.73572  -0.18326
C    -0.98941   0.33639  -0.82134
C    -2.09982   0.39423  -1.85698
C    -3.44353   0.87366  -1.37716
O    -1.86495   0.21378  -3.04128
C    -1.23559  -0.54149   0.45294
C    -1.88982  -1.89448   0.09953
O    -1.70188  -2.84402   0.89590
O    -2.58901  -1.92340  -0.94909
C     0.17852  -0.62401   1.05454
C     0.38357  -0.03169   2.46636
O     1.56680  -0.07288   2.89766
O    -0.60806   0.45795   3.06064
N     0.36383  -0.05778  -1.29034
C     0.52183  -1.40229  -1.84185
H     5.08916   2.06057   0.10777
H     5.09895   0.46791  -0.70461
H     5.02896   0.55649   1.07377
H     2.77089   1.99281   0.14187
H    -3.63698   0.62506  -0.32693
H    -3.45938   1.97206  -1.47602
H    -4.22964   0.45678  -2.02087
H    -1.90379  -0.03362   1.16282
H     0.54673  -1.65784   1.06260
H     0.33551  -2.21566  -1.12091
H     1.54751  -1.51639  -2.21608
H    -0.16755  -1.51442  -2.68458
