24
Generated by autodE on: 2022-10-06. E = -721.635010 Ha
C     4.48982  -0.65213   0.30256
N     3.05431  -0.77709   0.13912
C     2.24729   0.28414   0.28837
O     2.64488   1.41746   0.57120
C     0.80292  -0.03002   0.07871
O     0.44103  -1.27623  -0.21462
C    -0.98574  -1.32651  -0.37155
O    -1.51842  -2.38284  -0.64217
C    -1.40385   0.01200  -0.14017
C    -2.75456   0.53049  -0.16774
C    -3.84782  -0.46392  -0.47929
O    -3.01981   1.71749   0.05061
N    -0.24890   0.76230   0.13171
C    -0.23568   2.19994   0.42371
H     4.74281  -0.30755   1.31736
H     4.90647   0.07077  -0.41603
H     4.94963  -1.63220   0.13211
H     2.65278  -1.68011  -0.09447
H    -3.85762  -1.27730   0.26304
H    -3.68223  -0.93322  -1.46147
H    -4.81286   0.05904  -0.47246
H     0.79971   2.50574   0.58118
H    -0.84017   2.38378   1.31876
H    -0.68046   2.73466  -0.42251
