34
Generated by autodE on: 2022-10-06. E = -1176.669306 Ha. Imaginary frequency = -421.5 cm-1
C     4.48630   1.11136   0.72853
N     3.10719   1.22176   0.29219
C     2.47338   0.17409  -0.25585
O     3.03569  -0.86241  -0.61600
C     0.97437   0.32694  -0.33574
O     0.50644   1.58962  -0.01601
C    -0.81271   1.67022  -0.44402
O    -1.50866   2.62067  -0.14988
C    -1.01587   0.47708  -1.23990
C    -2.25432   0.09075  -1.91708
C    -3.47795   0.91707  -1.62332
O    -2.30370  -0.88540  -2.66386
C    -1.12314  -0.54330   1.05935
C    -2.09819  -1.60455   0.60957
O    -1.64500  -2.66712   0.10097
O    -3.32155  -1.34632   0.79559
C     0.26821  -0.73040   1.12361
C     1.05401  -0.13313   2.30798
O     2.08875  -0.76952   2.63763
O     0.62167   0.92356   2.82729
N     0.22274  -0.11116  -1.40735
C     0.47038  -1.37052  -2.10639
H     4.85417   2.10619   1.00698
H     5.11420   0.71041  -0.07866
H     4.56483   0.44004   1.60023
H     2.53941   1.97826   0.66182
H    -3.67496   0.93127  -0.54179
H    -3.32614   1.95913  -1.94358
H    -4.33386   0.47904  -2.15257
H    -1.55574   0.28663   1.62248
H     0.62790  -1.71746   0.81632
H    -0.06171  -2.18750  -1.60272
H     1.54599  -1.55899  -2.09456
H     0.11180  -1.28145  -3.13620
