10
Generated by autodE on: 2022-05-30. E = -764.965928 Ha
C    -3.42734  -0.06664   0.18602
O    -2.06692   0.19437  -0.20066
C    -1.11897  -0.37724   0.54373
O    -1.33168  -1.08694   1.50637
C     0.20775  -0.04927   0.06346
C     1.34188   0.19051  -0.29448
Cl    2.87022   0.51583  -0.78129
H    -4.05118   0.48112  -0.52911
H    -3.63936  -1.14411   0.13251
H    -3.60969   0.29387   1.20852
