29
Generated by autodE on: 2022-07-26. E = -691.648513 Ha
C     4.64536   1.10679  -0.46711
O     3.45192   1.58894   0.14203
C     2.32580   0.82364  -0.05046
O     2.35317  -0.17566  -0.78934
C     1.22901   1.27987   0.71766
C     1.28354   2.20727   1.88367
O     0.04005   0.60025   0.63515
C    -0.55794   0.17784  -0.44604
C    -0.13052   0.66629  -1.76665
C    -1.69324  -0.69448  -0.20561
C    -2.47374  -1.18708  -1.27644
C    -3.56830  -2.01372  -1.03234
C    -3.90834  -2.36933   0.27728
C    -3.13683  -1.89722   1.34737
C    -2.03777  -1.07791   1.11339
H     4.92066   0.11140  -0.08328
H     5.43243   1.82847  -0.21293
H     4.54062   1.04520  -1.56154
H     0.76317   1.75944   2.74903
H     0.79061   3.17640   1.68151
H     2.32251   2.41240   2.17085
H     0.25249   1.69669  -1.64092
H    -0.95379   0.64658  -2.48911
H     0.72501   0.08668  -2.15677
H    -2.22419  -0.92658  -2.30509
H    -4.16020  -2.38471  -1.87189
H    -4.76635  -3.01888   0.46440
H    -3.39184  -2.17922   2.37137
H    -1.43080  -0.72895   1.94891
