39
Generated by autodE on: 2022-05-30. E = -1456.624821 Ha. Imaginary frequency = -246.1 cm-1
C    -3.90695   0.43895  -0.90909
O    -2.57894   0.96961  -1.03940
C    -1.96021   1.31107   0.10377
O    -2.47183   1.19135   1.20832
C    -0.64779   1.83753  -0.11014
C     0.53456   2.17460  -0.12332
Cl    1.83355   3.19447  -0.31548
C     1.71631   0.15455   0.81088
C     1.83336   0.70377   2.20095
C     2.87958  -0.12953   0.00473
O     2.99248  -1.02190  -0.83500
O     3.90761   0.69873   0.31542
C     5.11866   0.50967  -0.41602
O     0.63356  -0.65755   0.67606
C    -0.03768  -1.02716  -0.37607
C     0.37323  -0.68887  -1.75904
C    -1.21858  -1.82131  -0.07854
C    -1.94637  -2.43708  -1.12046
C    -3.10049  -3.16483  -0.84045
C    -3.55416  -3.28742   0.47702
C    -2.83754  -2.68550   1.51983
C    -1.67887  -1.96494   1.25099
H    -3.92380  -0.41003  -0.21369
H    -4.59343   1.22038  -0.55053
H    -4.19856   0.11128  -1.91324
H     0.83923   0.98171   2.57901
H     2.46301   1.60326   2.19992
H     2.28608  -0.01933   2.90455
H     5.51971  -0.50391  -0.26465
H     5.82691   1.25271  -0.02937
H     4.95602   0.67341  -1.49238
H     0.99414   0.21247  -1.77334
H    -0.51953  -0.52702  -2.37621
H     0.96906  -1.50217  -2.20389
H    -1.60566  -2.35231  -2.15218
H    -3.65175  -3.63702  -1.65629
H    -4.46324  -3.85308   0.69320
H    -3.18891  -2.77907   2.54968
H    -1.12610  -1.49467   2.06381
