38
Generated by autodE on: 2022-10-21. E = -1175.593535 Ha
C    -4.66235   0.01620   0.78916
N    -3.25911  -0.35420   0.78153
C    -2.44722   0.01433  -0.21243
O    -2.79860   0.67719  -1.19029
C    -0.98008  -0.37813  -0.06011
C    -0.59875  -1.54798   0.89532
O    -1.17436  -2.00045   1.84932
O     0.60856  -1.98597   0.47165
C     0.94416  -1.09487  -0.67271
C     1.92487  -1.76092  -1.52048
N     2.70874  -2.26051  -2.21058
N    -0.31319  -0.80439  -1.29368
C    -0.96404  -1.89514  -2.02625
C     1.37718   0.26048   0.00453
O     2.18109   0.08905   1.11951
C     3.49762  -0.41785   0.90133
C     1.84377   1.39289  -0.98866
C     2.11307   2.60304  -0.10325
C     0.90300   3.07476   0.22508
C    -0.09091   2.13956  -0.45560
O     0.61758   1.74876  -1.62053
C    -0.04895   0.80338   0.41061
C    -0.21243   1.07759   1.82825
N    -0.38816   1.30305   2.95204
H    -5.19353  -0.42635  -0.06796
H    -4.77760   1.10936   0.73495
H    -5.11797  -0.34671   1.71771
H    -2.88127  -0.93510   1.52859
H    -0.32580  -2.18567  -2.87119
H    -1.16240  -2.78624  -1.40457
H    -1.91224  -1.51992  -2.42903
H     3.47721  -1.50115   0.70083
H     4.05468  -0.24143   1.83050
H     4.00504   0.10066   0.07296
H     2.60406   1.09471  -1.71763
H     3.09415   2.92995   0.23824
H     0.64016   3.88411   0.90478
H    -1.09903   2.49726  -0.67966
