18
Generated by autodE on: 2022-10-21. E = -514.386961 Ha
C     2.68925  -0.01655   0.92279
O     1.63858  -0.97689   0.72945
C     0.53139  -0.57908   0.14478
C     0.08150   0.60386  -0.36464
C     0.64655   1.88430  -0.43625
N     1.07028   2.97052  -0.52598
C    -1.38247   0.25921  -0.79168
C    -2.19396   0.01647   0.49627
C    -1.72296  -1.13174   0.99289
C    -0.64037  -1.57275  -0.01241
O    -1.19405  -1.09235  -1.24501
H     3.50902  -0.55302   1.41383
H     2.33671   0.80399   1.56471
H     3.02421   0.37727  -0.04798
H    -1.81741   0.90460  -1.56118
H    -2.93495   0.70117   0.90741
H    -1.96198  -1.64691   1.92213
H    -0.35918  -2.63029  -0.04696
