38
Generated by autodE on: 2022-10-21. E = -1175.547758 Ha. Imaginary frequency = -380.3 cm-1
C    -4.66601   0.15102   0.87929
N    -3.33877  -0.42919   0.82931
C    -2.58081  -0.34015  -0.27525
O    -2.95746   0.18424  -1.32942
C    -1.20475  -0.88363  -0.12538
C    -0.64849  -1.52548   1.06542
O    -1.11120  -1.72217   2.16688
O     0.62833  -1.91431   0.71403
C     0.87478  -1.38013  -0.55046
C     1.92335  -1.99012  -1.30726
N     2.80846  -2.41242  -1.93023
N    -0.35732  -1.14833  -1.14395
C    -0.59264  -1.00941  -2.57893
C     1.44925   0.49284   0.18687
O     2.32474   0.23431   1.18383
C     3.60285  -0.31979   0.86404
C     1.83519   1.33029  -1.06899
C     2.07465   2.76426  -0.56885
C     0.85969   3.23205  -0.25741
C    -0.10844   2.07431  -0.55648
O     0.54482   1.44734  -1.66739
C     0.16464   1.01683   0.54602
C    -0.23413   1.23124   1.87876
N    -0.59725   1.40303   2.97483
H    -5.29775  -0.24774   0.07127
H    -4.62760   1.24720   0.77111
H    -5.12297  -0.09560   1.84479
H    -2.92993  -0.84240   1.66665
H     0.35360  -1.18616  -3.10189
H    -1.32634  -1.76625  -2.88765
H    -0.96449  -0.01138  -2.81432
H     3.53341  -1.41360   0.76525
H     4.26347  -0.07942   1.70678
H     4.01769   0.11172  -0.05854
H     2.56621   0.88900  -1.75328
H     3.05075   3.23434  -0.45787
H     0.57568   4.18453   0.18842
H    -1.15615   2.30636  -0.76964
