43
Generated by autodE on: 2022-06-19. E = -1128.037745 Ha
C    -4.08710   0.89605   1.99145
N    -3.33984   0.20576   0.95815
C    -2.00447   0.20872   0.93726
O    -1.31253   0.75663   1.80261
C    -1.30013  -0.47183  -0.26535
C    -2.03651  -1.67719  -0.85379
C    -1.23464  -2.90683  -1.13659
O    -3.22682  -1.59121  -1.11888
O    -0.00865  -0.87205   0.16488
C     0.95405   0.13810  -0.08922
C     1.53449   0.65452   1.23529
O     1.79787   1.81604   1.45674
O     1.74541  -0.33976   2.09023
C     2.27901   0.01895   3.37502
C     2.07281  -0.49716  -0.92839
O     1.90016  -1.41581  -1.69698
O     3.23497   0.11371  -0.73069
C     4.35208  -0.32559  -1.52357
C     0.23322   1.26730  -0.87872
C     1.06007   1.97281  -1.94583
C    -1.01737   0.55093  -1.41037
C    -2.16151   1.47412  -1.79176
H    -3.88566   1.97930   1.97188
H    -3.82040   0.51995   2.99134
H    -5.15840   0.73150   1.82438
H    -3.81887  -0.27208   0.19677
H    -0.86500  -3.32088  -0.18449
H    -0.34311  -2.65604  -1.72970
H    -1.86002  -3.64478  -1.65449
H     3.24859   0.52395   3.26006
H     1.57776   0.68146   3.90243
H     2.40067  -0.92126   3.92457
H     4.13999  -0.16894  -2.59059
H     4.55395  -1.38940  -1.33691
H     5.20319   0.28779  -1.20838
H    -0.08548   2.01057  -0.13560
H     0.46007   2.76407  -2.41876
H     1.38612   1.27939  -2.73716
H     1.94975   2.44256  -1.50339
H    -0.72383  -0.04863  -2.28821
H    -2.42811   2.15015  -0.96534
H    -1.87020   2.09209  -2.65403
H    -3.05479   0.89974  -2.07719
