31
Generated by autodE on: 2022-06-19. E = -970.627819 Ha
C    -3.96835   1.65720   0.35206
N    -2.97531   0.70594   0.80762
C    -1.83757   0.50661   0.12768
O    -1.51424   1.15128  -0.88311
C    -0.98103  -0.61093   0.59785
O     0.22554  -0.75954   0.10418
C     1.06608   0.02086  -0.50854
C     2.25980  -0.64989  -1.04998
O     3.18353  -0.05135  -1.57158
O     2.20762  -1.97675  -0.90625
C     3.34528  -2.71442  -1.37797
C     0.97736   1.50449  -0.48781
O     1.33098   2.22360  -1.39652
O     0.57054   1.92898   0.70939
C     0.32832   3.33785   0.84809
C    -1.43306  -1.77907   1.36299
C    -0.49437  -2.95070   1.46683
O    -2.53010  -1.77007   1.92755
H    -4.71412   1.79862   1.14371
H    -4.48085   1.31052  -0.56113
H    -3.49366   2.62354   0.12840
H    -3.21101   0.00121   1.50923
H     3.12314  -3.76836  -1.17682
H     4.25314  -2.40594  -0.83965
H     3.48587  -2.55267  -2.45642
H    -0.05399   3.47763   1.86529
H     1.26065   3.90277   0.70829
H    -0.41849   3.66354   0.11038
H    -0.15244  -3.27213   0.47163
H    -1.00851  -3.77308   1.97938
H     0.40319  -2.66408   2.03811
