31
Generated by autodE on: 2022-07-27. E = -970.628282 Ha
C    -3.87319   0.44581   1.99857
N    -3.19669   0.21213   0.73936
C    -1.87975  -0.03760   0.68784
O    -1.13218  -0.00924   1.68089
C    -1.33988  -0.43407  -0.63336
O    -0.03919  -0.55962  -0.79320
C     0.99012  -0.09342  -0.15693
C     0.87336   1.11827   0.70313
O     0.20580   2.07179   0.35195
O     1.62665   1.06941   1.78848
C     1.60142   2.23073   2.63767
C     2.25642  -0.64712  -0.67721
O     2.30481  -1.55845  -1.48287
O     3.31909  -0.03016  -0.16298
C     4.60658  -0.49614  -0.59529
C    -2.10828  -0.99364  -1.74771
C    -1.34148  -1.58494  -2.90034
O    -3.34199  -0.93238  -1.75415
H    -3.30374   1.16304   2.60635
H    -3.98655  -0.48240   2.58424
H    -4.86949   0.85817   1.79679
H    -3.72797  -0.01004  -0.10520
H     1.95620   3.11392   2.08806
H     0.57872   2.40475   3.00098
H     2.27234   2.00467   3.47356
H     4.71915  -0.35510  -1.67994
H     4.72980  -1.56039  -0.34819
H     5.34167   0.10942  -0.05362
H    -0.89595  -0.76993  -3.49514
H    -0.51396  -2.22262  -2.55888
H    -2.03485  -2.15227  -3.53386
