43
Generated by autodE on: 2022-06-19. E = -1127.932292 Ha. Imaginary frequency = -185.4 cm-1
C    -3.94257   0.51674   2.13049
N    -3.23710  -0.19245   1.08451
C    -1.89651  -0.16624   1.00510
O    -1.18713   0.42718   1.83623
C    -1.28584  -0.88082  -0.13178
C    -1.99062  -1.75078  -1.07142
C    -1.18442  -2.54886  -2.06312
O    -3.22851  -1.78967  -1.09635
O     0.03430  -0.96259  -0.23354
C     1.02276  -0.15255   0.00939
C     1.17522   0.74110   1.22704
O     1.19073   1.95072   1.21947
O     1.49427  -0.01558   2.27708
C     1.68391   0.67156   3.52493
C     2.27532  -0.61162  -0.63664
O     2.36741  -1.60714  -1.32708
O     3.27470   0.23420  -0.38066
C     4.54709  -0.06482  -0.97593
C     0.27983   1.45454  -1.75673
C     0.90106   0.77374  -2.94635
C    -1.06962   1.46926  -1.53898
C    -1.76019   2.42745  -0.61962
H    -3.67470   1.58539   2.13488
H    -3.70901   0.10717   3.12694
H    -5.02130   0.42275   1.95587
H    -3.72756  -0.71011   0.35286
H    -0.20582  -2.85764  -1.67779
H    -1.00920  -1.91988  -2.95235
H    -1.77571  -3.42003  -2.37458
H     2.50704   1.39547   3.44386
H     0.75781   1.19190   3.80821
H     1.92719  -0.10277   4.26112
H     4.46037  -0.07507  -2.07174
H     4.91145  -1.04076  -0.62495
H     5.22395   0.73424  -0.65415
H     0.89463   2.17205  -1.20616
H     0.53402  -0.25602  -3.07044
H     1.99740   0.74755  -2.87992
H     0.64994   1.32420  -3.86960
H    -1.70758   0.88971  -2.21595
H    -1.11068   2.74284   0.20800
H    -2.05109   3.33143  -1.18600
H    -2.68925   2.00799  -0.20952
