39
Generated by autodE on: 2022-05-31. E = -1640.021990 Ha. Imaginary frequency = -310.4 cm-1
C    -4.93775  -0.45355  -0.17286
O    -3.68250   0.22579  -0.03588
C    -2.58382  -0.45370  -0.40679
O    -2.61352  -1.58475  -0.85250
C    -1.37327   0.34422  -0.16007
C    -1.45945   1.86504   0.14788
C    -1.75456   2.55732  -1.19097
C    -0.62413   2.44794  -1.89951
C     0.35379   1.69897  -0.97601
O    -0.06034   2.17415   0.31177
C    -0.16701   0.24287  -0.89727
Cl    0.09850  -0.75989  -2.28944
C     1.25135  -0.58168   0.80292
C     2.59060  -0.14754   0.43081
C     3.30254  -0.84372  -0.56685
C     4.55639  -0.39088  -0.97563
C     5.11946   0.75228  -0.39948
C     4.41913   1.44522   0.59378
C     3.16345   1.00321   1.00722
N     0.48964  -0.00837   1.79110
C    -0.74273  -0.58978   1.72291
C    -1.78986  -0.34889   2.65507
N    -2.69229  -0.11477   3.34934
O    -0.58141  -1.85663   1.23426
C     0.65130  -1.89325   0.56603
O     0.99573  -2.86644  -0.05719
H    -5.70176   0.25109   0.17497
H    -5.11828  -0.72287  -1.22346
H    -4.94924  -1.36278   0.44550
H    -2.04704   2.15461   1.02424
H    -2.71962   2.97089  -1.48019
H    -0.41148   2.74796  -2.92460
H     1.42772   1.82528  -1.14530
H     2.86771  -1.73322  -1.01931
H     5.09813  -0.93687  -1.75112
H     6.10245   1.10229  -0.72239
H     4.85316   2.33712   1.05076
H     2.63234   1.55774   1.78271
H     0.56223   0.98854   2.00095
