51
Generated by autodE on: 2022-06-25. E = -1357.841893 Ha
C    -0.68646   1.57467   2.72236
O    -0.90802   1.24782   1.33950
C    -0.30706   1.99532   0.42439
O     0.37024   2.96969   0.67796
C    -0.54140   1.49196  -1.01491
C    -0.79509   2.71375  -1.89020
O    -1.69169   0.65917  -1.04821
N    -1.30807  -0.71122  -1.30516
C    -2.29049  -1.58837  -0.78028
C    -2.36516  -2.89395  -1.29700
C    -3.32423  -3.78391  -0.81356
C    -4.24850  -3.37851   0.15594
C    -4.20007  -2.06658   0.63601
C    -3.22861  -1.17340   0.17913
C     0.12688  -0.82653  -0.98203
C     0.76551  -2.03149  -1.68530
C     0.40048  -1.04911   0.51813
O    -0.27792  -1.81538   1.17466
C     1.59786  -0.40843   1.13803
O     1.78674  -0.84470   2.38119
C     2.66225  -0.19316   3.31274
C     2.36824   0.48706   0.44127
O     3.55253   0.90844   0.94401
C     3.76734   2.31730   1.13234
C     1.98555   0.96020  -0.89902
O     2.73866   1.69690  -1.52293
C     0.63820   0.54945  -1.49604
C     0.76643   0.56871  -3.02266
H     0.38498   1.71274   2.91498
H    -1.23084   2.49449   2.97811
H    -1.07517   0.72444   3.29303
H    -1.08094   2.40423  -2.90150
H    -1.61570   3.30619  -1.46028
H     0.10346   3.34270  -1.93587
H    -1.67930  -3.20558  -2.08418
H    -3.36236  -4.79867  -1.21717
H    -5.00712  -4.07409   0.52142
H    -4.92234  -1.73049   1.38432
H    -3.18500  -0.15852   0.56828
H     0.43722  -2.96328  -1.20823
H     0.48798  -2.05670  -2.74541
H     1.85964  -1.97009  -1.59698
H     2.41379  -0.62801   4.28912
H     2.47964   0.89001   3.33373
H     3.71334  -0.39211   3.07032
H     4.45089   2.41286   1.98720
H     4.22514   2.76543   0.24030
H     2.82214   2.82920   1.36112
H     1.03283   1.57142  -3.37231
H     1.56578  -0.11225  -3.34198
H    -0.17226   0.26045  -3.49838
