25
Generated by autodE on: 2022-06-25. E = -668.323183 Ha
C     3.32579   2.16017  -0.91759
O     2.31922   1.21283  -0.53543
C     2.75508   0.01384  -0.12654
O     3.93374  -0.29991  -0.06656
C     1.67212  -0.90304   0.24835
C     1.88581  -2.27523   0.72870
O     0.47670  -0.41543   0.12863
N    -0.59346  -1.14757   0.43970
C    -1.74009  -0.40242   0.22253
C    -2.95675  -1.06285   0.50895
C    -4.17315  -0.41063   0.32638
C    -4.20753   0.90861  -0.14281
C    -3.00415   1.56833  -0.42777
C    -1.77870   0.93090  -0.25107
H     2.78748   3.06696  -1.21603
H     3.99352   2.37581  -0.07068
H     3.91821   1.77467  -1.76023
H     2.95576  -2.50697   0.76152
H     1.35850  -2.99105   0.07190
H     1.43665  -2.39849   1.73114
H    -2.91953  -2.09134   0.87393
H    -5.10437  -0.93589   0.55208
H    -5.16247   1.41880  -0.28564
H    -3.02201   2.59788  -0.79413
H    -0.84820   1.45224  -0.47575
