25
Generated by autodE on: 2022-07-27. E = -668.311883 Ha
C     1.98354   4.36732   0.81327
O     1.09711   3.59738  -0.00699
C     0.96546   2.29588   0.31294
O     1.55498   1.77018   1.24138
C     0.02770   1.65060  -0.61423
C    -0.63190   2.37944  -1.72959
O    -0.28844   0.39417  -0.52073
N     0.15676  -0.47512   0.38379
C    -0.41662  -1.71319   0.14623
C    -0.01962  -2.73623   1.03861
C    -0.52469  -4.02656   0.90481
C    -1.43437  -4.32975  -0.11611
C    -1.83249  -3.32020  -1.00316
C    -1.33650  -2.02425  -0.88363
H     1.64381   4.36294   1.85950
H     1.95825   5.38671   0.41125
H     3.00579   3.96411   0.76220
H    -1.28556   1.69544  -2.28665
H    -1.23081   3.22193  -1.34612
H     0.11810   2.80479  -2.41672
H     0.68994  -2.48953   1.83108
H    -0.20600  -4.80429   1.60307
H    -1.82994  -5.34232  -0.22045
H    -2.54215  -3.54799  -1.80260
H    -1.65522  -1.24948  -1.58079
