26
Generated by autodE on: 2022-06-25. E = -689.460841 Ha
C    -2.76460  -0.86100   1.48008
O    -2.28627  -0.59694   0.15683
C    -0.95871  -0.29562   0.04987
C    -0.50135   0.95350  -0.24779
O    -1.18728   2.08065  -0.43631
C    -2.60630   2.16211  -0.26763
C     0.97555   1.18617  -0.42828
O     1.36533   2.31141  -0.70852
C     1.92207   0.05563  -0.24897
C     3.38302   0.33908  -0.41524
C     1.45662  -1.18091   0.05653
C     2.37376  -2.34716   0.24828
C    -0.01192  -1.42304   0.19013
O    -0.44484  -2.55371   0.40582
H    -3.84093  -1.05900   1.38993
H    -2.26727  -1.73859   1.91865
H    -2.60755   0.01475   2.13156
H    -2.85940   3.21247  -0.45990
H    -3.12771   1.51583  -0.98537
H    -2.89683   1.89731   0.75907
H     3.81623  -0.29683  -1.20467
H     3.93240   0.10709   0.51223
H     3.55687   1.39027  -0.67351
H     1.81416  -3.25613   0.49755
H     3.09984  -2.14288   1.05237
H     2.96269  -2.53307  -0.66542
