51
Generated by autodE on: 2022-06-25. E = -1357.789595 Ha. Imaginary frequency = -232.0 cm-1
C     0.82672   3.97707   1.34411
O     0.20674   3.30106   0.24047
C    -0.31900   2.09391   0.47219
O    -0.35274   1.56901   1.56803
C    -0.89077   1.55238  -0.79637
C    -1.34932   2.51930  -1.83649
O    -1.62971   0.45307  -0.76835
N    -1.21687  -0.57465   0.00273
C    -2.07369  -1.65374  -0.16200
C    -1.86700  -2.73071   0.72806
C    -2.63802  -3.88532   0.61773
C    -3.63110  -3.98014  -0.36391
C    -3.85287  -2.90459  -1.23505
C    -3.08498  -1.74716  -1.14522
C     0.65698  -0.89974  -1.35059
C     0.02700  -1.77896  -2.38050
C     1.24938  -1.56134  -0.16760
O     1.13377  -2.77444   0.01600
C     2.00867  -0.74329   0.80324
O     2.41836  -1.34736   1.95134
C     1.38973  -1.78484   2.85022
C     2.36872   0.53459   0.49877
O     3.07217   1.39106   1.25215
C     3.12470   1.25646   2.67811
C     2.03214   1.10958  -0.84234
O     2.58057   2.14522  -1.20662
C     1.01111   0.42513  -1.67098
C     0.90673   0.90137  -3.09549
H     0.15147   4.00723   2.20994
H     1.03936   4.99221   0.99033
H     1.76115   3.46674   1.61101
H    -0.51589   3.14570  -2.17559
H    -1.77844   1.98202  -2.69043
H    -2.11585   3.19138  -1.41312
H    -1.10920  -2.63287   1.50408
H    -2.47081  -4.71336   1.31021
H    -4.23878  -4.88406  -0.44441
H    -4.63473  -2.97225  -1.99524
H    -3.26287  -0.91321  -1.82296
H     0.73290  -1.95235  -3.21139
H    -0.25235  -2.75071  -1.95963
H    -0.86513  -1.30424  -2.81587
H     1.86715  -1.91572   3.83054
H     0.59488  -1.02714   2.92944
H     0.96009  -2.74151   2.52117
H     2.11580   1.10032   3.08683
H     3.78349   0.43206   2.97750
H     3.52716   2.20841   3.04765
H     1.09381   1.97828  -3.16893
H     1.66748   0.38832  -3.70943
H    -0.07215   0.67579  -3.53506
