73
Generated by autodE on: 2022-06-11. E = -1577.735451 Ha
C    -9.43615  12.74709  -1.84162
C    -8.21228  11.93596  -1.52565
O    -7.12473  12.46533  -1.37924
C    -8.34786  10.38184  -1.48441
C    -9.80827   9.97627  -1.20476
C   -10.30407   9.97528   0.11010
C   -11.62164   9.60450   0.38621
C   -12.48363   9.23869  -0.65234
C   -12.00982   9.25486  -1.96559
C   -10.68707   9.61605  -2.23685
C    -7.90335   9.96456  -2.91364
C    -6.40611  10.12809  -3.22726
C    -5.66629   8.80429  -3.40161
C    -5.24174   8.03556  -2.14822
C    -6.29342   7.57303  -1.07764
C    -5.64999   6.41660  -0.24083
C    -4.26080   6.22817  -0.16669
C    -3.70519   5.18074   0.57673
C    -4.52693   4.28367   1.25909
C    -5.91276   4.44972   1.18824
C    -6.46026   5.49658   0.44739
C    -7.53983   6.94500  -1.72473
C    -8.80082   7.02093  -1.12101
C    -9.90588   6.35770  -1.66238
C    -9.76938   5.59817  -2.82498
C    -8.50929   5.48988  -3.42430
C    -7.40723   6.14596  -2.87302
C    -6.63185   8.78032  -0.18329
C    -7.43138   9.86308  -0.38859
N    -7.38764  10.71996   0.76558
N    -6.61113  10.29067   1.64252
C    -5.98379   9.02726   1.18307
C    -4.48522   9.35815   1.07365
C    -6.32593   7.98928   2.25366
C    -7.67772   7.69696   2.49852
C    -8.04078   6.77235   3.47651
C    -7.05472   6.12751   4.23264
C    -5.71029   6.42765   4.00644
C    -5.34736   7.35882   3.02740
H   -10.11292  12.72823  -0.97256
H    -9.99531  12.31659  -2.68448
H    -9.14458  13.78262  -2.05947
H    -9.65507  10.27010   0.93430
H   -11.97509   9.60406   1.42012
H   -13.51457   8.94683  -0.43896
H   -12.66845   8.97271  -2.79051
H   -10.34912   9.60285  -3.27152
H    -8.20955   8.92377  -3.07539
H    -8.49307  10.55858  -3.62604
H    -5.90797  10.74192  -2.46347
H    -6.31165  10.69188  -4.16818
H    -6.25943   8.15439  -4.06369
H    -4.72815   9.00303  -3.94677
H    -4.72261   7.13370  -2.50056
H    -4.48284   8.62927  -1.62042
H    -3.57991   6.89912  -0.68621
H    -2.61872   5.06961   0.61358
H    -4.09428   3.46453   1.83826
H    -6.57762   3.76341   1.71760
H    -7.54277   5.59648   0.41466
H    -8.92878   7.59692  -0.20838
H   -10.87634   6.44634  -1.16976
H   -10.63228   5.08570  -3.25679
H    -8.38034   4.88394  -4.32451
H    -6.43106   6.01799  -3.34110
H    -4.33860  10.15106   0.32728
H    -3.90258   8.48143   0.77572
H    -4.11396   9.71653   2.04280
H    -8.45466   8.19115   1.91150
H    -9.09702   6.55130   3.64759
H    -7.33543   5.39696   4.99493
H    -4.93168   5.92994   4.58925
H    -4.29119   7.56529   2.85872
