18
Generated by autodE on: 2022-06-11. E = -419.314469 Ha
C     2.35256  -1.23851   0.23647
C     1.41667  -0.06121   0.15473
N     1.93070   1.13127   0.23466
N     2.37100   2.18585   0.30374
C    -0.03387  -0.18386  -0.00800
C    -0.61696  -1.46489  -0.11088
C    -1.99753  -1.60915  -0.26535
C    -2.83021  -0.48793  -0.32110
C    -2.26183   0.78824  -0.22004
C    -0.88565   0.94209  -0.06582
H     2.09270  -1.88992   1.08716
H     3.39041  -0.90341   0.36676
H     2.30112  -1.84891  -0.68025
H     0.01112  -2.35571  -0.07100
H    -2.42407  -2.61240  -0.34305
H    -3.90946  -0.60469  -0.44200
H    -2.89844   1.67563  -0.26119
H    -0.46709   1.94806   0.01155
