13
Generated by autodE on: 2022-06-16. E = -303.699093 Ha
C     3.10587   0.12613  -0.00928
C     1.72114   0.27595  -0.46253
N     0.57888   0.23623  -0.13733
C    -0.71239   0.28668   0.12835
C    -1.35670   1.59855   0.50513
C    -1.46174  -0.89682  -0.02157
N    -2.11000  -1.86740  -0.13136
H     3.64385   1.06975  -0.19157
H     3.16968  -0.14012   1.05916
H     3.60453  -0.64409  -0.61796
H    -2.38294   1.42282   0.85609
H    -1.40392   2.29061  -0.35433
H    -0.79954   2.09916   1.31300
