12
Generated by autodE on: 2022-06-16. E = -381.636093 Ha
O     0.80463  -2.54205  -0.03280
C     0.43429  -1.37274  -0.01734
C    -1.00565  -1.02411   0.04884
C    -1.41099   0.25769   0.06460
C    -0.43428   1.37274   0.01749
O    -0.80463   2.54205   0.03272
C     1.00565   1.02411  -0.04886
C     1.41099  -0.25770  -0.06461
H    -1.70638  -1.86168   0.08323
H    -2.46566   0.53865   0.11349
H     1.70638   1.86169  -0.08335
H     2.46566  -0.53865  -0.11361
