51
Generated by autodE on: 2022-06-15. E = -8962.707849 Ha
C    -3.55315  -6.74526  -4.69029
N    -3.28877  -6.95156  -3.27702
C    -3.60489  -6.02313  -2.37523
O    -4.16163  -4.96458  -2.68466
C    -3.31181  -6.25001  -0.85554
Br   -2.71801  -8.16939  -0.59030
C    -4.69760  -6.03421  -0.18985
C    -4.98860  -6.46442   1.24241
C    -4.09334  -5.88379   2.33387
C    -2.76780  -6.65089   2.47810
C    -1.52019  -5.88830   2.07410
Br    0.00919  -7.15695   2.20180
Br   -1.28316  -4.47279   3.50011
C    -1.45390  -5.19494   0.74163
C    -2.18989  -5.32329  -0.40504
C    -1.64393  -4.27713  -1.38261
C    -0.93622  -4.98250  -2.58513
O    -0.29529  -6.00790  -2.35958
N    -1.01666  -4.38961  -3.77558
C    -0.37129  -4.95717  -4.94400
C    -2.65370  -3.15381  -1.70052
O    -2.64031  -2.47338  -2.70424
O    -3.44336  -2.93111  -0.66221
C    -4.42590  -1.89041  -0.80101
N    -0.56492  -3.57698  -0.68567
C    -0.45167  -4.12149   0.47157
C     0.70770  -3.63885   1.32898
C     0.71636  -2.17725   1.66825
O     1.62011  -4.39868   1.58364
H    -3.18584  -5.76124  -5.01330
H    -3.04257  -7.52971  -5.26071
H    -4.63312  -6.79479  -4.90064
H    -2.76266  -7.76729  -2.98354
H    -5.43011  -6.53553  -0.84023
H    -4.88155  -4.95486  -0.28832
H    -6.02795  -6.15021   1.42911
H    -4.99035  -7.56449   1.31532
H    -4.62707  -5.93735   3.29351
H    -3.91554  -4.81266   2.14593
H    -2.61541  -6.97891   3.51410
H    -2.79655  -7.56880   1.88062
H    -1.57153  -3.53634  -3.84309
H    -0.71610  -4.41900  -5.83514
H    -0.62304  -6.02281  -5.04816
H     0.72558  -4.87054  -4.87800
H    -4.97482  -1.87153   0.14668
H    -5.10303  -2.12891  -1.63307
H    -3.93519  -0.92411  -0.98219
H    -0.27092  -1.83725   2.01146
H     0.95096  -1.61787   0.74675
H     1.48790  -1.97200   2.42190
