27
Generated by autodE on: 2022-06-15. E = -8241.020623 Ha
C     0.13724   5.45061  -1.31573
N     0.68059   4.22638  -0.75570
C    -0.10254   3.17271  -0.48951
O    -1.30831   3.14175  -0.73825
C     0.58496   1.94999   0.14539
Br    0.79098   2.42128   2.11627
C    -0.23470   0.76247   0.07890
C    -0.50099  -0.41397  -0.04587
C    -0.23483  -1.80287  -0.29319
Br   -0.76963  -2.23078  -2.17277
Br   -1.28634  -2.97354   0.92208
C     1.27007  -2.06204  -0.09973
C     2.20720  -1.04232  -0.78037
C     2.58063   0.24638   0.00568
C     1.96809   1.58858  -0.44089
H    -0.41247   5.24226  -2.24566
H    -0.55450   5.94104  -0.61168
H     0.96446   6.13560  -1.53618
H     1.65937   4.20582  -0.49183
H     1.48299  -3.07988  -0.45682
H     1.45410  -2.05529   0.98634
H     3.14269  -1.59011  -0.96692
H     1.81701  -0.78327  -1.77818
H     2.40080   0.09995   1.08346
H     3.66846   0.37578  -0.09255
H     1.84320   1.59291  -1.53718
H     2.66783   2.40201  -0.19804
