24
Generated by autodE on: 2022-06-15. E = -721.580518 Ha
C    -1.72351   3.70658  -0.82012
N    -1.65191   2.28949  -0.53224
C    -0.47180   1.66980  -0.35751
O     0.62067   2.25381  -0.43117
C    -0.52731   0.21129  -0.06403
N     0.64454  -0.36147   0.10316
C     1.74638  -0.74322   0.22865
C     3.10585  -1.19120   0.37749
C     4.12955  -0.10831   0.18584
O     3.35357  -2.36187   0.63345
C    -1.73534  -0.60141   0.04695
O    -2.87393  -0.16767  -0.08600
O    -1.46867  -1.88699   0.31202
C    -2.59481  -2.76565   0.44134
H    -2.77676   3.99242  -0.92950
H    -1.19132   3.95524  -1.75246
H    -1.27744   4.30594  -0.00987
H    -2.49680   1.72629  -0.44864
H     3.66741   0.87399   0.01558
H     4.77368  -0.07230   1.07856
H     4.75909  -0.37521  -0.67851
H    -3.24151  -2.44513   1.27100
H    -2.17816  -3.75814   0.64819
H    -3.17841  -2.78568  -0.49041
