51
Generated by autodE on: 2022-06-15. E = -8962.600157 Ha. Imaginary frequency = -321.0 cm-1
C    -4.71550  -5.04052  -4.39550
N    -4.09628  -5.80485  -3.32627
C    -4.03631  -5.34046  -2.07757
O    -4.51856  -4.26201  -1.72222
C    -3.43897  -6.22207  -0.95567
Br   -2.49887  -7.86754  -1.69412
C    -4.65323  -6.69058  -0.11657
C    -4.45233  -7.63353   1.06861
C    -3.86161  -7.06651   2.37103
C    -2.33517  -7.16618   2.53336
C    -1.53678  -5.89916   2.22461
Br    0.39799  -6.37496   2.39469
Br   -1.94341  -4.50082   3.60177
C    -1.79075  -5.35648   0.89601
C    -2.42760  -5.52506  -0.16120
C    -0.91862  -3.96710  -1.71028
C    -0.23229  -5.04035  -2.50574
O     0.72688  -5.64531  -2.01783
N    -0.76824  -5.30263  -3.71017
C    -0.36494  -6.43157  -4.51932
C    -1.91095  -3.00833  -2.25599
O    -2.32439  -3.03717  -3.40394
O    -2.28403  -2.10096  -1.35751
C    -3.26888  -1.14176  -1.77523
N    -0.36345  -3.63862  -0.56812
C    -0.34376  -3.73658   0.63187
C     0.32072  -2.88386   1.67575
C    -0.42906  -1.60611   1.92121
O     1.36102  -3.20366   2.20087
H    -5.77477  -4.84464  -4.16949
H    -4.20572  -4.07695  -4.53525
H    -4.65008  -5.62177  -5.32292
H    -3.61670  -6.67059  -3.54983
H    -5.35156  -7.16169  -0.82629
H    -5.13376  -5.76192   0.22954
H    -5.46303  -8.00140   1.30524
H    -3.88248  -8.52300   0.75406
H    -4.29714  -7.64292   3.20055
H    -4.20067  -6.02904   2.52305
H    -2.07682  -7.46992   3.55720
H    -1.94121  -7.94824   1.86539
H    -1.53565  -4.70634  -4.01631
H    -1.25188  -6.89509  -4.97501
H     0.14400  -7.17211  -3.88980
H     0.32322  -6.13310  -5.32837
H    -3.43769  -0.49297  -0.90862
H    -4.19729  -1.65611  -2.05710
H    -2.89420  -0.55425  -2.62533
H    -1.51567  -1.76968   1.91974
H    -0.19754  -0.91865   1.08921
H    -0.09751  -1.16090   2.86876
