27
Generated by autodE on: 2022-05-28. E = -1183.364066 Ha
C     3.58663   2.20439  -0.59779
O     2.35573   1.62503  -0.14424
C     2.32250   0.28673  -0.03397
O     3.26939  -0.43342  -0.28914
C     1.00412  -0.16359   0.42014
C     0.46337  -1.39779   0.36898
Cl    1.10803  -2.87186  -0.20644
C    -0.99802  -1.23760   0.76918
O    -0.91644  -0.15466   1.69350
C    -0.16049   0.73155   0.84763
C    -1.10747   0.87455  -0.37859
C    -2.35690   1.72263  -0.11272
C    -2.68092   2.73828  -1.19917
N    -3.47984   0.75322   0.00892
N    -3.13937  -0.41928  -0.19324
C    -1.69261  -0.55693  -0.45154
H     4.40365   1.96632   0.09875
H     3.41753   3.28683  -0.62865
H     3.84196   1.83036  -1.59997
H    -1.50498  -2.11367   1.18609
H     0.09701   1.65805   1.36978
H    -0.56694   1.18775  -1.27863
H    -2.30263   2.23806   0.85911
H    -3.63347   3.24806  -0.99048
H    -1.88525   3.49641  -1.25054
H    -2.75513   2.24613  -2.18188
H    -1.54352  -1.12072  -1.38006
