8
Generated by autodE on: 2022-05-28. E = -188.144530 Ha
C    -1.75136  -0.12050   0.05650
C    -0.45553   0.63347  -0.02581
N     0.68326   0.02752  -0.02044
N     1.69070  -0.52284  -0.01617
H    -2.32125   0.15884   0.95953
H    -1.57390  -1.20535   0.08920
H    -2.39229   0.09398  -0.81572
H    -0.40453   1.72310  -0.08980
