27
Generated by autodE on: 2022-05-28. E = -1183.267907 Ha. Imaginary frequency = -386.8 cm-1
C     3.74473   2.17616  -0.50632
O     2.47411   1.60762  -0.16903
C     2.43301   0.26959  -0.01485
O     3.41145  -0.44524  -0.14916
C     1.08650  -0.17757   0.32333
C     0.58103  -1.42810   0.36064
Cl    1.32242  -2.93639   0.05245
C    -0.93756  -1.27178   0.59363
O    -0.91786  -0.11127   1.43815
C    -0.16015   0.71427   0.53079
C    -1.04184   0.60835  -0.73658
C    -2.77041   1.92829  -0.05828
C    -3.07915   2.86500  -1.19092
N    -3.57242   0.88614   0.14898
N    -3.76081  -0.24993   0.11533
C    -1.50571  -0.68617  -0.71048
H     4.48330   1.96812   0.28190
H     3.57990   3.25643  -0.59396
H     4.11019   1.77001  -1.46101
H    -1.44627  -2.12495   1.05446
H     0.02748   1.71025   0.94255
H    -0.87696   1.22368  -1.62039
H    -2.39338   2.35434   0.87793
H    -3.88200   3.57915  -0.94097
H    -2.17255   3.44743  -1.41259
H    -3.36929   2.31003  -2.09555
H    -1.86743  -1.29320  -1.53751
