30
Generated by autodE on: 2022-06-17. E = -800.277021 Ha
C     0.77791   3.75332  -0.86211
O     0.76796   2.33513  -0.62975
C    -0.09961   1.87379   0.27001
O    -0.86086   2.57363   0.90020
C    -0.04544   0.33919   0.33497
C     1.41124  -0.06824   0.54450
O     2.10414   0.42240   1.41215
O     1.80907  -1.02214  -0.28711
C     3.14631  -1.52360  -0.12032
C    -0.90561  -0.22216   1.49818
C    -2.18590  -0.69203   0.80963
C    -1.68288  -1.17881  -0.56255
C    -2.76965  -1.27864  -1.63226
C    -1.04587  -2.51507  -0.40592
N    -0.52467  -3.54746  -0.30084
N    -0.68014  -0.15925  -0.88979
H     1.55275   3.92977  -1.61659
H     1.01924   4.29008   0.06634
H    -0.20172   4.08431  -1.23549
H     3.87578  -0.71660  -0.27687
H     3.27009  -2.30509  -0.87807
H     3.26960  -1.94338   0.88787
H    -0.38750  -1.07429   1.96069
H    -1.07437   0.53646   2.27054
H    -2.86805   0.15176   0.63133
H    -2.72156  -1.47255   1.36529
H    -2.33824  -1.57647  -2.59952
H    -3.52741  -2.02182  -1.34328
H    -3.25126  -0.29692  -1.74412
H    -0.00732  -0.45403  -1.59382
