24
Generated by autodE on: 2022-07-27. E = -721.582060 Ha
C     1.09005   3.95191   0.63935
O     1.08845   2.52172   0.54452
C    -0.05648   1.95118   0.15936
O    -1.06883   2.59978  -0.10525
C    -0.01635   0.49846   0.04752
N    -1.21484   0.00335  -0.39023
C    -1.79975  -1.17324  -0.48897
C    -3.16886  -1.27583  -1.08688
C    -1.22343  -2.36876   0.02190
N    -0.90264  -3.39899   0.46140
C     1.18799  -0.30620   0.21035
O     2.15762  -0.01708   0.89258
O     1.13666  -1.42447  -0.53785
C     2.18718  -2.37966  -0.36141
H     2.09672   4.22820   0.97420
H     0.87894   4.40664  -0.33956
H     0.34151   4.29414   1.36873
H    -1.82713   0.79304  -0.65336
H    -3.13584  -1.87019  -2.01485
H    -3.85640  -1.78280  -0.39184
H    -3.56093  -0.27666  -1.32262
H     3.15202  -1.95398  -0.67262
H     1.92916  -3.23465  -0.99682
H     2.24923  -2.69690   0.68967
