24
Generated by autodE on: 2022-06-17. E = -721.582319 Ha
C    -1.23234   3.22550   0.28214
O    -1.13476   1.88986  -0.22617
C    -0.22232   1.09806   0.35621
O     0.52986   1.50387   1.23595
C    -0.22109  -0.27445  -0.12205
N     0.79481  -1.12296   0.23306
C     2.03855  -1.00563   0.64789
C     2.81380  -2.23056   1.02355
C     2.73841   0.23240   0.66719
N     3.46743   1.14096   0.64230
C    -1.31484  -1.01426  -0.74661
O    -1.25394  -2.23161  -0.92260
O    -2.37781  -0.28967  -1.10044
C    -3.46546  -1.00225  -1.70383
H    -1.49526   3.21893   1.35019
H    -2.02659   3.70978  -0.29812
H    -0.28271   3.76369   0.14656
H     0.49130  -2.09962   0.08836
H     2.22484  -3.13653   0.82208
H     3.75986  -2.27714   0.46214
H     3.06476  -2.20513   2.09690
H    -3.87186  -1.75198  -1.00944
H    -4.22693  -0.24716  -1.93140
H    -3.13828  -1.50103  -2.62771
