30
Generated by autodE on: 2022-06-17. E = -800.199038 Ha. Imaginary frequency = -406.2 cm-1
C     0.74905   4.04347   0.60176
O     0.82750   2.61087   0.59721
C     0.01373   1.97149  -0.24227
O    -0.76098   2.54328  -0.99822
C     0.09266   0.50298  -0.15528
C     1.28362  -0.15668   0.42231
O     1.81285   0.13585   1.47850
O     1.74246  -1.12694  -0.38180
C     2.78857  -1.95684   0.13732
C    -1.41489   0.15112   1.59888
C    -2.30006  -0.75907   1.05212
C    -1.34004  -1.29071  -0.94098
C    -2.44465  -1.61838  -1.90762
C    -0.67577  -2.42196  -0.36064
N    -0.23767  -3.39904   0.09638
N    -0.69135  -0.11239  -1.09625
H     1.46887   4.38029   1.35648
H     1.01591   4.44797  -0.38521
H    -0.26522   4.37235   0.87030
H     3.69132  -1.36134   0.33460
H     2.99043  -2.70694  -0.63578
H     2.46191  -2.44856   1.06496
H    -0.65600  -0.16414   2.31752
H    -1.64967   1.21732   1.58973
H    -3.21441  -0.40772   0.56725
H    -2.30995  -1.79419   1.39840
H    -2.04597  -2.08326  -2.82471
H    -3.14588  -2.32647  -1.44497
H    -2.98871  -0.70208  -2.17895
H    -1.23265   0.57708  -1.62818
