33
Generated by autodE on: 2022-06-17. E = -690.286963 Ha
C     4.07811  -0.03184   0.25302
O     2.90093  -0.50457  -0.41899
C     1.75347   0.12518  -0.14352
O     1.67971   1.07765   0.60836
C     0.57430  -0.52399  -0.85829
C    -0.03549  -1.63474   0.02606
C    -0.72063  -2.71400  -0.80977
C    -0.96571  -0.81175   0.94921
C    -2.04912  -1.58776   1.68212
C    -1.47179   0.37019   0.04108
C    -2.92797   0.25015  -0.43713
C    -1.37357   1.63235   0.81720
N    -1.32445   2.64082   1.39147
N    -0.54530   0.36202  -1.09978
C    -0.30406   1.59232  -1.82343
H     4.27082   1.01982  -0.00366
H     3.96237  -0.12580   1.34263
H     4.90237  -0.66431  -0.09638
H     0.95621  -0.93161  -1.80685
H     0.74790  -2.10993   0.63590
H    -1.50235  -2.29419  -1.45933
H    -1.18512  -3.47555  -0.16602
H     0.01654  -3.22283  -1.44994
H    -0.31380  -0.35672   1.70807
H    -1.58999  -2.37047   2.30611
H    -2.75760  -2.07513   0.99851
H    -2.62113  -0.92301   2.34778
H    -3.15732   1.06144  -1.14361
H    -3.63278   0.31841   0.40358
H    -3.06995  -0.71155  -0.94705
H     0.24036   1.36527  -2.75301
H     0.28665   2.33813  -1.25673
H    -1.26020   2.05955  -2.10373
