12
Generated by autodE on: 2022-06-17. E = -157.299004 Ha
C     1.60157  -0.44274  -0.25063
C     0.61267   0.67836  -0.13301
C    -0.70749   0.58668   0.09324
C    -1.51898  -0.65954   0.28531
H     2.39778  -0.34436   0.50840
H     2.10927  -0.41580  -1.23104
H     1.14345  -1.43531  -0.13389
H     1.03396   1.68520  -0.24818
H    -1.27445   1.52482   0.14707
H    -2.03031  -0.64711   1.26412
H    -0.91718  -1.57786   0.22950
H    -2.31681  -0.72909  -0.47521
