21
Generated by autodE on: 2022-07-27. E = -532.914780 Ha
C     3.61956  -0.44558   0.20330
O     2.42124  -0.90524  -0.42156
C     1.29541  -0.18078  -0.16877
O     1.30687   0.79300   0.58153
C     0.19688  -0.67839  -0.94613
N    -1.06099  -0.17235  -0.90048
C    -1.85192  -0.27447  -2.14431
C    -1.64979   0.42895   0.15006
C    -2.91179   1.22787  -0.00001
C    -1.14945   0.20085   1.44854
N    -0.83405  -0.01359   2.55333
H     3.88632   0.56443  -0.14474
H     3.51242  -0.42779   1.29863
H     4.40523  -1.15571  -0.08294
H     0.40673  -1.36886  -1.75867
H    -1.32882  -0.94085  -2.83620
H    -1.93742   0.72249  -2.59724
H    -2.85253  -0.66468  -1.92557
H    -2.82543   1.97167  -0.80758
H    -3.12162   1.76024   0.93670
H    -3.78112   0.58650  -0.22473
