33
Generated by autodE on: 2022-06-17. E = -690.200797 Ha. Imaginary frequency = -386.2 cm-1
C     3.96576  -0.07722   0.18753
O     2.71397  -0.45907  -0.38932
C     1.71199   0.44656  -0.30973
O     1.85722   1.53570   0.22402
C     0.51729  -0.06162  -0.97740
C    -0.11578  -1.72055   0.41469
C    -0.01111  -2.83702  -0.59872
C    -1.33636  -1.30177   0.94226
C    -2.66497  -1.79926   0.44571
C    -1.34302   0.99157   0.10100
C    -2.74305   1.53703   0.00011
C    -0.67225   1.32089   1.31158
N    -0.27353   1.59267   2.37564
N    -0.65766   0.64120  -1.02991
C    -1.45163   0.47123  -2.25713
H     4.36811   0.81965  -0.30701
H     3.85482   0.12397   1.26351
H     4.64336  -0.92546   0.03300
H     0.74345  -0.61520  -1.88744
H     0.75403  -1.60238   1.06681
H    -0.70958  -2.70484  -1.43855
H    -0.24903  -3.80975  -0.12957
H     1.00565  -2.90909  -1.01175
H    -1.32914  -0.90274   1.95786
H    -2.88654  -2.79978   0.86516
H    -2.69347  -1.90344  -0.64865
H    -3.49101  -1.13831   0.74805
H    -2.76405   2.52074  -0.50071
H    -3.15659   1.66423   1.00900
H    -3.40432   0.85720  -0.55447
H    -0.77399   0.22106  -3.07915
H    -1.96630   1.40805  -2.50310
H    -2.19555  -0.32861  -2.14088
