24
Generated by autodE on: 2022-12-30. E = -630.223222 Ha
C    -3.79389  -0.46325   0.36606
N    -2.43089  -0.06417   0.08838
C    -1.42275  -0.96833   0.03005
O    -1.62926  -2.18794   0.18556
C    -0.08398  -0.44870  -0.22600
C     0.40747   0.81502  -0.25570
O    -0.26945   1.95054  -0.11715
C     0.44088   3.19602  -0.18134
C     1.94881   0.66149  -0.36414
C     2.42399   0.11147   1.00028
C     1.95462  -1.13920   1.03999
C     1.18289  -1.32434  -0.28698
O     2.00533  -0.52396  -1.16850
H    -4.16193  -1.18549  -0.38049
H    -3.88912  -0.93421   1.35892
H    -4.43748   0.42488   0.33866
H    -2.20715   0.92131  -0.00414
H    -0.30377   3.97934   0.00217
H     0.88719   3.33550  -1.17716
H     1.22037   3.23842   0.59386
H     2.50816   1.49344  -0.80219
H     2.96831   0.68391   1.75008
H     2.01569  -1.87923   1.83746
H     1.04786  -2.34603  -0.65562
