31
Generated by autodE on: 2023-01-01. E = -651.925709 Ha
C     0.49736  -5.42934  -0.31509
N     0.36558  -4.08235  -0.82105
C     0.21218  -3.01533   0.04087
O    -0.00377  -3.24823   1.25655
C     0.29915  -1.73744  -0.60728
N     0.14221  -0.50128  -0.02207
C    -0.08775  -0.45653   1.43820
C     0.27283   0.63913  -0.71160
C     0.72582   0.55507  -2.13195
C    -0.09183   1.95254  -0.15373
C    -1.30795   2.17052   0.52970
C    -1.64826   3.43919   1.00038
C    -0.78987   4.52435   0.79567
C     0.41157   4.32873   0.10561
C     0.75352   3.06235  -0.36847
H     0.50521  -6.13072  -1.16027
H     1.42369  -5.58374   0.27014
H    -0.34917  -5.68688   0.33878
H     0.72484  -3.89414  -1.75011
H     0.44715  -1.73429  -1.68149
H    -1.10970  -0.77647   1.67289
H     0.60698  -1.15147   1.91417
H     0.08555   0.55605   1.80547
H     0.87545   1.55441  -2.55553
H     1.66403  -0.02172  -2.22510
H    -0.02383   0.03515  -2.75860
H    -2.00362   1.34244   0.67404
H    -2.59793   3.58259   1.52159
H    -1.05857   5.51684   1.16468
H     1.09056   5.16842  -0.06139
H     1.69819   2.92248  -0.89814
