54
Generated by autodE on: 2022-06-12. E = -2259.285399 Ha
C    -1.65119   0.40307   3.83475
N    -1.41709   0.04669   2.45039
C    -1.52907   0.94102   1.46048
O    -1.92868   2.09634   1.63085
C    -1.18837   0.38816   0.04686
C    -2.51152  -0.14172  -0.50088
C    -2.72308  -1.50277  -0.75471
C    -3.95149  -1.94984  -1.25465
C    -4.98599  -1.04502  -1.49909
C    -4.78591   0.31508  -1.23731
C    -3.56112   0.76161  -0.74088
N    -0.16769  -0.66458   0.15331
C     1.13672   0.01563   0.17866
C     1.44754   0.45556   1.63196
O     1.61227   1.60235   1.99045
O     1.55624  -0.59293   2.44419
C     1.90627  -0.32622   3.81136
C     2.29186  -0.89235  -0.23002
C     2.11825  -2.24805  -0.52739
C     3.21366  -3.03601  -0.89941
C     4.49285  -2.48100  -0.96717
C     4.67500  -1.12850  -0.65664
C     3.58320  -0.34218  -0.28922
C     0.98275   1.27693  -0.72176
C     1.31994   1.04042  -2.22514
O     0.14784   0.36203  -2.69866
C    -0.78723   1.39036  -2.33991
C    -0.14324   2.61840  -2.97455
Cl   -0.99941   4.03980  -3.40818
C     1.17670   2.39937  -2.90344
Cl    2.48529   3.46189  -3.21996
C    -0.55482   1.52609  -0.80561
H    -1.05392   1.28353   4.12009
H    -2.71220   0.64247   4.00981
H    -1.36972  -0.44263   4.47333
H    -0.97505  -0.83738   2.21228
H    -1.93671  -2.23173  -0.55997
H    -4.09577  -3.01513  -1.44956
H    -5.94425  -1.39564  -1.88927
H    -5.58785   1.03369  -1.42183
H    -3.41535   1.82358  -0.53786
H    -0.20480  -1.21948  -0.70139
H     1.86979  -1.29331   4.32524
H     2.92052   0.09540   3.86386
H     1.19363   0.37511   4.26440
H     1.13220  -2.70858  -0.46605
H     3.06054  -4.09218  -1.13310
H     5.34621  -3.09830  -1.25716
H     5.67170  -0.68363  -0.70217
H     3.73362   0.71371  -0.05117
H     1.54844   2.12130  -0.31806
H     2.23187   0.48172  -2.44988
H    -1.80103   1.15050  -2.66982
H    -0.87216   2.50738  -0.44048
