41
Generated by autodE on: 2022-07-27. E = -1032.425386 Ha
C    -2.16450   2.55958   2.86545
N    -2.09593   1.56198   1.81673
C    -1.00526   1.43226   1.03936
O    -0.01272   2.16363   1.16965
C    -1.06582   0.37192  -0.00996
N     0.06342  -0.24460  -0.37739
C     1.30224  -0.34834   0.17903
C     1.50761  -0.18335   1.61184
O     2.57781   0.09106   2.14121
O     0.39821  -0.43055   2.34131
C     0.47103  -0.14989   3.74083
C     2.40414  -0.67239  -0.72428
C     2.30958  -0.37978  -2.10551
C     3.32395  -0.74365  -2.99319
C     4.47463  -1.38531  -2.52877
C     4.59374  -1.66471  -1.16086
C     3.57860  -1.32103  -0.27213
C    -2.28228   0.04955  -0.75237
C    -2.45981  -1.23436  -1.31833
C    -3.58875  -1.53014  -2.08269
C    -4.57742  -0.56347  -2.28731
C    -4.42202   0.70900  -1.72348
C    -3.29195   1.01669  -0.97002
H    -1.97318   3.56679   2.46495
H    -3.16695   2.53823   3.30982
H    -1.42105   2.36029   3.65488
H    -2.87329   0.92257   1.68982
H    -0.00792  -0.71425  -1.28637
H    -0.53124  -0.34112   4.14179
H     0.75108   0.90030   3.90861
H     1.20446  -0.80441   4.23445
H     1.44751   0.16939  -2.49082
H     3.21962  -0.50235  -4.05389
H     5.27418  -1.65887  -3.22084
H     5.48686  -2.16864  -0.78293
H     3.68634  -1.56584   0.78377
H    -1.72564  -2.02071  -1.12991
H    -3.70445  -2.53129  -2.50442
H    -5.46592  -0.79982  -2.87693
H    -5.18434   1.47502  -1.88357
H    -3.17623   2.02303  -0.56679
