13
Generated by autodE on: 2022-06-12. E = -1226.769449 Ha
Cl    1.61718  -1.48962   0.76177
C     0.38148  -0.62761  -0.05422
C     0.18687   0.69090  -0.17589
Cl    1.10218   2.00210   0.44031
C    -1.20269   0.82484  -0.84554
C    -2.25179   0.36286   0.19494
C    -2.05747  -0.95303   0.31577
C    -0.89243  -1.27238  -0.65245
O    -1.16202  -0.32861  -1.70471
H    -1.39104   1.75520  -1.39131
H    -2.93976   1.02179   0.72294
H    -2.54118  -1.67637   0.97078
H    -0.79026  -2.29935  -1.01789
