54
Generated by autodE on: 2022-06-12. E = -2259.189385 Ha. Imaginary frequency = -291.5 cm-1
C    -2.44778   0.83609   3.94297
N    -2.18569   0.22215   2.65597
C    -1.15074   0.60711   1.88635
O    -0.36851   1.49327   2.25097
C    -1.03422  -0.13086   0.56916
C    -2.26581  -0.50867  -0.14732
C    -2.40474  -1.74463  -0.81058
C    -3.55169  -2.03280  -1.55319
C    -4.59141  -1.10347  -1.64021
C    -4.47319   0.12240  -0.97404
C    -3.32731   0.41791  -0.23926
N     0.08538  -0.83551   0.27228
C     1.38597  -0.54970   0.55582
C     1.75424  -0.13702   1.93660
O     2.63997   0.64333   2.23501
O     1.04918  -0.81992   2.85275
C     1.25343  -0.45835   4.22518
C     2.43204  -1.19932  -0.25821
C     2.12152  -2.16054  -1.24526
C     3.11613  -2.71394  -2.05150
C     4.45247  -2.33324  -1.89871
C     4.77848  -1.39281  -0.91660
C     3.78899  -0.83567  -0.10750
C     1.14571   1.63864  -0.53242
C     1.56277   1.19845  -1.95051
O     0.41929   0.40058  -2.32114
C    -0.55747   1.43197  -2.07421
C     0.01849   2.54937  -2.97187
Cl   -0.91554   3.79109  -3.69851
C     1.34757   2.40391  -2.89171
Cl    2.60634   3.40541  -3.48754
C    -0.21766   1.80050  -0.61780
H    -1.68496   0.55517   4.68744
H    -3.42975   0.50369   4.30125
H    -2.44968   1.93279   3.85552
H    -2.79925  -0.51575   2.32756
H    -1.62644  -2.50628  -0.72927
H    -3.63624  -2.99947  -2.05513
H    -5.48958  -1.33285  -2.21785
H    -5.27704   0.85964  -1.03647
H    -3.23804   1.38919   0.25031
H    -0.00691  -1.28686  -0.63578
H     0.55358  -1.07067   4.80545
H     1.03950   0.60885   4.37257
H     2.28784  -0.67355   4.52979
H     1.09836  -2.50827  -1.39969
H     2.83907  -3.45582  -2.80423
H     5.22841  -2.76576  -2.53407
H     5.81691  -1.08163  -0.77890
H     4.06293  -0.09231   0.63876
H     1.82788   2.08518   0.18715
H     2.50656   0.66075  -2.07583
H    -1.57649   1.10650  -2.30526
H    -0.84644   2.43918  -0.00527
