23
Generated by autodE on: 2022-06-18. E = -351.521383 Ha
C    -3.71005  -0.67375  -0.28179
C    -2.57397   0.05676  -0.24238
C    -2.60332   1.55827  -0.37138
C    -1.28393  -0.60843  -0.07092
C    -0.07708   0.00862  -0.01113
C     1.17427  -0.70106   0.16013
C     2.41633  -0.15967   0.23614
C     3.62627  -1.03267   0.41400
C     2.70655   1.31221   0.15562
H    -3.68573  -1.76384  -0.18767
H    -4.68827  -0.20169  -0.40889
H    -2.00709   1.89455  -1.23589
H    -2.16729   2.04232   0.51834
H    -3.63118   1.92707  -0.49609
H    -1.31649  -1.70125   0.01518
H    -0.03587   1.09804  -0.09496
H     1.09334  -1.79230   0.23471
H     4.17365  -0.76049   1.33439
H     3.36523  -2.09982   0.46704
H     4.33888  -0.88812  -0.41796
H     3.39245   1.52117  -0.68434
H     3.23013   1.64826   1.06809
H     1.81022   1.93264   0.02778
