41
Generated by autodE on: 2022-06-18. E = -957.241776 Ha. Imaginary frequency = -343.8 cm-1
C    -0.46898  -0.21534  -3.15248
C     0.11533   0.74075  -2.39376
C     1.28767   1.54572  -2.89760
C    -0.31673   1.05366  -1.03660
C    -1.47982   0.58529  -0.42758
C    -1.94085   1.12518   0.85510
C    -3.18810   1.02597   1.37115
C    -4.34396   0.35014   0.68932
C    -3.50752   1.62488   2.71163
C    -0.83411  -1.36531   0.26229
C    -1.89673  -2.12663   0.76290
N    -2.84816  -2.69830   1.11628
N     0.37875  -1.46088   0.26354
C     1.47710  -0.73831   0.05226
C     2.41275  -1.19217  -0.99629
C     1.99590  -2.42410  -1.75407
O     3.43755  -0.57773  -1.27538
C     1.72285   0.31491   1.06206
O     1.05104   0.44051   2.07336
O     2.74479   1.11677   0.75365
C     3.02088   2.17900   1.67800
H    -0.10777  -0.42423  -4.16258
H    -1.30907  -0.81423  -2.79239
H     1.62666   1.19861  -3.88375
H     2.13067   1.48192  -2.19280
H     1.01844   2.61286  -2.97670
H     0.26997   1.80672  -0.50432
H    -2.22417   0.10824  -1.06948
H    -1.17794   1.64256   1.44397
H    -5.16060   1.07568   0.52711
H    -4.08782  -0.09916  -0.27851
H    -4.75731  -0.44247   1.33537
H    -3.86655   0.84568   3.40746
H    -4.32621   2.36125   2.62668
H    -2.63587   2.12042   3.16336
H     1.06333  -2.20268  -2.30346
H     2.78274  -2.69633  -2.46865
H     1.79043  -3.26522  -1.07527
H     3.24295   1.77616   2.67642
H     3.89552   2.70346   1.27641
H     2.16321   2.86448   1.74151
