34
Generated by autodE on: 2022-07-27. E = -674.978329 Ha
C     2.38439   3.21636  -0.73187
C     1.92089   1.79974  -0.75420
C     2.54439   0.81940  -1.67297
N     0.92728   1.45283   0.04854
C     0.17507   0.28881   0.14247
C    -0.19725  -0.44018  -1.06458
C    -0.38777  -1.84607  -1.05451
C    -0.78597  -2.53725  -2.19680
C    -1.00429  -1.86088  -3.40483
C    -0.81434  -0.47499  -3.44144
C    -0.41967   0.22235  -2.29925
C    -0.32942  -0.00569   1.47081
C     0.29219   0.54094   2.62860
C    -0.22775   0.33397   3.90756
C    -1.37147  -0.44694   4.09928
C    -1.99246  -1.01102   2.97406
C    -1.49208  -0.79573   1.69397
H     2.07903   3.74475  -1.65453
H     1.96543   3.76934   0.12350
H     3.48483   3.26413  -0.69136
H     2.54399  -0.18792  -1.22521
H     1.99482   0.73077  -2.63032
H     3.57396   1.12765  -1.90585
H     0.69377   2.16330   0.74936
H    -0.19860  -2.40201  -0.13452
H    -0.91517  -3.62201  -2.14776
H    -1.31173  -2.40512  -4.30064
H    -0.98393   0.07540  -4.37097
H    -0.30470   1.30702  -2.35374
H     1.21674   1.11362   2.52785
H     0.28385   0.77476   4.76780
H    -1.76977  -0.61909   5.10165
H    -2.89358  -1.61842   3.09728
H    -2.02141  -1.22374   0.84212
