17
Generated by autodE on: 2022-06-02. E = -513.467403 Ha
C    -2.92355   0.87188   1.18704
N    -3.04418  -0.32245   0.37158
C    -2.07595  -0.93253  -0.33121
O    -2.25262  -1.93446  -1.03190
C    -0.73321  -0.35805  -0.24018
C     0.41622   0.03275  -0.23053
C     1.76828   0.55748  -0.26891
O     2.14660   1.36126  -1.09608
O     2.51899   0.05127   0.70613
C     3.88236   0.50898   0.76789
H    -1.86633   1.13102   1.32258
H    -3.43545   1.72702   0.71826
H    -3.36719   0.69941   2.17844
H    -3.96745  -0.74031   0.26910
H     3.91120   1.59631   0.92672
H     4.41081   0.25707  -0.16248
H     4.33361  -0.01401   1.61820
