51
Generated by autodE on: 2022-06-02. E = -1188.463507 Ha. Imaginary frequency = -233.9 cm-1
C     4.78024  -0.06942  -0.11447
N     4.34368   0.82255   0.94188
C     3.08631   0.98503   1.39607
O     2.79505   1.80608   2.28206
C     2.02941   0.16807   0.80116
C     1.25874  -0.80567   0.87608
C     0.48807  -1.99279   0.91372
O     0.54498  -2.88756   0.07054
O    -0.31843  -2.05902   1.99690
C    -1.20854  -3.17507   2.07916
C    -0.92862   0.59386  -0.22105
C    -1.32038  -0.03718  -1.49259
C    -1.73386  -1.38364  -1.57098
C    -2.13029  -1.94090  -2.78625
C    -2.13203  -1.17104  -3.95493
C    -1.74321   0.17062  -3.89084
C    -1.34880   0.73229  -2.67644
C    -1.74104   0.48692   0.99483
C    -1.23613   0.93649   2.23947
C    -1.99135   0.82317   3.40498
C    -3.26372   0.24215   3.37384
C    -3.77754  -0.20821   2.15256
C    -3.03404  -0.08145   0.98039
N     0.01380   1.57520  -0.21922
C     1.26347   1.59423  -0.76313
C     1.98582   2.90266  -0.64078
C     1.62311   0.73055  -1.93015
H     5.66405  -0.63907   0.20961
H     3.98060  -0.78048  -0.35374
H     5.04166   0.48554  -1.02972
H     5.02990   1.45294   1.35108
H    -0.64972  -4.12169   2.12327
H    -1.89417  -3.19857   1.21956
H    -1.78113  -3.03187   3.00338
H    -1.73087  -2.00353  -0.67760
H    -2.43541  -2.98957  -2.82105
H    -2.44185  -1.61138  -4.90547
H    -1.75690   0.78966  -4.79122
H    -1.07588   1.78781  -2.63342
H    -0.22068   1.33092   2.31175
H    -1.57104   1.17129   4.35162
H    -3.84810   0.14068   4.29108
H    -4.77403  -0.65460   2.10946
H    -3.46603  -0.41988   0.03907
H    -0.07899   2.24417   0.54676
H     3.06940   2.74922  -0.73251
H     1.77834   3.39473   0.32064
H     1.68105   3.58559  -1.45440
H     1.24704  -0.29377  -1.82708
H     1.21188   1.15208  -2.86501
H     2.71627   0.70161  -2.02875
