42
Generated by autodE on: 2022-06-18. E = -829.130310 Ha
C    -1.30152   2.43680  -2.65272
C    -1.03649   2.49287  -1.17811
O    -0.62009   3.49468  -0.61392
C    -1.27727   1.25685  -0.36273
N    -1.65077   0.15381  -0.89368
C    -1.79963  -0.85501   0.16656
C    -3.29620  -0.99795   0.47486
C    -1.26582  -2.22578  -0.26888
C    -0.53476  -2.33637  -1.57292
O    -1.44708  -3.19052   0.45811
C    -0.94197  -0.28006   1.39427
C    -1.45347  -0.71331   2.76779
C     0.49605  -0.73452   1.23513
C     1.50602  -0.04415   0.66969
C     2.84789  -0.57530   0.49756
C     3.89685   0.05282  -0.08668
C     3.84345   1.44189  -0.65928
C     5.23153  -0.62772  -0.20850
C    -1.09231   1.22973   1.12832
H    -1.07943   3.41019  -3.10817
H    -0.68142   1.65319  -3.11533
H    -2.35148   2.16160  -2.83762
H    -3.70551  -0.05578   0.86596
H    -3.84090  -1.25697  -0.44551
H    -3.45967  -1.79556   1.21020
H    -0.13221  -3.35081  -1.69208
H     0.27472  -1.59233  -1.61900
H    -1.22566  -2.10572  -2.39931
H    -2.48311  -0.37387   2.94704
H    -1.42356  -1.80869   2.86671
H    -0.81338  -0.28396   3.55442
H     0.69956  -1.75078   1.59177
H     1.32329   0.96804   0.30033
H     3.00880  -1.59194   0.87575
H     4.09371   1.42120  -1.73476
H     4.60561   2.08159  -0.18051
H     2.86747   1.93137  -0.54605
H     5.22136  -1.64189   0.21715
H     6.01761  -0.04249   0.30166
H     5.54086  -0.69640  -1.26691
H    -0.24899   1.83720   1.47921
H    -2.00262   1.62771   1.60785
