23
Generated by autodE on: 2022-06-18. E = -351.521385 Ha
C    -3.59923   0.10840  -1.15431
C    -2.57021   0.02377  -0.28267
C    -2.80804  -0.11709   1.19920
C    -1.19376   0.06936  -0.77206
C    -0.07849  -0.00139  -0.00274
C     1.26620   0.04944  -0.53923
C     2.42745  -0.01243   0.16032
C     3.75371   0.05449  -0.54288
C     2.51205  -0.14932   1.65408
H    -4.63862   0.07729  -0.81589
H    -3.42279   0.21103  -2.22951
H    -3.88248  -0.13936   1.42975
H    -2.35164   0.71814   1.75604
H    -2.35079  -1.04171   1.58902
H    -1.07463   0.17080  -1.85754
H    -0.18999  -0.10174   1.08024
H     1.33726   0.14980  -1.62909
H     3.64272   0.15547  -1.63251
H     4.35083   0.90696  -0.17198
H     4.35289  -0.85026  -0.33491
H     3.06892   0.70169   2.08467
H     1.53393  -0.20345   2.14901
H     3.08367  -1.05526   1.92270
