19
Generated by autodE on: 2022-06-18. E = -477.529304 Ha
C    -2.99800   0.68768   0.81503
C    -2.49064  -0.56506   0.14599
O    -3.20891  -1.51220  -0.18419
C    -1.08982  -0.56716  -0.07677
N     0.07866  -0.55429  -0.26916
C     1.35874  -0.32850  -0.37959
C     2.27228  -1.33637  -1.01085
C     1.79303   0.96739   0.15984
C     3.26239   1.28010   0.05537
O     0.99004   1.75382   0.67068
H    -3.74918   1.15582   0.15881
H    -2.19153   1.40460   1.02387
H    -3.49704   0.40601   1.75611
H     1.70792  -2.22320  -1.32872
H     3.05563  -1.65833  -0.30555
H     2.78009  -0.91371  -1.89311
H     3.85742   0.51710   0.58277
H     3.58556   1.26504  -0.99805
H     3.46013   2.26866   0.48928
