42
Generated by autodE on: 2022-06-18. E = -829.045593 Ha. Imaginary frequency = -317.4 cm-1
C    -3.54578   2.96758  -1.50147
C    -2.11350   2.66465  -1.16411
O    -1.18150   3.43824  -1.33718
C    -1.87119   1.36802  -0.52252
N    -2.06881   0.20557  -0.80078
C    -1.71313  -1.06017  -0.70566
C    -2.74070  -2.11221  -0.41553
C    -0.31500  -1.34605  -0.99765
C     0.14369  -2.76694  -0.79124
O     0.47520  -0.46332  -1.36339
C    -0.58375   0.46301   1.94626
C    -1.71972   0.00156   2.82581
C     0.56881  -0.40649   1.87401
C     1.72629  -0.18020   1.19121
C     2.78994  -1.15145   1.09825
C     3.87696  -1.09327   0.28506
C     4.13814   0.01947  -0.68960
C     4.90265  -2.19066   0.28736
C    -0.69114   1.66995   1.27666
H    -3.61657   3.98077  -1.91881
H    -3.92360   2.22762  -2.22517
H    -4.16771   2.88645  -0.59527
H    -3.72646  -1.65366  -0.26036
H    -2.47385  -2.66440   0.50145
H    -2.82365  -2.85223  -1.22837
H     0.11511  -3.00687   0.28550
H    -0.50983  -3.48951  -1.30306
H     1.17460  -2.87463  -1.15223
H    -1.40629  -0.05856   3.88306
H    -2.05486  -1.01034   2.54070
H    -2.58370   0.67857   2.76266
H     0.47449  -1.36121   2.40565
H     1.85048   0.76893   0.66550
H     2.67869  -2.04057   1.73105
H     4.23786  -0.38928  -1.71079
H     5.09835   0.51719  -0.46457
H     3.34941   0.78192  -0.70814
H     5.90514  -1.79080   0.52544
H     4.98906  -2.65088  -0.71362
H     4.66352  -2.98139   1.01375
H     0.15313   2.08356   0.71850
H    -1.43462   2.39449   1.61563
