11
Generated by autodE on: 2022-05-31. E = -285.489531 Ha
C     2.62467  -0.28637   0.17715
C     1.42932  -0.08487   0.15957
C    -0.00228   0.20512   0.17905
O    -0.46582   1.10558   0.88723
N    -0.75309  -0.57300  -0.62088
C    -2.19036  -0.40026  -0.70693
H     3.68732  -0.46853   0.19159
H    -0.29912  -1.29493  -1.17182
H    -2.44831   0.60979  -1.06256
H    -2.66703  -0.54556   0.27533
H    -2.59359  -1.13851  -1.40999
