34
Generated by autodE on: 2022-07-27. E = -914.853942 Ha
C     2.35156  -3.21954  -0.94301
N     2.24194  -1.85066  -0.47276
C     1.08922  -1.38672   0.03657
O     0.11053  -2.08218   0.29798
C     1.11362   0.07840   0.41338
C     2.38390   0.60096   1.06354
C     2.63446   0.17244   2.47201
O     3.12410   1.30373   0.40346
N     0.06513   0.84256   0.30946
C     0.12101   2.21025   0.88070
C    -1.03789   0.51868  -0.52151
C    -0.73824   0.05200  -1.84787
C    -1.86512  -0.13979  -2.83816
O     0.43055  -0.18719  -2.21145
C    -2.36416   0.66647   0.02648
O    -3.42589   0.58967  -0.58532
O    -2.34252   0.86417   1.37280
C    -3.60361   1.07942   2.00755
H     1.97930  -3.91202  -0.17601
H     1.76524  -3.37316  -1.86444
H     3.40558  -3.44263  -1.14808
H     2.91772  -1.17229  -0.81521
H     2.61351  -0.92735   2.53971
H     1.81800   0.54673   3.11216
H     3.60095   0.56126   2.81833
H     0.82324   2.80280   0.28057
H    -0.87176   2.65909   0.82905
H     0.45698   2.16888   1.92370
H    -1.42508  -0.40388  -3.80898
H    -2.48831   0.75935  -2.93372
H    -2.52826  -0.95237  -2.50333
H    -4.25649   0.20129   1.89310
H    -3.38398   1.24449   3.06953
H    -4.11141   1.96133   1.58874
