45
Generated by autodE on: 2022-05-31. E = -1200.316549 Ha. Imaginary frequency = -431.8 cm-1
C    -2.65954  -3.41078  -0.59820
N    -1.65511  -2.64211   0.10709
C    -1.96689  -1.49937   0.75474
O    -3.12423  -1.06911   0.87790
C    -0.82151  -0.83019   1.33845
C     0.16942  -0.42092   1.96493
C     1.47110   0.42319   0.59015
C     2.71875   0.91554   1.33434
C     3.17584   0.12043   2.52047
O     3.33879   1.87999   0.92447
C     1.84924  -0.86347  -0.21207
O     1.17012  -1.88111  -0.28218
N     3.06170  -0.76188  -0.78576
C     3.53101  -1.78501  -1.70295
N     0.60414   1.33767   0.06730
C     0.62563   2.70757   0.62357
C    -0.49123   0.91477  -0.67378
C    -0.26927   0.15670  -1.91077
C    -1.39406  -0.61315  -2.55757
O     0.84848   0.13746  -2.43661
C    -1.82919   1.45593  -0.38736
O    -2.75937   1.45644  -1.18163
O    -1.97365   1.90570   0.87102
C    -3.26864   2.39087   1.23631
H    -3.50391  -3.64354   0.06674
H    -2.20992  -4.35120  -0.94068
H    -3.05578  -2.87010  -1.47411
H    -0.66673  -2.78094  -0.09825
H     0.67086  -0.27504   2.91221
H     4.25006   0.28812   2.67120
H     2.95939  -0.95207   2.41927
H     2.63965   0.48729   3.41268
H     3.48828   0.15750  -0.85536
H     3.46423  -2.77514  -1.23201
H     2.92493  -1.79410  -2.62364
H     4.57695  -1.57790  -1.95991
H     1.58177   3.16867   0.36170
H    -0.18079   3.29041   0.17711
H     0.51170   2.68525   1.71627
H    -1.70871  -0.08175  -3.47041
H    -0.98493  -1.58732  -2.86446
H    -2.27320  -0.74938  -1.92336
H    -3.58346   3.21004   0.57367
H    -4.00454   1.57587   1.18971
H    -3.17343   2.75368   2.26661
