42
Generated by autodE on: 2022-06-18. E = -920.479556 Ha
C    -4.00892   2.56717   1.53776
N    -2.98368   1.82973   0.82634
C    -2.91044   0.49293   0.88371
O    -3.68300  -0.20787   1.54416
C    -1.74812  -0.13735   0.13579
C    -0.53932  -0.50451   1.04259
C     0.23181  -1.54234   0.16931
C     0.30775  -2.90938   0.86956
C     1.62170  -1.13899  -0.25681
C     2.36399  -0.11845   0.21148
C     3.71773   0.15835  -0.24436
C     4.52840   1.16080   0.17095
C     5.91041   1.31969  -0.39933
C     4.15334   2.18484   1.20555
C    -0.73280  -1.61478  -1.06904
C    -0.58357  -2.71652  -2.07389
N    -2.02910  -1.44447  -0.47431
O    -0.51068  -0.29694  -1.78919
C    -1.11093   0.62634  -1.03584
O    -1.06884   1.81761  -1.26475
H    -5.01418   2.35013   1.14091
H    -4.00537   2.30775   2.60733
H    -3.81274   3.64102   1.43231
H    -2.34797   2.31388   0.19320
H    -0.93090  -0.96595   1.95748
H     0.03660   0.38603   1.31468
H     0.84551  -2.80170   1.82347
H     0.85117  -3.64292   0.25530
H    -0.69769  -3.30111   1.08030
H     2.06773  -1.79864  -1.01152
H     1.94596   0.54454   0.97317
H     4.10791  -0.52615  -1.00727
H     6.02925   2.31304  -0.86818
H     6.14038   0.55069  -1.15145
H     6.67236   1.26602   0.39898
H     4.86685   2.15628   2.04801
H     4.22361   3.20154   0.78011
H     3.14170   2.05399   1.61084
H    -1.28673  -2.56320  -2.90565
H     0.43917  -2.73843  -2.47440
H    -0.79996  -3.68410  -1.60241
H    -2.75180  -1.37089  -1.19495
