23
Generated by autodE on: 2022-06-18. E = -351.521384 Ha
C     3.39143  -0.30147   1.64556
C     2.50116  -0.11881   0.64561
C     2.95442   0.13521  -0.76943
C     1.06760  -0.16595   0.92656
C     0.07717  -0.00115   0.01397
C    -1.33186  -0.05799   0.34562
C    -2.37789   0.09318  -0.50565
C    -2.24307   0.35225  -1.97939
C    -3.79286   0.00830  -0.00710
H     3.05989  -0.48578   2.67212
H     4.46923  -0.27192   1.46288
H     4.05121   0.14410  -0.84055
H     2.57537   1.10189  -1.14071
H     2.56903  -0.63761  -1.45514
H     0.79012  -0.35244   1.97105
H     0.34604   0.18511  -1.02924
H    -1.56258  -0.24393   1.40158
H    -1.20314   0.40539  -2.32634
H    -2.74396   1.29928  -2.24778
H    -2.75711  -0.43825  -2.55430
H    -4.34080   0.94307  -0.22350
H    -3.84170  -0.18119   1.07523
H    -4.34407  -0.79527  -0.52794
