40
Generated by autodE on: 2022-06-02. E = -1167.818402 Ha
C     3.60805  -0.66251  -2.38092
N     2.41226  -0.09938  -1.78557
C     2.07615  -0.34480  -0.51511
O     2.73764  -1.05178   0.24712
C     0.78585   0.34988  -0.03749
C     1.13558   1.61250   0.79149
O     0.38069   2.55303   0.88789
O     2.31769   1.53327   1.37762
C     2.70223   2.63949   2.21472
N    -0.03143   0.79884  -1.16134
C    -1.25861   0.50713  -0.95474
C    -2.31654   0.88459  -1.96164
C    -1.88697   1.65076  -3.17493
O    -3.47356   0.55409  -1.75760
C    -1.58003  -0.24992   0.31405
C    -2.49065   0.51322   1.26906
C    -2.03709  -1.71754  -0.03672
C    -2.20970  -2.46729   1.27211
C    -0.96892  -2.69483   1.72070
C    -0.04562  -2.09458   0.67096
O    -0.79905  -2.25508  -0.53536
C    -0.13670  -0.54456   0.85464
F     0.03714  -0.21140   2.19016
H     3.67873  -0.32523  -3.42167
H     3.57901  -1.76340  -2.36345
H     4.50991  -0.33833  -1.83857
H     1.78338   0.47773  -2.33635
H     2.74348   3.56498   1.62384
H     1.98287   2.75547   3.03744
H     3.69444   2.38724   2.60446
H    -1.14177   1.07011  -3.74092
H    -2.75965   1.86141  -3.80563
H    -1.39807   2.59027  -2.87428
H    -3.49855   0.60035   0.84153
H    -2.55783  -0.01109   2.23190
H    -2.09808   1.52336   1.45146
H    -2.83648  -1.78299  -0.78043
H    -3.16263  -2.67788   1.75643
H    -0.64790  -3.13642   2.66325
H     0.96475  -2.49686   0.58316
