23
Generated by autodE on: 2022-06-24. E = -351.521383 Ha
C     3.74174  -0.54221  -0.07067
C     2.56822   0.01305   0.30394
C     2.51781   1.13103   1.31369
C     1.31518  -0.46903  -0.27359
C     0.07697   0.00398   0.01613
C    -1.13523  -0.51009  -0.58807
C    -2.40515  -0.09132  -0.35648
C    -2.77591   1.00980   0.59604
C    -3.56605  -0.72798  -1.06703
H     3.77518  -1.35383  -0.80409
H     4.69375  -0.20052   0.34501
H     3.52500   1.39562   1.66530
H     1.90830   0.84952   2.18848
H     2.05255   2.03383   0.88417
H     1.40613  -1.28317  -1.00278
H    -0.02175   0.81561   0.74213
H    -0.99587  -1.32472  -1.30905
H    -3.31916   1.80957   0.06224
H    -1.91549   1.46247   1.10535
H    -3.47080   0.63040   1.36604
H    -4.28329  -1.15341  -0.34219
H    -3.24705  -1.52783  -1.75135
H    -4.13002   0.02431  -1.64746
