28
Generated by autodE on: 2022-07-27. E = -873.287806 Ha
C    -3.68097   2.38050   0.72695
O    -2.47324   1.67264   0.42867
C    -1.40290   1.95213   1.20271
O    -1.46294   2.69035   2.17549
N    -0.26328   1.26702   0.87850
N    -0.09539   0.81002  -0.35543
C    -0.55176   1.58820  -1.53881
C     0.61874  -0.29022  -0.49154
C     1.04100  -0.87340  -1.77965
O     0.79250  -0.44987  -2.89118
O     1.73613  -1.99124  -1.54367
C     2.21063  -2.71369  -2.69037
C     1.06567  -0.95808   0.78293
O     2.17069  -0.80726   1.25211
O     0.11443  -1.73230   1.28580
C     0.41180  -2.39706   2.52798
H    -4.42303   2.03176  -0.00124
H    -4.02048   2.15580   1.74854
H    -3.53115   3.46544   0.62336
H    -1.35046   1.04050  -2.05042
H     0.29987   1.71052  -2.21316
H    -0.90545   2.56054  -1.19277
H     2.74560  -3.58403  -2.29479
H     1.36454  -3.03399  -3.31500
H     2.88869  -2.08303  -3.28278
H     1.28717  -3.05084   2.40943
H    -0.47801  -2.98790   2.77153
H     0.60634  -1.65406   3.31443
