51
Generated by autodE on: 2022-06-24. E = -1224.798299 Ha. Imaginary frequency = -240.7 cm-1
C     4.55991  -2.08204  -1.58085
C     3.87173  -1.48742  -0.57901
C     4.08898  -1.87217   0.86202
C     2.86291  -0.48368  -0.88750
C     2.07327   0.14778   0.02300
C     1.02920   1.06212  -0.34903
C     0.37236   1.94905   0.53390
C     0.02144   3.31853   0.00186
C     0.63357   1.85676   2.01386
N    -1.62148   1.17326   0.50593
C    -2.68885   1.81706   1.05534
O    -2.58152   2.74293   1.85093
O    -3.88191   1.28926   0.70476
C    -5.03759   1.88151   1.30876
N    -1.74325   0.45221  -0.60934
C    -2.28548   1.09528  -1.81348
C    -0.86531  -0.57899  -0.64080
C    -0.31877  -1.10616  -1.90434
O    -0.43378  -0.58546  -3.00183
O     0.38410  -2.22527  -1.70516
C     1.04703  -2.78623  -2.84574
C    -0.72500  -1.36646   0.62959
O     0.28011  -1.92563   1.01689
O    -1.88993  -1.43796   1.28685
C    -1.86811  -2.09122   2.56173
H     5.30583  -2.85612  -1.38060
H     4.38806  -1.80581  -2.62549
H     4.38654  -0.99994   1.46728
H     4.86778  -2.64176   0.95752
H     3.15676  -2.26057   1.30388
H     2.71110  -0.26237  -1.94990
H     2.21618  -0.05461   1.08529
H     0.95116   1.29107  -1.41616
H    -0.25113   3.28067  -1.06247
H     0.90884   3.97000   0.09941
H    -0.79478   3.78587   0.56848
H     1.62405   2.28715   2.24360
H    -0.11924   2.42249   2.57687
H     0.62551   0.81659   2.36753
H    -5.89818   1.32559   0.91777
H    -4.99498   1.78827   2.40378
H    -5.11937   2.94381   1.03596
H    -2.70760   0.33685  -2.47990
H    -1.49100   1.64297  -2.33829
H    -3.06935   1.79048  -1.49876
H     1.67385  -3.59708  -2.45813
H     0.30774  -3.18074  -3.55824
H     1.66875  -2.03062  -3.34413
H    -1.56022  -3.14150   2.45606
H    -2.89286  -2.03270   2.94621
H    -1.17668  -1.57470   3.24398
