27
Generated by autodE on: 2022-06-16. E = -557.462478 Ha
C     2.98293   1.31516  -0.66574
O     2.13261   0.19582  -0.37807
C     1.00754   0.44897   0.29433
O     0.71510   1.55897   0.69258
C     0.12311  -0.79054   0.44444
C     0.95724  -2.06385   0.55854
N    -0.69236  -0.60540   1.66434
C    -1.88496  -0.30772   1.31854
C    -2.18007  -0.20728  -0.15425
C    -2.47589   1.24130  -0.56661
C    -0.90141  -0.85922  -0.74590
C    -0.41942  -0.32356  -2.08844
H     3.32630   1.78723   0.26577
H     3.83563   0.91132  -1.22359
H     2.44605   2.05679  -1.27490
H     0.29034  -2.91325   0.76773
H     1.69244  -1.98841   1.37368
H     1.49443  -2.26672  -0.37805
H    -2.65340  -0.10964   2.07833
H    -3.06818  -0.81499  -0.39575
H    -2.69867   1.30602  -1.64212
H    -3.35374   1.62103  -0.01992
H    -1.62619   1.90275  -0.34588
H    -1.11710  -1.93192  -0.86839
H     0.48006  -0.86043  -2.42525
H    -0.17584   0.74910  -2.04948
H    -1.19666  -0.45909  -2.85654
