15
Generated by autodE on: 2022-06-16. E = -400.061037 Ha
C    -2.36179   1.79727   0.03819
N    -1.66829   0.80814   0.08113
C    -0.87235  -0.20649  -0.01758
C    -1.39479  -1.60561  -0.17562
C     0.56175   0.10757   0.02368
O     1.03575   1.22908   0.12817
O     1.30925  -1.00564  -0.07357
C     2.73000  -0.82812  -0.04812
H    -2.79349   2.28747   0.92432
H    -2.49275  -1.60279  -0.20034
H    -1.06401  -2.24630   0.65742
H    -1.02195  -2.05895  -1.10815
H     3.16244  -1.83195  -0.13391
H     3.05800  -0.20190  -0.89096
H     3.04569  -0.35960   0.89578
