12
Generated by autodE on: 2022-06-16. E = -157.299004 Ha
C     1.55900  -0.60578   0.15908
C     0.68757   0.61195   0.07995
C    -0.64678   0.65677  -0.06140
C    -1.59454  -0.49966  -0.17518
H     0.99298  -1.54539   0.08577
H     2.12436  -0.62244   1.10769
H     2.31430  -0.60009  -0.64664
H     1.21841   1.57014   0.14724
H    -1.11488   1.64863  -0.10073
H    -2.35154  -0.46627   0.62824
H    -1.09074  -1.47556  -0.12530
H    -2.15552  -0.45467  -1.12549
