49
Generated by autodE on: 2022-06-04. E = -1464.991188 Ha
C    -1.62548  -1.89757  -1.96058
N    -0.71400  -1.02921  -1.23549
C     0.45609  -1.66647  -0.66776
C     0.14089  -2.89152   0.13201
N    -0.14206  -3.84724   0.72424
C     1.34983  -2.11383  -1.76228
N     2.03087  -2.45939  -2.63375
C     1.12102  -0.58931   0.25472
C     2.27866   0.19857  -0.43012
O     1.55574   1.05513  -1.31529
C     0.77510   1.71235  -0.30444
C     1.84344   2.14053   0.69147
C     2.78118   1.19064   0.61309
C     3.98134   0.98864   1.46029
F     3.87096  -0.13708   2.20387
F     5.10220   0.84540   0.72319
F     4.18775   2.00840   2.30781
C     0.03707   0.51924   0.39397
C    -1.25179  -0.01882  -0.29293
C    -1.95363   1.11192  -1.04559
C    -2.74495   2.02493  -0.33194
C    -3.31325   3.12841  -0.97113
C    -3.10379   3.33396  -2.33908
C    -2.31205   2.43276  -3.05475
C    -1.73505   1.33340  -2.41054
C    -2.20206  -0.68905   0.72257
C    -3.52788  -0.96505   0.34525
C    -4.39136  -1.65869   1.19423
C    -3.94663  -2.09463   2.44653
C    -2.63277  -1.82811   2.83496
C    -1.77043  -1.13243   1.98121
H    -1.07544  -2.41184  -2.76341
H    -2.41338  -1.29461  -2.42795
H    -2.10585  -2.66159  -1.32219
H     1.44247  -1.04226   1.19727
H     3.03225  -0.39674  -0.95422
H     0.14306   2.49499  -0.72900
H     1.77681   2.98213   1.37996
H    -0.17810   0.78705   1.43111
H    -2.91424   1.87449   0.73586
H    -3.92394   3.83017  -0.39800
H    -3.55323   4.19352  -2.84186
H    -2.13508   2.58554  -4.12214
H    -1.09573   0.65166  -2.96985
H    -3.89467  -0.62487  -0.62381
H    -5.41772  -1.85683   0.87620
H    -4.62119  -2.63563   3.11427
H    -2.26923  -2.16100   3.80995
H    -0.75056  -0.95046   2.31949
