33
Generated by autodE on: 2022-06-04. E = -820.210109 Ha
C     0.40421  -2.71834  -0.10819
N    -0.31696  -1.43378  -0.15365
C     0.29298  -0.27451   0.05615
C    -0.46929   0.93664   0.41701
C    -0.15782   2.16629  -0.18788
C    -0.83623   3.32735   0.18647
C    -1.81368   3.27661   1.18344
C    -2.11687   2.05704   1.80279
C    -1.45971   0.89184   1.41785
C     1.75461  -0.14941  -0.08176
C     2.43595  -0.69987  -1.18488
C     3.81215  -0.52202  -1.31977
C     4.52696   0.19694  -0.35593
C     3.85698   0.75289   0.73941
C     2.47850   0.59406   0.87083
C    -1.69436  -1.53239  -0.46843
C    -2.33676  -0.51564  -1.18886
N    -2.88839   0.31752  -1.80076
C    -2.43681  -2.65050  -0.06071
N    -3.08054  -3.57610   0.26111
H     1.37508  -2.58835   0.37566
H    -0.19781  -3.41944   0.48472
H     0.52423  -3.12137  -1.12194
H     0.60990   2.20627  -0.96235
H    -0.59636   4.27507  -0.30040
H    -2.33977   4.18622   1.48187
H    -2.87098   2.01612   2.59182
H    -1.70346  -0.05574   1.90098
H     1.88353  -1.24425  -1.95201
H     4.32819  -0.94178  -2.18593
H     5.60579   0.33100  -0.46273
H     4.41102   1.31688   1.49284
H     1.95542   1.03331   1.72175
