33
Generated by autodE on: 2022-07-27. E = -820.210132 Ha
C     1.11594  -0.55418  -2.45048
N     0.82106  -0.69194  -1.01304
C    -0.01376   0.12425  -0.38299
C    -0.35437   1.44235  -0.94617
C    -1.69051   1.88657  -0.91046
C    -2.02699   3.14410  -1.40856
C    -1.03371   3.98470  -1.92285
C     0.29937   3.56098  -1.93992
C     0.64019   2.29722  -1.45973
C    -0.61989  -0.24843   0.90979
C    -1.18091  -1.52677   1.09957
C    -1.82267  -1.83770   2.29494
C    -1.89608  -0.89038   3.32456
C    -1.33634   0.37711   3.14581
C    -0.71104   0.70223   1.94093
C     1.52058  -1.73363  -0.35601
C     1.90284  -1.59886   0.98602
N     2.24027  -1.49921   2.10365
C     1.83544  -2.91785  -1.03878
N     2.11786  -3.91544  -1.58628
H     2.12673  -0.15104  -2.59274
H     1.06500  -1.55444  -2.90006
H     0.37127   0.08707  -2.92775
H    -2.46446   1.23362  -0.50401
H    -3.06852   3.47200  -1.39167
H    -1.29776   4.97381  -2.30387
H     1.08002   4.22119  -2.32394
H     1.68461   1.98232  -1.45905
H    -1.12348  -2.27039   0.30309
H    -2.27032  -2.82519   2.42655
H    -2.39264  -1.14257   4.26428
H    -1.39002   1.11926   3.94526
H    -0.27983   1.69435   1.79814
