16
Generated by autodE on: 2022-06-04. E = -644.713703 Ha
F     1.63440   1.40044   0.47760
C     1.49685   0.06784   0.28648
F     2.01026  -0.54478   1.36642
F     2.28796  -0.24526  -0.76283
C     0.08257  -0.29084   0.04452
C    -0.74642  -1.03530   0.77902
C    -2.11528  -0.88729   0.07459
C    -2.58308   0.56877   0.30886
C    -1.75216   1.31813  -0.42079
C    -0.79137   0.30738  -1.08771
O    -1.68253  -0.80044  -1.29804
H    -0.55768  -1.57451   1.70612
H    -2.84560  -1.68780   0.23082
H    -3.38393   0.86696   0.98437
H    -1.68320   2.40122  -0.51348
H    -0.27579   0.61428  -2.00369
