49
Generated by autodE on: 2022-06-04. E = -1464.903184 Ha. Imaginary frequency = -330.3 cm-1
C    -0.98608  -1.06715  -2.58166
N    -1.04410  -1.06464  -1.10973
C    -0.21658  -2.00495  -0.48703
C    -0.51691  -2.65820   0.74472
N    -0.62682  -3.24631   1.74581
C     0.67579  -2.75380  -1.30254
N     1.46648  -3.34959  -1.91998
C     1.17474  -0.51540   0.60523
C     2.25323  -0.17868  -0.43945
O     1.52117   0.69904  -1.30778
C     1.09625   1.61091  -0.27424
C     2.45593   1.96319   0.36203
C     3.18272   0.84777   0.24618
C     4.52167   0.53265   0.79070
F     4.45172  -0.45114   1.71790
F     5.36759   0.08946  -0.16440
F     5.10444   1.59155   1.37697
C     0.39148   0.62988   0.67985
C    -1.62579  -0.05346  -0.38459
C    -2.14924   1.15174  -1.08677
C    -3.40612   1.68782  -0.73296
C    -3.90260   2.83497  -1.35238
C    -3.15827   3.48197  -2.34193
C    -1.91336   2.96296  -2.71051
C    -1.41615   1.81529  -2.09571
C    -2.39866  -0.46809   0.83407
C    -3.20442  -1.61732   0.74476
C    -4.03159  -1.99778   1.80242
C    -4.08083  -1.22673   2.96584
C    -3.31500  -0.05868   3.05060
C    -2.49186   0.32251   1.99147
H    -0.03553  -0.66500  -2.95407
H    -1.10081  -2.10229  -2.92562
H    -1.81925  -0.48336  -2.97988
H     1.36272  -1.21880   1.41397
H     2.72928  -1.00194  -0.98120
H     0.51730   2.44843  -0.67189
H     2.70811   2.90313   0.85108
H    -0.10706   0.96610   1.58262
H    -4.01278   1.19530   0.02519
H    -4.88195   3.22081  -1.06047
H    -3.54563   4.38205  -2.82470
H    -1.31890   3.45677  -3.48245
H    -0.44355   1.44023  -2.40088
H    -3.18300  -2.22069  -0.16427
H    -4.64124  -2.89975   1.71300
H    -4.72260  -1.52488   3.79808
H    -3.36339   0.56511   3.94598
H    -1.93635   1.25712   2.06166
