41
Generated by autodE on: 2022-10-06. E = -874.207326 Ha
C     3.41613  -2.28088   0.17939
N     2.33075  -1.35281   0.43377
C     1.59580  -0.82552  -0.54416
O     1.76125  -1.00445  -1.75202
C     0.47379   0.12858  -0.06329
C     0.97726   1.59595  -0.12086
O     0.50260   2.35502  -0.96903
N     1.90194   1.94383   0.77033
C     2.43443   3.29641   0.82313
N    -0.08686  -0.23476   1.21390
C    -1.26720  -1.08372   0.92888
C    -2.19029  -1.12116   2.14135
C    -0.82946  -2.51199   0.58071
C    -1.90545  -0.36670  -0.32116
N    -2.65454  -1.25790  -1.15566
N    -2.50960   0.88283   0.09178
C    -3.15565   1.67556  -0.94927
N    -0.63679   0.03699  -1.07661
H     3.95530  -1.98055  -0.72868
H     3.04064  -3.30812   0.03936
H     4.10862  -2.26995   1.03057
H     1.97404  -1.23390   1.37985
H     2.25124   1.25307   1.42734
H     2.94769   3.55150  -0.11646
H     1.62779   4.02638   0.98683
H     3.14940   3.35862   1.65135
H    -0.41021   0.60706   1.69039
H    -3.13989  -1.61160   1.88069
H    -1.71562  -1.70217   2.94476
H    -2.40274  -0.11555   2.53203
H    -0.25902  -2.58480  -0.35530
H    -0.20812  -2.90182   1.39835
H    -1.70712  -3.16335   0.47545
H    -3.25893  -0.74044  -1.79381
H    -3.25895  -1.83802  -0.57290
H    -3.18547   0.67783   0.82467
H    -2.42205   2.04161  -1.68415
H    -3.60880   2.56090  -0.48252
H    -3.95395   1.14421  -1.50099
H    -0.39006  -0.64188  -1.80996
H    -0.69895   0.97658  -1.51497
