13
Generated by autodE on: 2022-10-06. E = -245.298490 Ha
C    -1.50627   0.68291  -1.08746
N    -0.72301  -0.38153  -0.48303
C     0.36400  -0.17559   0.26449
N     0.78020   1.06592   0.52408
N     1.04502  -1.21798   0.75068
H    -1.93819   1.34919  -0.32363
H    -0.89914   1.28499  -1.78239
H    -2.32769   0.22673  -1.65095
H    -0.99395  -1.34464  -0.65441
H     1.59729   1.21727   1.10573
H     0.26308   1.87465   0.20130
H     0.73882  -2.16677   0.56490
H     1.85444  -1.07179   1.34369
