41
Generated by autodE on: 2022-10-06. E = -874.165683 Ha. Imaginary frequency = -497.0 cm-1
C     3.18129  -2.56744   0.58496
N     2.20874  -1.53772   0.90112
C     1.74727  -0.70193  -0.03950
O     2.22176  -0.63815  -1.18186
C     0.70448   0.27508   0.42113
C     1.00424   1.74668   0.37693
O     0.32410   2.52530   1.06027
N     1.99182   2.12764  -0.44213
C     2.32391   3.52612  -0.62972
N    -0.39990  -0.01043   1.08309
C    -1.30284  -1.05642   0.87120
C    -2.49081  -0.98574   1.80070
C    -0.72548  -2.45014   0.73634
C    -1.92910  -0.56558  -0.92522
N    -2.53715  -1.80078  -1.31118
N    -2.90845   0.43197  -0.81436
C    -2.57693   1.82205  -0.57169
N    -0.76105  -0.18298  -1.56775
H     4.04684  -2.13084   0.06684
H     2.74213  -3.34069  -0.06708
H     3.51766  -3.03512   1.51776
H     1.75970  -1.55287   1.81149
H     2.41001   1.41574  -1.03974
H     2.49362   4.01503   0.34065
H     1.51436   4.06660  -1.14746
H     3.23808   3.59534  -1.23096
H    -0.81307   0.84664   1.47703
H    -3.32123  -1.56338   1.37130
H    -2.24713  -1.42740   2.78089
H    -2.82574   0.04988   1.96156
H    -0.04760  -2.56939  -0.11937
H    -0.17750  -2.71881   1.65310
H    -1.54810  -3.16582   0.62413
H    -1.83603  -2.52322  -1.46586
H    -3.02094  -1.65091  -2.19849
H    -3.68878   0.10517  -0.25138
H    -2.10170   2.02148   0.40539
H    -3.50332   2.41087  -0.61391
H    -1.91009   2.21551  -1.35365
H    -0.62426   0.77809  -1.85975
H    -0.27155  -0.87855  -2.11981
