64
Generated by autodE on: 2022-06-14. E = -1951.187814 Ha
C    -0.70885   0.37378   7.85983
N    -2.14954   0.51809   7.77429
C    -2.82978   1.29615   8.62795
O    -2.31596   1.92234   9.55294
C    -4.38007   1.23328   8.45335
C    -5.00456   2.37491   9.17040
N    -5.56952   3.18593   9.77708
C    -4.86061   1.17242   7.00291
C    -5.56937   0.04025   6.79874
C    -6.08341  -0.53795   5.47730
C    -7.24973  -1.55255   5.69186
C    -7.37575  -2.76696   4.81444
O    -8.14495  -1.24725   6.45955
C    -4.86857  -1.21379   4.77692
C    -4.90346  -1.45920   3.29081
O    -3.87108  -1.49507   5.41791
C    -6.75673   0.49272   4.49967
C    -7.76186   1.48317   5.08314
C    -7.19712   2.57183   6.00542
C    -5.82712   3.12460   5.60312
C    -4.55440   2.31047   6.02597
C    -3.67276   1.87567   4.85313
Cl   -3.45444   3.56402   6.89597
C    -5.69110  -0.75091   8.11219
C    -7.13988  -0.63318   8.71736
C    -7.78737  -1.83912   9.32512
O    -7.60167   0.48567   8.83713
C    -5.20813  -2.20609   7.90144
O    -5.89053  -3.01667   7.26340
N    -4.01318  -2.50389   8.41801
C    -3.34512  -3.75398   8.11972
N    -4.79558  -0.04068   9.01275
C    -4.93003  -0.15676  10.45508
H    -0.21426   1.35468   7.78356
H    -0.36878  -0.26080   7.03244
H    -0.40761  -0.09027   8.81281
H    -2.66112  -0.01671   7.07604
H    -6.42797  -3.30765   4.70708
H    -7.71597  -2.45788   3.81313
H    -8.13717  -3.42713   5.24838
H    -4.24858  -2.30783   3.05323
H    -4.48668  -0.56274   2.80067
H    -5.90516  -1.61371   2.87904
H    -7.26685  -0.08958   3.72023
H    -5.98185   1.04953   3.96378
H    -8.57577   0.94957   5.59487
H    -8.21972   1.97643   4.20944
H    -7.16988   2.22732   7.04732
H    -7.90242   3.41772   5.99316
H    -5.72967   4.11989   6.04995
H    -5.78032   3.27376   4.51276
H    -2.74878   1.40569   5.21118
H    -3.41705   2.75434   4.24555
H    -4.18297   1.16346   4.19955
H    -8.75794  -1.55727   9.75269
H    -7.12847  -2.22266  10.12245
H    -7.90010  -2.64469   8.59085
H    -3.49316  -1.72600   8.81615
H    -2.47170  -3.86048   8.77481
H    -3.01116  -3.78509   7.06879
H    -4.02490  -4.60093   8.28881
H    -4.02097   0.23488  10.93270
H    -5.02439  -1.21608  10.72857
H    -5.79913   0.39145  10.86205
