33
Generated by autodE on: 2022-06-14. E = -1116.550948 Ha
C    -2.03917   1.28272  -3.05801
C    -1.81645   1.21880  -1.57691
O    -2.70311   1.41143  -0.76761
C    -0.37830   0.90224  -1.08482
C     0.41898   2.23536  -1.26554
C     0.35326   3.22315  -0.14102
O     1.02892   2.44011  -2.29469
C    -0.37203   0.46889   0.30819
C    -0.05207  -0.18065   1.28022
C     0.64478  -1.18911   2.06262
C     1.10317  -0.73962   3.44135
Cl   -0.55433  -2.60833   2.31651
C     1.80513  -1.70389   1.18197
C     1.48016  -1.99402  -0.29573
C     1.58093  -0.82653  -1.31944
C     0.27629  -0.24789  -1.90757
H    -3.01614   1.73783  -3.26503
H    -1.23514   1.84136  -3.55811
H    -2.02354   0.25938  -3.46744
H     0.98097   2.85886   0.68854
H    -0.67426   3.30085   0.24589
H     0.72228   4.20083  -0.47636
H     1.63377  -1.55680   3.95047
H     0.24882  -0.42606   4.05689
H     1.79072   0.11349   3.33125
H     2.19725  -2.61087   1.66740
H     2.60090  -0.94199   1.24282
H     2.19611  -2.76642  -0.61555
H     0.48808  -2.47091  -0.35991
H     2.15033  -1.20468  -2.18240
H     2.19490  -0.01041  -0.90237
H    -0.46556  -1.05370  -2.01961
H     0.47932   0.14908  -2.91087
