31
Generated by autodE on: 2022-06-14. E = -834.553555 Ha
C     3.11591   2.50429  -0.48397
N     2.57817   1.19626  -0.80310
C     1.61057   0.63976  -0.05204
O     1.11944   1.21324   0.92802
C     1.20552  -0.74494  -0.42834
C     2.14307  -1.54574  -1.11423
N     2.96491  -2.14454  -1.69131
N     0.04216  -1.29731   0.01109
C     0.00097  -2.78028   0.06922
C    -1.05019  -0.57275   0.33475
C    -2.10295  -1.16609   1.18172
C    -3.52281  -0.66745   1.04717
O    -1.83857  -2.06063   1.98528
C    -1.20807   0.78974  -0.28230
O    -0.84833   1.00276  -1.44741
N    -1.79575   1.73174   0.47178
C    -1.94744   3.09062  -0.00990
H     3.92667   2.73330  -1.18549
H     3.51384   2.52895   0.54204
H     2.34153   3.28412  -0.56722
H     2.92564   0.70751  -1.62204
H     0.57798  -3.16701  -0.77730
H    -1.02861  -3.13032  -0.01440
H     0.45033  -3.12304   1.00824
H    -4.19171  -1.51144   1.26681
H    -3.72194   0.11460   1.79791
H    -3.74498  -0.25800   0.05340
H    -1.94046   1.54846   1.45935
H    -2.47263   3.10409  -0.97588
H    -2.53110   3.66356   0.72093
H    -0.96591   3.57586  -0.14513
