31
Generated by autodE on: 2022-07-27. E = -834.548160 Ha
C     1.98326   0.10853  -2.69110
N     1.09693   0.68981  -1.69914
C     1.50261   0.89821  -0.43443
O     2.68546   0.84396  -0.08160
C     0.45047   1.31437   0.55150
C     0.86019   2.33927   1.43321
N     1.25400   3.19157   2.12772
N    -0.79325   0.78114   0.64736
C    -1.79432   1.57570   1.40656
C    -1.13771  -0.42913   0.14004
C    -2.53853  -0.74701  -0.18291
C    -2.89424  -2.19504  -0.41215
O    -3.39960   0.12960  -0.27042
C    -0.08080  -1.45475  -0.17039
O    -0.06945  -2.05062  -1.25204
N     0.79851  -1.70561   0.82163
C     1.99792  -2.49747   0.62230
H     2.93095   0.66280  -2.73066
H     2.20274  -0.94673  -2.45987
H     1.49710   0.16192  -3.67254
H     0.10367   0.70940  -1.90911
H    -1.26981   2.07957   2.22529
H    -2.55680   0.91363   1.81827
H    -2.24568   2.32105   0.74207
H    -2.55151  -2.50991  -1.40888
H    -2.41255  -2.85543   0.32454
H    -3.98588  -2.29678  -0.35723
H     0.73803  -1.15587   1.67390
H     2.25925  -3.01064   1.55749
H     2.84656  -1.86331   0.31667
H     1.81503  -3.24670  -0.15703
