64
Generated by autodE on: 2022-06-14. E = -1951.086456 Ha. Imaginary frequency = -281.3 cm-1
C    -1.41433  -0.72233   6.35620
N    -2.50517  -0.01834   6.99778
C    -2.56851   0.21259   8.30792
O    -1.65018   0.01720   9.10729
C    -3.86170   0.86319   8.86413
C    -3.44125   2.01033   9.62041
N    -2.99133   2.92798  10.17654
C    -5.08961   1.39355   6.98875
C    -5.70020   0.34538   6.67500
C    -6.57920  -0.33488   5.67899
C    -7.98742  -0.55300   6.26820
C    -8.99502  -1.37334   5.51018
O    -8.30414   0.01103   7.30077
C    -5.93567  -1.62488   5.09316
C    -4.65791  -1.46540   4.30987
O    -6.50263  -2.69909   5.14232
C    -6.78129   0.58494   4.41055
C    -7.68690   1.80855   4.55751
C    -7.27091   2.85531   5.59612
C    -5.79628   3.28339   5.51880
C    -4.91965   2.84044   6.70366
C    -3.47982   3.28736   6.50690
Cl   -5.61154   3.76700   8.19046
C    -5.32846  -0.99920   8.72739
C    -6.63135  -1.65394   9.06514
C    -6.91598  -2.98942   8.42395
O    -7.44831  -1.17399   9.84184
C    -4.28393  -1.98565   8.23003
O    -4.28281  -2.44703   7.08915
N    -3.42975  -2.38859   9.19254
C    -2.28466  -3.23987   8.93928
N    -4.90101   0.12423   9.38267
C    -5.81675   0.85008  10.28866
H    -0.50908  -0.63364   6.96906
H    -1.65988  -1.78844   6.22818
H    -1.22561  -0.28297   5.36698
H    -3.35166   0.15817   6.46429
H    -9.99001  -0.93376   5.66745
H    -8.77268  -1.46197   4.44068
H    -8.99642  -2.38797   5.93771
H    -4.09241  -0.56080   4.56040
H    -4.03818  -2.35887   4.45170
H    -4.92967  -1.40434   3.24293
H    -7.18668  -0.04723   3.60600
H    -5.78154   0.89846   4.08435
H    -8.72344   1.49404   4.76096
H    -7.71033   2.28365   3.56183
H    -7.49266   2.48438   6.60653
H    -7.91353   3.73847   5.45925
H    -5.70674   4.37728   5.45532
H    -5.31614   2.88622   4.60993
H    -2.84626   3.06528   7.37279
H    -3.44791   4.36951   6.31818
H    -3.06657   2.76804   5.62862
H    -6.76881  -2.97835   7.33878
H    -6.23404  -3.75029   8.83781
H    -7.94913  -3.26802   8.66568
H    -3.47169  -1.92190  10.09320
H    -2.17503  -3.97217   9.75186
H    -1.36157  -2.64128   8.87662
H    -2.43380  -3.77415   7.99411
H    -5.29430   1.71836  10.69563
H    -6.12166   0.19335  11.10536
H    -6.70150   1.17977   9.73187
