27
Generated by autodE on: 2022-06-16. E = -499.474004 Ha
C     2.93565  -0.12114  -1.37714
N     1.57645  -0.18109  -0.89219
C     1.19391   0.13960   0.35092
O     1.96538   0.52662   1.24174
C    -0.32381   0.03102   0.61410
C    -0.53010  -0.64459   1.97574
C    -0.93728   1.46710   0.62069
C    -1.73269   1.56884  -0.68372
C    -2.18947   0.13037  -0.88436
N    -1.00639  -0.64208  -0.51837
C    -1.21062  -2.07308  -0.42862
H     3.59720   0.16476  -0.54956
H     3.26016  -1.09872  -1.76720
H     3.04154   0.62210  -2.18410
H     0.80300  -0.47605  -1.48923
H    -0.07949  -0.02586   2.76383
H    -1.60418  -0.74895   2.18930
H    -0.06392  -1.63995   2.01932
H    -0.16752   2.24321   0.73359
H    -1.61765   1.55327   1.48166
H    -2.56740   2.28185  -0.62103
H    -1.08117   1.87347  -1.51809
H    -3.05470  -0.09913  -0.22346
H    -2.49859  -0.09819  -1.91729
H    -1.95266  -2.37039   0.34057
H    -0.26290  -2.58529  -0.20497
H    -1.57214  -2.45169  -1.39802
