27
Generated by autodE on: 2022-06-16. E = -499.377458 Ha. Imaginary frequency = -370.4 cm-1
C     3.53572   0.00762   0.63653
N     2.13239   0.06892   0.98344
C     1.16857  -0.23094   0.06975
O     1.50996  -0.56927  -1.08310
C    -0.23196  -0.04804   0.49842
C    -0.52983   0.60462   1.82402
C    -0.94064   1.78827  -0.87213
C    -2.28691   1.52209  -0.98932
C    -2.51197  -0.50008   0.15392
N    -1.22230  -0.84215  -0.03063
C    -0.97781  -1.71423  -1.18742
H     4.12814   0.38264   1.48092
H     3.75108   0.62732  -0.24780
H     3.86410  -1.02098   0.40747
H     1.88518   0.21347   1.95390
H     0.26792   1.30169   2.10668
H    -0.64576  -0.13998   2.63531
H    -1.45151   1.20049   1.79424
H    -0.24148   1.50206  -1.66159
H    -0.56794   2.51176  -0.14325
H    -3.01795   2.04315  -0.36572
H    -2.68286   1.06061  -1.89786
H    -2.80398  -0.00781   1.07505
H    -3.26022  -1.11630  -0.34338
H    -1.85516  -2.35831  -1.31542
H    -0.09336  -2.33578  -1.02496
H    -0.82628  -1.11458  -2.09599
