41
Generated by autodE on: 2022-06-21. E = -1027.886328 Ha
C     5.33181   0.18277   0.76699
N     4.01421   0.36255   0.20047
C     3.32691  -0.59424  -0.43600
O     3.72387  -1.75499  -0.60752
C     1.97100  -0.14688  -0.99550
N     1.57921   1.19843  -0.56491
C     0.60529   1.07648   0.52899
C    -0.70645   1.74184   0.13763
O    -0.99138   2.08084  -0.99534
O    -1.48891   1.96603   1.19157
C    -2.79086   2.51178   0.92705
C     0.50841  -0.45375   0.83988
C    -0.79575  -0.96020   1.45087
C    -1.89032  -0.96435   0.41395
C    -3.31104  -0.84528   0.74587
N    -3.63290  -0.82824   2.06589
O    -4.21391  -0.75071  -0.11599
C    -1.55190  -1.03104  -0.90968
N    -0.29693  -1.12326  -1.40310
C    -0.07719  -1.13478  -2.83845
C     0.86468  -1.09899  -0.50685
H     6.08623   0.77840   0.22764
H     5.60727  -0.87696   0.69721
H     5.34715   0.48500   1.82535
H     3.54288   1.26534   0.24059
H     2.09636  -0.17307  -2.08568
H     1.13150   1.68392  -1.34108
H     0.94269   1.59229   1.44140
H    -3.31246   2.52798   1.89021
H    -3.33134   1.87647   0.21228
H    -2.70185   3.53020   0.52256
H     1.33273  -0.67931   1.52963
H    -1.05994  -0.32314   2.30830
H    -0.61815  -1.97102   1.85801
H    -2.94812  -0.96765   2.79739
H    -4.61164  -0.76684   2.32272
H    -2.34537  -1.00843  -1.65927
H     0.71565  -1.85172  -3.10094
H    -1.00074  -1.44357  -3.34516
H     0.20988  -0.14013  -3.22167
H     1.25805  -2.11902  -0.38236
