21
Generated by autodE on: 2022-06-21. E = -570.110130 Ha
C     4.70480  -0.61092  -0.61608
N     3.39637  -1.18655  -0.38591
C     2.28780  -0.42156  -0.29751
O     2.31638   0.81964  -0.42386
C     1.03479  -1.12939  -0.04721
N    -0.04542  -0.37628   0.04060
C    -1.33398  -0.66284   0.25385
C    -2.24270   0.44725   0.28643
O    -1.92207   1.62762   0.13710
O    -3.52025   0.05863   0.50275
C    -4.50132   1.09677   0.55302
H     4.71497  -0.00277  -1.53434
H     5.43624  -1.42115  -0.72237
H     5.01670   0.03758   0.21960
H     3.31026  -2.18870  -0.25247
H     0.95406  -2.21021   0.06649
H     0.15604   0.63168  -0.08166
H    -1.64455  -1.69653   0.39076
H    -4.28928   1.79944   1.37321
H    -5.46291   0.59899   0.72809
H    -4.53524   1.65324  -0.39589
