21
Generated by autodE on: 2022-07-27. E = -570.105259 Ha
C     4.16467  -1.72683  -1.20765
N     2.84698  -1.33405  -1.65370
C     1.88983  -0.83778  -0.82679
O     2.07467  -0.66413   0.39347
C     0.62931  -0.52448  -1.48796
N    -0.41701  -0.02210  -0.84414
C    -0.64931   0.32611   0.43012
C    -1.96235   0.84012   0.70526
O    -2.85745   0.97644  -0.13110
O    -2.12312   1.16692   2.00678
C    -3.40146   1.68670   2.38004
H     4.27099  -1.46952  -0.14725
H     4.94798  -1.20332  -1.77857
H     4.32411  -2.81198  -1.32257
H     2.61471  -1.45588  -2.63409
H     0.49138  -0.69747  -2.55456
H    -1.24280   0.14350  -1.43557
H     0.12634   0.21276   1.17751
H    -4.19780   0.95354   2.18098
H    -3.34435   1.89215   3.45592
H    -3.62385   2.61546   1.83302
