41
Generated by autodE on: 2022-06-21. E = -1027.811902 Ha. Imaginary frequency = -423.3 cm-1
C     5.31158  -0.78301  -0.81818
N     4.03281  -0.37323  -1.35923
C     3.13018   0.30735  -0.60715
O     3.40908   0.69262   0.54437
C     1.82952   0.51139  -1.25257
N     0.86099   1.28214  -0.70572
C     0.54921   1.23984   0.61906
C    -0.73797   1.83981   0.95890
O    -1.60330   2.14222   0.14668
O    -0.90076   1.97101   2.28635
C    -2.17271   2.46002   2.73124
C     0.45158  -0.96401   0.89140
C    -1.00126  -1.17993   1.27928
C    -1.87797  -1.10073   0.04766
C    -3.29906  -0.73819   0.08943
N    -3.84961  -0.56035   1.32084
O    -4.00210  -0.61212  -0.93423
C    -1.33952  -1.42520  -1.16291
N    -0.03128  -1.77090  -1.34192
C     0.45564  -2.07815  -2.67617
C     0.90765  -1.44545  -0.34249
H     5.88545   0.08502  -0.45831
H     5.88929  -1.28030  -1.60726
H     5.19615  -1.48217   0.02775
H     3.73677  -0.74473  -2.25583
H     1.79421   0.43129  -2.33960
H     0.05509   1.46027  -1.30754
H     1.36061   1.29966   1.33507
H    -2.97930   1.79197   2.39800
H    -2.12353   2.47822   3.82628
H    -2.35410   3.47343   2.34439
H     1.17798  -0.99148   1.70475
H    -1.10660  -2.17087   1.76970
H    -1.30278  -0.44927   2.04387
H    -4.81089  -0.24276   1.37764
H    -3.30505  -0.59703   2.17298
H    -1.96275  -1.43864  -2.05868
H     1.38071  -2.66661  -2.60203
H    -0.29283  -2.66960  -3.21992
H     0.67385  -1.16443  -3.25559
H     1.87549  -1.93153  -0.44957
