30
Generated by autodE on: 2022-06-17. E = -800.988294 Ha
C     0.29835   2.88886  -0.70165
C     0.19990   2.09835   0.56606
O     0.34020   2.58293   1.67369
C    -0.06033   0.58639   0.44049
C     1.29043  -0.12975   0.46375
C     2.08650  -0.07069   1.61843
C     3.32147  -0.71997   1.65724
C     3.77676  -1.43335   0.54289
C     2.99016  -1.48803  -0.61018
C     1.75342  -0.83598  -0.65327
C    -1.04545   0.07044   1.50264
C    -1.70533  -1.10273   0.78867
C    -1.81075  -0.55014  -0.65791
C    -1.71814  -1.61711  -1.67583
N    -1.62055  -2.45900  -2.46568
C    -3.07586   0.19968  -0.85918
N    -4.04730   0.81777  -0.98885
O    -0.72354   0.34356  -0.82290
H     0.65389   3.90400  -0.48397
H    -0.69604   2.93281  -1.17451
H     0.96785   2.38438  -1.41546
H     1.73929   0.49138   2.48743
H     3.93044  -0.66926   2.56283
H     4.74232  -1.94345   0.57450
H     3.33763  -2.04162  -1.48571
H     1.14415  -0.88054  -1.55572
H    -1.78299   0.85091   1.73782
H    -0.54311  -0.23169   2.42847
H    -2.68450  -1.38991   1.18979
H    -1.04657  -1.98122   0.77227
