24
Generated by autodE on: 2022-06-17. E = -722.262768 Ha
C     1.87018   1.98378  -2.10586
C     0.46454   1.70935  -1.65671
O    -0.50540   2.32863  -2.06616
C     0.26157   0.62094  -0.64818
O     1.36920   0.02654  -0.34092
C     1.73227  -0.87477   0.58925
C     3.07650  -1.28557   0.50804
N     4.18597  -1.64709   0.45239
C     0.90794  -1.28772   1.64846
N     0.26866  -1.64538   2.55911
C    -1.04848   0.25319  -0.13692
C    -1.96339   1.25422   0.25481
C    -3.23561   0.89867   0.69361
C    -3.62160  -0.44672   0.71927
C    -2.72869  -1.44262   0.30963
C    -1.44478  -1.10208  -0.10740
H     2.32794   1.07254  -2.52155
H     1.85453   2.77721  -2.86297
H     2.48868   2.29248  -1.24805
H    -1.66141   2.30070   0.23525
H    -3.93234   1.67481   1.01666
H    -4.62380  -0.71959   1.05729
H    -3.03336  -2.49092   0.31686
H    -0.76107  -1.88273  -0.44434
