60
Generated by autodE on: 2022-06-15. E = -4232.066590 Ha
C     2.31851  -6.20655  -4.47493
O     2.12912  -5.27950  -3.39822
C     1.65989  -5.75955  -2.25009
O     1.38614  -6.92359  -2.06989
C     1.59581  -4.62710  -1.20297
C     1.31303  -5.06647   0.27814
C     1.72816  -6.42738   0.75736
O     0.88600  -4.22854   1.05374
C     0.64611  -3.48376  -1.60014
C     1.32716  -2.31635  -1.59081
C     0.86196  -0.85024  -1.74779
C     1.98900   0.07826  -2.03061
N     2.74618   0.93178  -2.23331
C    -0.00551  -0.58603  -2.91450
N    -0.63759  -0.27029  -3.83296
C     0.21978  -0.29157  -0.40725
C    -1.24608  -0.59530  -0.12604
C    -1.65637  -2.06656  -0.11318
C    -1.81273  -2.64690  -1.52768
C    -0.82405  -3.75373  -1.91192
Br   -1.48731  -5.39226  -0.93204
C    -1.03003  -4.10438  -3.41613
F    -2.32579  -4.07881  -3.75084
F    -0.39780  -3.20702  -4.19060
F    -0.56750  -5.31345  -3.75774
C     2.82084  -2.53429  -1.30568
C     3.27729  -1.83132  -0.01143
C     3.65831  -2.13432  -2.53679
C     4.95740  -1.62729  -2.40069
C     5.72224  -1.30963  -3.52563
C     5.19838  -1.49100  -4.80895
C     3.90493  -1.99947  -4.95608
C     3.14478  -2.32224  -3.82958
N     2.89213  -3.98390  -1.08101
C     4.12732  -4.69041  -1.34113
H     2.69902  -5.61420  -5.31464
H     1.36557  -6.68312  -4.74278
H     3.04893  -6.97626  -4.18776
H     1.72860  -6.43167   1.85531
H     1.02168  -7.17933   0.37873
H     2.71948  -6.70459   0.37167
H     0.85466  -0.67637   0.40057
H     0.34596   0.79934  -0.43215
H    -1.44697  -0.15433   0.86336
H    -1.88257  -0.04388  -0.83846
H    -2.62373  -2.14970   0.40205
H    -0.94000  -2.65691   0.47663
H    -1.74247  -1.85025  -2.27760
H    -2.81981  -3.05565  -1.66589
H     4.27836  -2.19373   0.25961
H     3.32905  -0.73855  -0.09567
H     2.59231  -2.10256   0.80221
H     5.38493  -1.46967  -1.41068
H     6.73263  -0.91414  -3.39682
H     5.79441  -1.23639  -5.68847
H     3.48105  -2.14455  -5.95259
H     2.13948  -2.71941  -3.96466
H     4.95334  -4.20425  -0.80115
H     4.05583  -5.71934  -0.96181
H     4.39728  -4.74041  -2.41130
