35
Generated by autodE on: 2022-06-15. E = -824.538083 Ha
C     2.05297   2.67913  -1.40216
O     1.49005   1.46495  -0.91068
C     2.32255   0.65773  -0.18201
O     3.50274   0.97081  -0.01280
C     1.66414  -0.51729   0.30329
C     2.24851  -1.57923   1.05274
C     3.72486  -1.53709   1.39090
O     1.56011  -2.55039   1.44510
N     0.26364  -0.66606  -0.01151
C    -0.03850  -1.68025  -1.03164
C    -0.64183   0.09903   0.53642
C    -0.29060   1.01034   1.65712
C    -2.02284   0.14492   0.01265
C    -3.11693  -0.02835   0.87715
C    -4.41769   0.05016   0.37894
C    -4.63618   0.33683  -0.97254
C    -3.54966   0.53785  -1.83028
C    -2.24620   0.43404  -1.34544
H     2.88834   2.48055  -2.09079
H     1.24557   3.19380  -1.93794
H     2.41414   3.31222  -0.57741
H     4.34382  -1.46085   0.48474
H     3.96492  -0.65952   2.00988
H     3.97923  -2.45449   1.93957
H     0.21925  -1.28679  -2.02443
H    -1.09436  -1.96819  -1.00188
H     0.58497  -2.55416  -0.81455
H    -1.15429   1.13237   2.32428
H     0.58955   0.65779   2.20907
H    -0.06113   2.00493   1.23771
H    -2.94695  -0.24622   1.93327
H    -5.26432  -0.10632   1.05072
H    -5.65601   0.40966  -1.35708
H    -3.71734   0.77664  -2.88266
H    -1.39769   0.60108  -2.01067
