35
Generated by autodE on: 2022-07-27. E = -824.534533 Ha
C    -2.95349  -1.00993  -1.86193
O    -1.78661  -0.90794  -1.04969
C    -1.79304  -1.62275   0.12141
O    -2.75567  -2.33136   0.41074
C    -0.59449  -1.42921   0.88844
C    -0.32458  -2.08230   2.12871
C     0.94883  -1.71012   2.87562
O    -1.07619  -2.93517   2.64737
N     0.38431  -0.52868   0.32657
C     1.53846  -1.17277  -0.31761
C     0.18130   0.76326   0.30771
C    -0.94070   1.36547   1.07315
C     1.00821   1.65557  -0.53018
C     1.63202   2.78079   0.03461
C     2.38703   3.63498  -0.76948
C     2.49327   3.39458  -2.14328
C     1.84843   2.29197  -2.71361
C     1.11545   1.41728  -1.91215
H    -2.77153  -0.37426  -2.73766
H    -3.84543  -0.65434  -1.32376
H    -3.12402  -2.04813  -2.18556
H     1.70690  -2.49540   2.71592
H     1.38397  -0.74596   2.58168
H     0.72064  -1.69344   3.95144
H     2.36684  -0.46788  -0.44396
H     1.85579  -2.00656   0.31894
H     1.23183  -1.57817  -1.29175
H    -1.81163   1.44813   0.39972
H    -1.23062   0.74677   1.93132
H    -0.67724   2.38449   1.38621
H     1.54266   2.97244   1.10563
H     2.88838   4.49594  -0.32238
H     3.07547   4.07178  -2.77231
H     1.91714   2.11081  -3.78835
H     0.60353   0.56264  -2.35705
