25
Generated by autodE on: 2022-06-15. E = -3407.467143 Ha
N    -2.15534  -4.03260   0.74368
C    -1.75710  -3.29819  -0.05866
C    -1.28618  -2.32486  -1.06790
C    -0.88108  -3.05597  -2.28470
N    -0.57878  -3.60223  -3.26026
C    -0.20179  -1.51125  -0.50650
C     0.29335  -0.55166   0.03708
C     0.37769   0.77867   0.59965
Br    1.21247   1.98409  -0.76806
C     1.27661   0.83780   1.84799
F     1.32218   2.06931   2.36479
F     2.52813   0.44971   1.58214
F     0.79289   0.01511   2.79289
C    -1.06307   1.24954   0.90481
C    -2.10043   1.02638  -0.21088
C    -2.83072  -0.34344  -0.28709
C    -2.45219  -1.31368  -1.41997
H    -1.38048   0.71231   1.81346
H    -1.01033   2.31637   1.16421
H    -2.87314   1.79005  -0.04135
H    -1.65604   1.27413  -1.18854
H    -2.78031  -0.86084   0.68570
H    -3.89799  -0.12900  -0.44375
H    -3.31561  -1.93065  -1.70710
H    -2.12055  -0.76272  -2.31212
