60
Generated by autodE on: 2022-06-15. E = -4231.962711 Ha. Imaginary frequency = -118.7 cm-1
C     0.91162  -7.64707  -3.51017
O     1.43258  -6.41763  -3.00702
C     1.57455  -6.31426  -1.67865
O     1.28807  -7.24321  -0.92736
C     2.05550  -5.02387  -1.17606
C     1.98042  -5.01957   0.33387
C     3.25203  -5.39584   1.05828
O     0.93035  -4.87629   0.93685
C     0.25757  -3.20795  -2.01738
C     0.93968  -2.17896  -1.95133
C     0.85766  -0.69559  -1.81520
C     2.12703   0.06701  -1.75282
N     3.03192   0.78293  -1.65260
C     0.13700  -0.15938  -2.99141
N    -0.44723   0.25985  -3.90036
C     0.07811  -0.34855  -0.48422
C    -1.42256  -0.64075  -0.43268
C    -1.93241  -2.09237  -0.47575
C    -2.14015  -2.67733  -1.88464
C    -1.08655  -3.72100  -2.32230
Br   -1.53465  -5.44144  -1.41919
C    -1.22883  -3.97428  -3.84121
F    -2.47705  -4.34097  -4.16237
F    -0.95857  -2.84586  -4.52294
F    -0.39852  -4.91496  -4.29811
C     3.34532  -3.00785  -1.45251
C     3.16402  -2.50093  -0.04812
C     4.22014  -2.18306  -2.32396
C     5.41233  -1.64689  -1.80823
C     6.20185  -0.79645  -2.58398
C     5.80385  -0.45470  -3.87992
C     4.61324  -0.97395  -4.39884
C     3.82789  -1.83049  -3.62926
N     2.99891  -4.24923  -1.83423
C     3.54526  -4.76782  -3.11198
H     0.90153  -7.54708  -4.60199
H    -0.11026  -7.81267  -3.13883
H     1.54620  -8.49555  -3.21462
H     3.25359  -4.98543   2.07790
H     3.24172  -6.49816   1.12252
H     4.16268  -5.11015   0.51812
H     0.61382  -0.88519   0.31157
H     0.22018   0.72857  -0.31406
H    -1.74548  -0.20360   0.52570
H    -1.93734  -0.05279  -1.21122
H    -2.91037  -2.09824   0.02706
H    -1.28246  -2.74878   0.12521
H    -2.11205  -1.86617  -2.62794
H    -3.12898  -3.14536  -1.97712
H     3.98606  -2.84714   0.59957
H     3.20132  -1.40687  -0.04408
H     2.21832  -2.80502   0.40875
H     5.72687  -1.90038  -0.79434
H     7.13011  -0.39456  -2.17143
H     6.41717   0.21940  -4.48233
H     4.28753  -0.70050  -5.40499
H     2.88517  -2.20670  -4.02917
H     4.49716  -4.27574  -3.31809
H     3.71987  -5.84077  -3.00579
H     2.84399  -4.59149  -3.93423
