22
Generated by autodE on: 2022-05-25. E = -1159.819005 Ha
C    -3.34665   0.00941  -0.05482
C    -2.20579  -0.91795  -0.33344
O    -2.35986  -2.02902  -0.81776
C    -0.80990  -0.48698  -0.02494
C    -0.30806   0.71425   0.29221
Cl   -1.05737   2.22630   0.54433
C     1.21981   0.63407   0.39662
C     1.86149   1.45073  -0.66543
N     2.35396   2.06441  -1.51488
C     1.69674   1.08924   1.72396
N     2.05648   1.42362   2.77222
O     1.51916  -0.73065   0.23051
C     0.33695  -1.48830  -0.12525
C     0.22687  -2.68100   0.81829
C     0.50569  -1.93523  -1.52826
N     0.67064  -2.28757  -2.61992
H    -3.27683   0.89523  -0.70675
H    -4.28996  -0.51544  -0.25110
H    -3.31622   0.36505   0.98645
H     1.15550  -3.26633   0.76669
H    -0.61948  -3.31552   0.52785
H     0.08001  -2.30920   1.84154
