9
Generated by autodE on: 2022-05-25. E = -689.705304 Ha
C    -2.69279   0.51580  -0.31591
C    -1.69180  -0.54230   0.04579
O    -1.99795  -1.68649   0.34778
C    -0.29352  -0.13506   0.02036
C     0.87019   0.21417  -0.00419
Cl    2.44142   0.67597  -0.03613
H    -2.48270   0.89218  -1.33057
H    -2.59216   1.37104   0.37237
H    -3.70939   0.10397  -0.26528
