13
Generated by autodE on: 2022-05-25. E = -469.987400 Ha
C    -1.79854   2.28253  -0.28719
C    -1.17115   0.95910  -0.06658
C    -1.96352  -0.15652   0.32646
N    -2.70019  -1.00254   0.63877
O     0.09895   0.86176  -0.23768
C     0.99282  -0.13595  -0.11704
C     0.65276  -1.43492   0.29702
N     0.42214  -2.52772   0.64000
C     2.31677   0.22159  -0.43384
N     3.42241   0.49349  -0.69317
H    -1.03663   3.00596  -0.60387
H    -2.58711   2.20315  -1.05425
H    -2.28057   2.62760   0.64352
