36
Generated by autodE on: 2022-06-17. E = -675.441406 Ha
C     2.89982  -0.36271   1.26476
C     1.50662   0.04482   0.87506
O     0.82312   0.70057   1.65081
C     0.90347  -0.43493  -0.47411
C     1.96911  -1.02928  -1.39177
N    -0.15458  -1.42451  -0.17863
C     0.20700  -2.55073   0.66319
C    -1.36458  -0.72149   0.27002
C    -2.64617  -1.44558  -0.12809
C    -1.24429   0.69968  -0.31801
C    -1.45789   1.77306   0.71482
O    -2.14237   1.63026   1.71130
C     0.08491   0.73013  -1.13700
C     0.83698   2.06589  -1.13745
C    -0.26017   0.39295  -2.59840
H     3.62988   0.02402   0.53679
H     2.99409  -1.45977   1.25922
H     3.12767   0.02538   2.26605
H     1.50452  -1.46225  -2.28558
H     2.53719  -1.82765  -0.89724
H     2.68604  -0.25759  -1.70896
H     1.11243  -3.04466   0.28352
H     0.37974  -2.27304   1.72523
H    -0.60023  -3.29828   0.65176
H    -1.36046  -0.63185   1.37336
H    -2.73326  -1.52345  -1.22344
H    -2.68569  -2.46078   0.29639
H    -3.51789  -0.89053   0.25223
H    -2.07754   0.89195  -1.02065
H    -1.03497   2.77428   0.47503
H     1.11480   2.41607  -0.13568
H     1.76095   1.96883  -1.72889
H     0.22619   2.85008  -1.61114
H    -0.74879  -0.58724  -2.68645
H     0.63160   0.39814  -3.24114
H    -0.95447   1.15357  -2.98763
