14
Generated by autodE on: 2022-06-17. E = -270.683221 Ha
C    -0.93763   1.27200   0.16360
C    -0.83615  -0.22554   0.11077
C    -2.11776  -0.97995   0.27347
C     0.33684  -0.89177  -0.07207
C     1.64635  -0.28030  -0.24153
O     1.90193   0.92178  -0.23920
H    -0.34059   1.67549   0.99725
H    -0.52633   1.72898  -0.74993
H    -1.98071   1.59501   0.28727
H    -1.97784  -2.06895   0.23357
H    -2.83259  -0.67783  -0.51218
H    -2.59242  -0.71056   1.23345
H     0.32462  -1.98529  -0.09889
H     2.47577  -1.01477  -0.38491
