22
Generated by autodE on: 2022-06-17. E = -404.704397 Ha
C    -2.98781   1.04644   0.97983
C    -1.50222   1.01200   0.91885
N    -0.80341   0.12484   0.24242
C    -1.55533  -0.91463  -0.49402
C     0.60308   0.07198   0.28116
C     1.24656   0.85984   1.38122
C     1.33898  -0.53331  -0.76820
C     2.85981  -0.56520  -0.62998
O     0.84753  -1.02840  -1.82223
H    -3.44951   1.06466  -0.02201
H    -3.30628   1.94575   1.52314
H    -3.40348   0.16837   1.50786
H    -0.93835   1.77562   1.45087
H    -2.44474  -1.18409   0.08569
H    -0.92432  -1.79150  -0.63488
H    -1.86182  -0.53461  -1.47701
H     0.74769   0.67306   2.35058
H     1.20651   1.95583   1.21888
H     2.30351   0.59441   1.49467
H     3.29351   0.44506  -0.71480
H     3.19141  -0.98412   0.33271
H     3.26076  -1.18259  -1.44560
