36
Generated by autodE on: 2022-06-17. E = -675.386727 Ha. Imaginary frequency = -283.4 cm-1
C     3.13418   0.41346   0.93352
C     1.66083   0.07576   1.02548
O     1.02415   0.50896   1.99766
C     1.07441  -0.74395  -0.04881
C     2.05933  -1.42249  -0.97175
N    -0.09921  -1.48361   0.25496
C    -0.38128  -2.70216  -0.51197
C    -1.10802  -0.87893   0.89468
C    -2.46804  -1.46017   1.04858
C    -1.25486   0.80517  -0.69994
C    -1.84519   1.72032   0.22463
O    -3.05262   1.77237   0.51729
C     0.08039   0.89900  -1.19369
C     0.90412   2.13692  -0.89890
C     0.28303   0.38838  -2.60364
H     3.40194   0.86787  -0.03005
H     3.74143  -0.50052   1.03833
H     3.38318   1.10734   1.74679
H     1.57560  -1.85421  -1.85393
H     2.62055  -2.22740  -0.46498
H     2.79123  -0.69446  -1.33877
H     0.52070  -3.31752  -0.57981
H    -1.14460  -3.28920   0.00674
H    -0.73583  -2.46488  -1.52697
H    -0.79835  -0.12087   1.60235
H    -2.83358  -1.97044   0.14763
H    -2.49656  -2.17581   1.89038
H    -3.16014  -0.64074   1.29120
H    -1.96295   0.18325  -1.25776
H    -1.14209   2.42076   0.73251
H     0.90560   2.41994   0.16131
H     1.94585   1.99778  -1.22037
H     0.50251   2.99227  -1.47058
H    -0.23118  -0.56746  -2.77792
H     1.34462   0.27297  -2.86109
H    -0.13795   1.12540  -3.31220
