36
Generated by autodE on: 2022-10-26. E = -953.956534 Ha
C     1.88144  -1.67620   3.63295
N     1.33495  -1.18430   2.38563
C     2.07089  -0.41858   1.54755
O     3.26305  -0.13715   1.81013
C     1.42660   0.03688   0.31617
O     0.11273  -0.25921   0.26591
C    -0.79337  -0.14425  -0.65735
C    -0.43909  -0.01970  -2.11264
C     0.66713  -0.90509  -2.62547
O    -1.17124   0.60023  -2.86940
C    -2.15714  -0.31087  -0.18756
C    -3.23595  -0.51559  -1.07963
C    -4.52726  -0.69424  -0.58964
C    -4.77323  -0.67584   0.78745
C    -3.71343  -0.47355   1.68116
C    -2.42086  -0.28733   1.20424
C     1.94165   1.07627  -0.56687
O     1.19451   1.62330  -1.41049
N     3.22978   1.43789  -0.40251
C     3.79662   2.56370  -1.11180
H     1.11982  -2.28470   4.13564
H     2.77391  -2.29931   3.46184
H     2.17250  -0.85148   4.30387
H     0.37322  -1.39592   2.14563
H     1.26916  -0.35053  -3.35836
H     0.17830  -1.74641  -3.14496
H     1.31998  -1.30916  -1.84081
H    -3.05949  -0.54298  -2.15307
H    -5.34948  -0.85506  -1.29016
H    -5.78885  -0.81468   1.16465
H    -3.90105  -0.45033   2.75680
H    -1.60260  -0.10960   1.90255
H     3.69696   1.02898   0.41191
H     3.51428   2.52664  -2.17376
H     4.89076   2.52234  -1.03389
H     3.45498   3.53237  -0.70635
