36
Generated by autodE on: 2022-10-23. E = -953.953297 Ha
C     2.49509   3.83489  -0.80394
N     2.45430   2.39340  -0.69806
C     1.29418   1.72746  -0.51688
O     0.17319   2.28902  -0.53311
C     1.39635   0.30186  -0.25659
O     0.26426  -0.35039   0.04912
C    -0.97091  -0.08927  -0.23949
C    -1.31414   0.82170  -1.37794
C    -0.49927   0.67786  -2.63567
O    -2.34042   1.47602  -1.34562
C    -1.96486  -0.85295   0.49910
C    -3.31492  -0.91119   0.08364
C    -4.23857  -1.66826   0.79969
C    -3.84402  -2.38175   1.93631
C    -2.50987  -2.33373   2.35917
C    -1.57918  -1.57635   1.65640
C     2.62408  -0.39944   0.12609
O     3.74021   0.15320  -0.00335
N     2.49575  -1.66414   0.59751
C     3.62238  -2.48614   0.98206
H     3.44667   4.13629  -1.26133
H     2.40876   4.33235   0.17826
H     1.66852   4.19039  -1.43460
H     3.30090   1.84994  -0.51100
H    -1.11893   0.10404  -3.34498
H    -0.31324   1.67145  -3.06693
H     0.45429   0.15187  -2.49544
H    -3.63637  -0.37202  -0.80605
H    -5.27683  -1.70663   0.46325
H    -4.57463  -2.97176   2.49413
H    -2.19750  -2.88292   3.25004
H    -0.54762  -1.52657   2.00125
H     1.56785  -2.06652   0.64153
H     4.51872  -1.85917   1.05514
H     3.81508  -3.28495   0.24574
H     3.43886  -2.95728   1.95936
