60
Generated by autodE on: 2022-10-23. E = -1380.731390 Ha. Imaginary frequency = -183.4 cm-1
C     2.12670  -2.54282   3.06504
N     1.59618  -2.25644   1.74860
C     2.27412  -1.48792   0.86582
O     3.44176  -1.10563   1.13067
C     1.59964  -1.12683  -0.37877
C     2.25773  -0.51312  -1.52479
O     1.63035  -0.21828  -2.56899
N     3.57221  -0.23000  -1.41090
C     4.24590   0.57757  -2.40356
O     0.31840  -1.55865  -0.45323
C    -0.66135  -1.16326  -1.25043
C    -0.44902  -1.22056  -2.75351
C     0.24868  -2.47878  -3.22515
O    -1.05830  -0.50900  -3.53667
C    -2.00762  -1.52953  -0.78803
C    -3.14789  -1.09470  -1.49907
C    -4.42931  -1.37887  -1.02962
C    -4.60729  -2.11447   0.14614
C    -3.48519  -2.57124   0.84690
C    -2.20186  -2.28325   0.38903
C    -0.57118   1.25752  -0.49789
C    -0.89032   1.95825  -1.78323
C    -1.57204   1.18597   0.65596
C    -1.63152   2.61952   1.27617
C    -0.23215   2.77485   1.93762
C     0.44793   1.39359   1.63700
C    -0.76201   0.45442   1.73907
C     0.66150   1.42175   0.13703
O     1.68101   2.07011  -0.45307
C     2.85573   2.31900   0.32716
H     1.42200  -3.19678   3.59349
H     3.09990  -3.05340   3.00008
H     2.26757  -1.62357   3.65807
H     0.64273  -2.51736   1.53365
H     3.97646  -0.38835  -0.48491
H     5.28861   0.72229  -2.09419
H     3.77031   1.56597  -2.51946
H     4.23789   0.08767  -3.39016
H     0.72573  -2.28313  -4.19484
H    -0.53666  -3.24154  -3.36739
H     0.98451  -2.87297  -2.51432
H    -3.02106  -0.52036  -2.41463
H    -5.29665  -1.02141  -1.58929
H    -5.61253  -2.33673   0.51107
H    -3.61035  -3.16019   1.75833
H    -1.34369  -2.65897   0.94275
H    -0.12723   1.76782  -2.54795
H    -0.92182   3.05135  -1.61435
H    -1.86599   1.65264  -2.18309
H    -2.55340   0.77159   0.39666
H    -2.43553   2.66907   2.02583
H    -1.83454   3.38898   0.51798
H     0.34714   3.61388   1.52676
H    -0.30649   2.91802   3.02575
H     1.32265   1.16368   2.25551
H    -0.52488  -0.58220   1.49693
H    -1.23863   0.49416   2.72971
H     3.61879   2.68716  -0.36899
H     2.65664   3.08866   1.08861
H     3.20735   1.39948   0.81092
