59
Generated by autodE on: 2022-06-29. E = -1563.178789 Ha
C    -1.01420   4.77116  -1.06142
N    -1.16943   3.45949  -0.46359
C    -0.42779   3.08040   0.58204
O     0.26955   3.83762   1.25663
C    -0.61519   1.59827   1.04478
C    -1.16329   1.78117   2.41330
N    -1.67436   1.98548   3.43492
N    -1.49057   0.81127   0.19838
C    -1.13945  -0.61589   0.14841
C    -0.71210  -1.00008  -1.30316
O    -0.26501  -2.12439  -1.56113
N    -0.81524  -0.03049  -2.21467
C    -0.23683  -0.13664  -3.53853
C    -2.28809  -1.52252   0.61395
C    -3.35789  -1.00131   1.35854
C    -4.38099  -1.82892   1.82987
C    -4.35247  -3.20083   1.57484
C    -3.28530  -3.73476   0.84768
C    -2.26444  -2.90805   0.37484
C     0.14380  -0.71455   1.11494
C    -0.26147  -1.13285   2.53394
C     1.17196  -1.74988   0.64151
O     1.20665  -2.87063   1.11476
C     2.17966  -1.37096  -0.39644
O     2.86898  -2.42740  -0.80465
C     4.07220  -2.32587  -1.57868
C     2.28438  -0.07798  -0.83417
O     3.04261   0.23366  -1.91976
C     4.13193   1.14453  -1.72288
C     1.44839   0.99262  -0.28096
O     1.41975   2.08330  -0.83809
C     0.70314   0.74818   1.04399
C     1.68810   1.11386   2.16322
H    -1.84552   4.95234  -1.75381
H    -0.06348   4.84758  -1.61570
H    -1.02145   5.54497  -0.28150
H    -1.64028   2.73062  -0.98941
H    -2.47941   1.00313   0.32382
H    -1.09070   0.87855  -1.85525
H    -0.76121   0.54089  -4.22467
H     0.83214   0.13406  -3.51673
H    -0.33006  -1.16657  -3.90531
H    -3.40943   0.05829   1.60893
H    -5.20005  -1.39143   2.40522
H    -5.15088  -3.84883   1.94372
H    -3.24069  -4.80770   0.64627
H    -1.43756  -3.34074  -0.18185
H     0.60793  -1.09103   3.20266
H    -0.62543  -2.16464   2.52454
H    -1.05351  -0.50348   2.94723
H     4.50184  -3.33545  -1.57329
H     4.77558  -1.62241  -1.11086
H     3.85505  -2.01652  -2.60800
H     4.61989   1.25605  -2.69952
H     4.85080   0.72860  -0.99858
H     3.77824   2.12465  -1.37448
H     2.53537   0.41391   2.16086
H     1.20641   1.07776   3.14866
H     2.06956   2.13043   2.00487
