26
Generated by autodE on: 2022-06-29. E = -689.460866 Ha
C    -3.00706  -1.52941  -0.38842
O    -1.60129  -1.79806  -0.35689
C    -0.68779  -0.83992  -0.20376
C    -0.86224   0.50664  -0.08574
O    -2.08604   1.10895  -0.15346
C    -2.60373   1.60856   1.08385
C     0.30643   1.40339   0.04381
O     0.13246   2.61966   0.09825
C     1.68329   0.82537   0.09709
C     2.82839   1.77306   0.26567
C     1.86942  -0.51274  -0.02170
C     3.23163  -1.13399   0.00976
C     0.70291  -1.41782  -0.18658
O     0.84052  -2.62817  -0.29933
H    -3.48438  -2.50855  -0.52142
H    -3.34418  -1.08235   0.55753
H    -3.26469  -0.87172  -1.22853
H    -3.58420   2.04871   0.85851
H    -1.94654   2.38061   1.51090
H    -2.72944   0.78967   1.81160
H     3.41133   1.52238   1.16728
H     2.47797   2.80858   0.34621
H     3.52366   1.69918  -0.58710
H     3.73558  -0.91893   0.96666
H     3.17524  -2.22097  -0.12130
H     3.87071  -0.71342  -0.78383
