59
Generated by autodE on: 2022-06-29. E = -1563.122615 Ha. Imaginary frequency = -319.8 cm-1
C     1.53287   3.89577  -1.70643
N     0.59422   3.54033  -0.65671
C    -0.02178   2.34174  -0.66924
O     0.02068   1.58142  -1.63937
C    -0.74698   1.95725   0.58783
C    -1.12995   3.04575   1.43543
N    -1.41373   3.92701   2.14047
N    -1.66652   0.92108   0.59683
C    -1.40340  -0.37518   0.24035
C    -1.02251  -0.70181  -1.21399
O    -0.02006  -1.35054  -1.51107
N    -1.98187  -0.43151  -2.12266
C    -3.12996   0.44530  -1.97986
C    -2.34209  -1.40788   0.75948
C    -3.41226  -1.10419   1.62107
C    -4.23390  -2.11457   2.12153
C    -4.00247  -3.44895   1.77657
C    -2.94552  -3.76362   0.91712
C    -2.12769  -2.75642   0.40857
C     0.40644  -0.53166   1.53828
C    -0.20475  -1.21665   2.74064
C     1.27893  -1.42353   0.73444
O     1.26963  -2.64308   0.87015
C     2.27158  -0.80755  -0.20897
O     2.76855  -1.68440  -1.08200
C     3.19339  -1.25100  -2.38037
C     2.62868   0.49793  -0.06943
O     3.58966   1.08834  -0.84485
C     4.92019   0.98941  -0.32663
C     2.03629   1.33053   0.98549
O     2.54024   2.42589   1.24896
C     0.83155   0.83820   1.71701
C     0.65094   1.47005   3.07568
H     1.06397   3.77773  -2.69281
H     2.43158   3.25980  -1.66740
H     1.82746   4.94419  -1.57614
H     0.68593   4.02736   0.22986
H    -2.28126   0.98903   1.40614
H    -1.70636  -0.67397  -3.07178
H    -3.76586   0.31866  -2.86540
H    -2.83608   1.50461  -1.90900
H    -3.72827   0.18430  -1.09669
H    -3.63939  -0.07618   1.90955
H    -5.06244  -1.85278   2.78301
H    -4.64576  -4.23834   2.17149
H    -2.75461  -4.80230   0.63878
H    -1.29931  -3.01844  -0.24857
H    -1.07493  -0.66900   3.12373
H     0.53589  -1.27213   3.55596
H    -0.51599  -2.23828   2.50280
H     2.49158  -0.50511  -2.77941
H     3.17718  -2.14920  -3.01156
H     4.21019  -0.83625  -2.35792
H     5.57766   1.50340  -1.04042
H     4.99629   1.47607   0.65801
H     5.22759  -0.06580  -0.23955
H    -0.38324   1.39562   3.43433
H     0.94939   2.52364   3.06198
H     1.28982   0.94710   3.80785
