69
Generated by autodE on: 2022-06-13. E = -1607.869095 Ha
C    -5.60572  -2.55145  18.94205
N    -6.26441  -2.10414  20.15480
C    -5.81431  -1.04991  20.84540
O    -4.87563  -0.34401  20.47921
C    -6.64332  -0.61412  22.09115
C    -7.71955  -1.57823  22.44751
N    -8.65225  -2.21644  22.71605
N    -7.23648   0.65294  21.72690
C    -7.35939   1.51905  22.89553
C    -6.99925   2.94571  22.41919
C    -8.76783   1.53373  23.37099
N    -9.90163   1.58855  23.61391
C    -6.38640   0.86519  23.91143
C    -5.86393  -0.27634  23.38973
C    -4.67497  -1.18351  23.81780
C    -4.71841  -1.66220  25.27671
C    -5.93516  -1.88594  25.93423
C    -5.97137  -2.42588  27.22285
C    -4.78564  -2.75512  27.88212
C    -3.56562  -2.56368  27.22543
C    -3.53399  -2.03521  25.93352
C    -4.68551  -2.52559  23.00448
C    -5.66601  -3.49851  23.26792
C    -5.71550  -4.70110  22.56185
C    -4.75588  -4.98576  21.58764
C    -3.75544  -4.04728  21.33391
C    -3.72540  -2.83349  22.02604
C    -3.35750  -0.40846  23.46074
C    -2.79232   0.71538  24.33702
C    -3.69746   1.87814  24.72977
C    -4.72670   1.46948  25.79446
C    -6.18963   1.49519  25.30202
C    -6.65326   2.97503  25.40371
C    -7.13572   0.79380  26.28874
O    -8.20815   0.30668  25.99133
O    -6.70351   0.87766  27.54749
C    -7.59389   0.41828  28.57471
H    -5.84693  -1.89214  18.09237
H    -4.51500  -2.55775  19.07444
H    -5.94280  -3.56850  18.70970
H    -6.97443  -2.70256  20.56446
H    -8.08557   0.57508  21.17067
H    -7.52201   3.11349  21.46673
H    -5.91667   2.99223  22.23815
H    -7.29622   3.73661  23.11202
H    -6.87083  -1.65139  25.43048
H    -6.93510  -2.59182  27.70896
H    -4.81065  -3.16926  28.89268
H    -2.62893  -2.83421  27.71887
H    -2.57184  -1.92426  25.43428
H    -6.41161  -3.32529  24.03917
H    -6.50617  -5.42102  22.78564
H    -4.78507  -5.92892  21.03728
H    -2.99354  -4.24714  20.57709
H    -2.95106  -2.12017  21.75908
H    -2.55314  -1.15157  23.39680
H    -3.49751  -0.02678  22.44091
H    -1.92868   1.10909  23.77485
H    -2.37162   0.29052  25.26247
H    -4.19011   2.30265  23.83958
H    -3.06124   2.68169  25.13157
H    -4.66720   2.14277  26.65902
H    -4.48152   0.47682  26.18372
H    -7.69543   3.12148  25.09550
H    -6.57421   3.28284  26.45481
H    -5.99940   3.62723  24.81270
H    -7.03871   0.50597  29.51554
H    -8.49447   1.04894  28.60245
H    -7.88376  -0.62583  28.39990
