20
Generated by autodE on: 2022-07-27. E = -566.023438 Ha
C     1.62982  -3.68696  -0.62247
N     0.81190  -2.61925  -0.08048
C     0.89545  -1.36378  -0.55220
O     1.66145  -1.03917  -1.47953
C     0.03544  -0.33352   0.06264
C    -0.85936  -0.59322   1.11168
N    -1.58370  -0.88172   1.98368
N     0.20742   0.88946  -0.49909
C    -0.30204   2.09287  -0.31761
C     0.15244   3.24406  -1.16002
C    -1.28621   2.32195   0.67909
N    -2.09575   2.59530   1.47247
H     2.70332  -3.47588  -0.49247
H     1.43963  -3.82908  -1.69795
H     1.38775  -4.61765  -0.09568
H     0.17849  -2.82586   0.68504
H     0.92170   0.80375  -1.24576
H    -0.70256   3.70059  -1.68379
H     0.88562   2.90463  -1.90498
H     0.61501   4.02400  -0.53361
