49
Generated by autodE on: 2022-06-13. E = -1041.782399 Ha
C    -2.27944   5.04566   2.03042
O    -1.57506   4.51798   0.89629
C    -1.50092   3.19037   0.79397
O    -2.00791   2.43519   1.59926
C    -0.68232   2.76302  -0.43166
C    -1.20111   3.47358  -1.69434
C    -0.70996   1.30297  -0.53275
C    -0.34667   0.15607  -0.39131
C     0.49902  -0.98006  -0.00293
C     1.14335  -1.57499  -1.26592
C     2.51631  -1.82485  -1.37675
C     3.04428  -2.40263  -2.53844
C     2.20739  -2.73959  -3.60351
C     0.83282  -2.49438  -3.50111
C     0.31047  -1.91671  -2.34397
C    -0.27752  -2.06295   0.76341
C    -1.46005  -1.74527   1.44712
C    -2.13014  -2.71338   2.20033
C    -1.62414  -4.01411   2.28499
C    -0.44102  -4.33633   1.61306
C     0.22640  -3.36787   0.85764
C     1.52713  -0.33541   0.99029
C     2.21565   0.96885   0.53364
C     1.54813   2.32054   0.91960
C     0.82151   3.12367  -0.17782
H    -1.79682   4.72327   2.96424
H    -3.32559   4.70801   2.02307
H    -2.23133   6.13640   1.93457
H    -1.06051   4.55963  -1.61052
H    -0.64477   3.11283  -2.57141
H    -2.27049   3.26685  -1.85001
H     3.19207  -1.57642  -0.55861
H     4.11907  -2.58803  -2.60557
H     2.62109  -3.18953  -4.50909
H     0.16603  -2.75339  -4.32717
H    -0.76333  -1.72753  -2.26974
H    -1.85391  -0.72776   1.39420
H    -3.05282  -2.44856   2.72268
H    -2.14904  -4.77250   2.87075
H    -0.03499  -5.34912   1.67301
H     1.14665  -3.63279   0.33391
H     2.27923  -1.10129   1.23176
H     0.98195  -0.14343   1.92692
H     2.39489   0.94092  -0.55355
H     3.21641   0.96137   0.99326
H     2.34796   2.97960   1.29180
H     0.87331   2.16981   1.77993
H     0.85786   4.19642   0.06596
H     1.34644   2.99763  -1.13831
