69
Generated by autodE on: 2022-06-13. E = -1607.800247 Ha. Imaginary frequency = -360.7 cm-1
C    -6.23636  -4.60133  21.47669
N    -6.72034  -3.40802  22.13990
C    -6.64485  -2.17816  21.60270
O    -6.23204  -1.93005  20.46492
C    -7.11733  -1.04360  22.47212
C    -8.15876  -1.31750  23.40721
N    -9.00404  -1.59096  24.16013
N    -7.11588   0.15667  21.82085
C    -7.28780   1.36309  22.41448
C    -6.71845   2.52989  21.63885
C    -8.47356   1.60688  23.17697
N    -9.42401   1.90437  23.78120
C    -6.01531   0.88957  24.24424
C    -5.57974  -0.27434  24.04801
C    -4.42443  -1.22378  24.15863
C    -4.78245  -2.51644  24.89412
C    -6.04687  -2.70292  25.46559
C    -6.36245  -3.87028  26.16886
C    -5.40160  -4.86842  26.33870
C    -4.11728  -4.67348  25.81890
C    -3.81009  -3.50845  25.11353
C    -3.86883  -1.42514  22.72387
C    -3.55804  -2.67306  22.17209
C    -3.04273  -2.77972  20.87549
C    -2.82869  -1.63926  20.10149
C    -3.13488  -0.38501  20.64009
C    -3.64696  -0.28260  21.93339
C    -3.28186  -0.50503  24.96603
C    -3.48346  -0.34498  26.47269
C    -4.72354   0.43130  26.92871
C    -4.87727   1.82051  26.28890
C    -6.03854   1.99790  25.25165
C    -5.90831   3.40263  24.64634
C    -7.34172   1.94398  26.07126
O    -7.82845   2.91458  26.61546
O    -7.84534   0.71792  26.18565
C    -9.06835   0.57480  26.91979
H    -7.04323  -5.34401  21.37620
H    -5.87276  -4.33480  20.47813
H    -5.41339  -5.05709  22.04772
H    -6.97460  -3.48970  23.12059
H    -6.47931   0.13506  21.01762
H    -7.03873   2.45789  20.58657
H    -5.61969   2.50311  21.66969
H    -7.06423   3.48990  22.03347
H    -6.79561  -1.91915  25.37959
H    -7.36370  -3.98909  26.58987
H    -5.64311  -5.78299  26.88533
H    -3.34515  -5.43238  25.96649
H    -2.79540  -3.37086  24.73859
H    -3.73587  -3.58560  22.73506
H    -2.82283  -3.76992  20.46923
H    -2.43378  -1.72427  19.08640
H    -2.98098   0.52064  20.04830
H    -3.89456   0.70314  22.32980
H    -3.11180   0.47478  24.49743
H    -2.36217  -1.08665  24.79894
H    -3.49219  -1.33765  26.95018
H    -2.58443   0.16809  26.85679
H    -5.62455  -0.17062  26.74933
H    -4.66297   0.54679  28.02244
H    -3.94992   2.11346  25.77271
H    -5.04622   2.58253  27.06473
H    -6.81025   3.69998  24.09950
H    -5.75292   4.13669  25.44848
H    -5.04685   3.43955  23.96641
H    -8.93107   0.89321  27.96295
H    -9.32254  -0.48958  26.87258
H    -9.85897   1.17460  26.44806
