22
Generated by autodE on: 2022-06-18. E = -404.730641 Ha
C     3.11688  -0.25570  -0.11537
C     1.66151  -0.64111   0.07520
O     1.38488  -1.83828   0.40651
C     0.65133   0.32920  -0.12079
C     0.86811   1.75381  -0.51848
N    -0.60885  -0.21254   0.09551
C    -1.85556   0.18011   0.07045
C    -2.31443   1.56238  -0.25616
C    -2.91214  -0.83678   0.36207
H     3.41080   0.57294   0.54850
H     3.31796   0.06930  -1.14922
H     3.74645  -1.12786   0.10727
H     1.93046   1.92541  -0.73190
H     0.57881   2.47339   0.26866
H     0.30819   2.02778  -1.42959
H    -0.45479  -1.20767   0.33520
H    -3.11075   1.85538   0.44695
H    -2.76939   1.57407  -1.26317
H    -1.52292   2.31498  -0.22540
H    -3.62633  -0.89568  -0.47773
H    -3.49680  -0.54010   1.25023
H    -2.48774  -1.83624   0.53504
