22
Generated by autodE on: 2022-07-27. E = -404.725928 Ha
C    -1.74617   0.78560  -0.76596
C    -0.82759   1.22020   0.36515
O    -1.02063   2.37676   0.85204
C     0.11413   0.33011   0.91645
C     0.78334   0.61066   2.22932
N     0.40303  -0.93091   0.37972
C     0.66859  -1.31173  -0.84797
C     0.80216  -2.76857  -1.12833
C     0.87503  -0.33894  -1.94918
H    -1.47019   1.28503  -1.70945
H    -1.76983  -0.29790  -0.94483
H    -2.76095   1.12716  -0.50833
H     1.83691   0.93332   2.12251
H     0.79731  -0.29137   2.86974
H     0.24585   1.40762   2.76136
H     0.46741  -1.68067   1.07771
H     1.73542  -2.96422  -1.68036
H     0.78329  -3.37028  -0.20789
H    -0.02649  -3.10233  -1.77747
H    -0.00730  -0.27080  -2.60661
H     1.71174  -0.68558  -2.57610
H     1.07927   0.66727  -1.55481
