42
Generated by autodE on: 2022-06-18. E = -862.424318 Ha. Imaginary frequency = -396.6 cm-1
C    -4.04596   0.25770  -1.05085
C    -3.00738   0.78031  -0.07290
O    -3.21685   1.91765   0.43001
C    -1.92963  -0.04630   0.37000
C    -1.42590   0.13748   1.77343
N    -1.58334  -1.25810  -0.22942
C    -1.04845  -1.42861  -1.48067
C    -0.57528  -2.83326  -1.75972
C    -1.65590  -0.74646  -2.67827
C     0.69453  -0.28436  -1.32501
C     1.61671  -1.02017  -0.36049
C     2.27355  -0.08598   0.63159
C     3.40259  -0.51260   1.47430
N     3.82657  -1.79082   1.30976
O     3.95037   0.23355   2.31076
C     1.75953   1.15502   0.85165
N     0.73982   1.68610   0.10766
C     0.14199   2.97032   0.45067
C     0.25062   0.99731  -0.97852
H    -5.02946   0.43267  -0.58578
H    -3.94649  -0.80949  -1.27680
H    -4.03233   0.83013  -1.99148
H    -1.31607  -0.84089   2.27399
H    -2.12215   0.75314   2.36024
H    -0.43434   0.62243   1.82813
H    -1.19015  -1.92090   0.43869
H    -0.12590  -3.30178  -0.87155
H     0.16510  -2.83024  -2.57215
H    -1.42246  -3.46160  -2.08381
H    -2.59938  -1.24002  -2.95996
H    -0.96852  -0.83707  -3.53091
H    -1.86477   0.31437  -2.50535
H     0.86165  -0.45088  -2.39178
H     2.37263  -1.57788  -0.93622
H     1.04858  -1.79199   0.19808
H     3.39053  -2.43325   0.66096
H     4.59720  -2.12310   1.87887
H     2.17054   1.80408   1.62527
H     0.68870   3.41503   1.29069
H     0.19078   3.65589  -0.41023
H    -0.91286   2.83679   0.73002
H    -0.32791   1.60567  -1.67389
