53
Generated by autodE on: 2022-06-07. E = -3966.022876 Ha
C    -6.04343  -0.71053   8.09468
N    -5.99471  -2.14693   8.28795
C    -4.82762  -2.78725   8.43882
O    -3.73772  -2.23236   8.38487
C    -4.95956  -4.31461   8.71322
C    -4.75072  -4.63962  10.22155
O    -4.73799  -5.77060  10.64465
O    -4.69448  -3.54457  10.95820
C    -4.52505  -3.72486  12.37650
N    -6.35963  -4.73452   8.50267
N    -6.38493  -5.72473   7.74429
C    -5.08056  -6.11658   7.31921
C    -4.15165  -5.26788   7.84546
C    -2.65077  -5.25590   7.65506
C    -2.21679  -4.23836   6.60027
Br   -1.75723  -4.68306   9.40671
C    -2.04649  -6.62787   7.35676
C    -2.44278  -7.78342   8.29118
C    -3.20370  -8.89929   7.57531
C    -4.68155  -8.64191   7.28346
C    -5.08721  -7.37778   6.46662
C    -4.32576  -7.20067   5.14558
O    -4.03873  -6.13442   4.64920
O    -4.08608  -8.37543   4.57260
C    -3.44373  -8.35146   3.28668
C    -6.55757  -7.53790   5.96701
O    -6.97666  -6.96770   4.98214
O    -7.27332  -8.36881   6.70614
C    -8.65759  -8.52455   6.34973
H    -5.41547  -0.41126   7.24242
H    -7.08075  -0.41657   7.89502
H    -5.68584  -0.17256   8.98774
H    -6.85346  -2.67628   8.40353
H    -3.58093  -4.25137  12.57582
H    -4.49998  -2.71665  12.80367
H    -5.36607  -4.29969  12.78819
H    -2.52645  -3.22499   6.87020
H    -1.12392  -4.26945   6.48582
H    -2.68053  -4.52025   5.64436
H    -0.95633  -6.49398   7.34484
H    -2.29780  -6.86785   6.31394
H    -3.03729  -7.40778   9.13956
H    -1.52978  -8.21008   8.73183
H    -3.17585  -9.80851   8.19757
H    -2.67644  -9.15419   6.64154
H    -5.07735  -9.51376   6.74630
H    -5.23483  -8.58046   8.23176
H    -2.45635  -7.87515   3.36607
H    -4.06314  -7.80203   2.56392
H    -3.33936  -9.39927   2.98425
H    -9.17843  -7.56086   6.44280
H    -9.06888  -9.25189   7.05839
H    -8.74738  -8.89710   5.31997
