18
Generated by autodE on: 2022-06-07. E = -584.929143 Ha
C     2.70647  -1.98555  -0.17799
N     1.42470  -1.31231  -0.11443
C     1.35028   0.02466  -0.01152
O     2.34613   0.75911   0.03437
C    -0.01449   0.62306   0.04947
N    -0.00837   1.94139   0.15460
N     0.01367   3.06261   0.24421
C    -1.35984   0.03906   0.01271
O    -2.38645   0.69263   0.06795
O    -1.33354  -1.29635  -0.08708
C    -2.60166  -1.97086  -0.12815
H     3.28103  -1.67642  -1.06592
H     3.31805  -1.76743   0.71179
H     2.53259  -3.06709  -0.23014
H     0.56166  -1.84644  -0.14781
H    -2.36783  -3.03881  -0.20093
H    -3.17903  -1.64492  -1.00472
H    -3.17281  -1.76551   0.78809
