35
Generated by autodE on: 2022-06-07. E = -3381.034285 Ha
C    -0.74473  -1.55607   4.10453
O    -0.38455  -1.12224   2.78002
C     0.21850  -2.00946   2.00354
O     0.48872  -3.14433   2.33503
C     0.50645  -1.48685   0.58561
C     1.91421  -1.99455   0.22421
O     2.16043  -2.77910  -0.66166
O     2.82634  -1.44846   1.02406
C     4.19470  -1.83927   0.81739
C     0.40698  -0.03597   0.46651
C    -0.08689   1.02844   0.16345
C    -1.07522   1.96632  -0.32909
C    -1.26177   3.22039   0.51020
Br   -0.43279   2.57691  -2.17424
C    -2.38416   1.16886  -0.52032
C    -2.28186  -0.21546  -1.18831
C    -1.96905  -1.45259  -0.29816
C    -0.56349  -2.08014  -0.38695
H     0.15473  -1.84968   4.66342
H    -1.44068  -2.40470   4.04813
H    -1.22749  -0.69495   4.57942
H     4.30721  -2.92181   0.97189
H     4.78055  -1.28508   1.55912
H     4.51582  -1.57482  -0.19995
H    -0.32533   3.78806   0.59572
H    -1.58398   2.92241   1.52110
H    -2.03610   3.86589   0.07238
H    -3.07733   1.80959  -1.08652
H    -2.81573   1.05615   0.48975
H    -3.26397  -0.39481  -1.65165
H    -1.56819  -0.16441  -2.02730
H    -2.66517  -2.24906  -0.60174
H    -2.21942  -1.23313   0.75304
H    -0.61695  -3.15920  -0.17961
H    -0.16572  -1.97062  -1.40630
