51
Generated by autodE on: 2022-06-12. E = -1895.580914 Ha
C     1.43342  -2.08791   3.28413
N     1.07759  -1.12576   2.25736
C     1.87162  -0.90941   1.20756
O     2.99436  -1.39114   1.06806
C     1.34431   0.12835   0.16495
C     2.49952   1.14891   0.07680
O     3.37344   1.11089  -0.75488
O     2.42469   2.00837   1.07714
C     3.47255   2.99460   1.16454
O     0.21130   0.81580   0.62090
N    -0.91857  -0.00760   0.32049
C    -2.11271   0.71619   0.62777
C    -3.32457   0.02445   0.77148
C    -4.48735   0.72359   1.10016
C    -4.45260   2.10407   1.31459
C    -3.23952   2.78570   1.18431
C    -2.07319   2.10331   0.83513
C    -0.68084  -0.69119  -0.96459
C    -1.03148  -2.24179  -0.83008
C    -1.13431  -2.86424   0.52881
O    -1.21874  -2.86390  -1.84964
C    -1.60555  -0.16951  -2.12418
F    -2.83198  -0.70388  -2.03931
F    -1.10528  -0.49820  -3.32422
F    -1.76534   1.15542  -2.10305
C     0.88048  -0.42424  -1.24121
C     1.08292   0.79249  -2.26040
C     1.69469   0.59516  -3.61415
O     0.74805   1.88746  -1.87190
C     1.64758  -1.67890  -1.72202
F     1.18966  -2.10723  -2.90703
F     2.95124  -1.42824  -1.86351
F     1.53370  -2.71220  -0.87181
H     2.41244  -1.84294   3.72145
H     1.48673  -3.10791   2.87026
H     0.67147  -2.06064   4.07191
H     0.14289  -0.72996   2.25107
H     3.48453   3.61001   0.25450
H     3.23216   3.60639   2.04049
H     4.44435   2.49853   1.29383
H    -3.37507  -1.05303   0.62102
H    -5.42575   0.17408   1.20251
H    -5.36317   2.64358   1.58365
H    -3.19594   3.86512   1.34719
H    -1.13471   2.64065   0.71712
H    -1.66192  -3.82055   0.42361
H    -1.63200  -2.21761   1.25902
H    -0.12193  -3.06219   0.91093
H     1.63160   1.54961  -4.15043
H     2.75197   0.31613  -3.49377
H     1.20307  -0.19878  -4.18660
