22
Generated by autodE on: 2022-06-12. E = -1058.437448 Ha
C     3.02141  -0.15555   0.29392
C     1.82316  -0.60457  -0.47992
O     1.80082  -1.56907  -1.21506
C     0.54964   0.22194  -0.31015
C    -0.54026  -0.21549   0.33335
C    -1.80996   0.61714   0.48875
C    -3.04564   0.09251  -0.17238
O    -1.75875   1.65123   1.12128
C    -0.59211  -1.58942   0.97332
F    -1.00868  -2.52355   0.10470
F    -1.45466  -1.58878   2.00481
F     0.59758  -1.98226   1.45087
C     0.58818   1.58631  -0.97624
F     0.91567   2.55729  -0.11135
F     1.50961   1.59441  -1.95597
F    -0.58537   1.91710  -1.53468
H     3.87989  -0.79911   0.06154
H     2.78414  -0.20670   1.36928
H     3.26224   0.89574   0.07008
H    -3.86354   0.81521  -0.05497
H    -3.33849  -0.87253   0.27146
H    -2.83831  -0.08943  -1.23914
