51
Generated by autodE on: 2022-06-12. E = -1895.524785 Ha. Imaginary frequency = -171.2 cm-1
C     3.08403  -2.67363   2.61161
N     2.72770  -1.42100   1.97826
C     1.45035  -1.01393   1.92263
O     0.53233  -1.59553   2.50452
C     1.20921   0.26018   1.14293
C     2.29584   1.28791   1.08368
O     3.45418   0.99741   0.83884
O     1.87290   2.51797   1.33324
C     2.83563   3.57379   1.17406
O     0.01877   0.84239   1.21815
N    -1.07565   0.10638   1.08481
C    -2.19802   0.91696   1.26460
C    -3.44335   0.25825   1.23443
C    -4.61761   0.98451   1.41090
C    -4.56423   2.36573   1.62747
C    -3.32480   3.02115   1.66726
C    -2.14394   2.31097   1.48706
C    -0.56110  -0.57752  -1.08898
C    -1.23885  -1.95494  -1.14032
C    -1.51063  -2.75122   0.09503
O    -1.56818  -2.33594  -2.24864
C    -1.40786   0.47328  -1.79849
F    -2.71642   0.19829  -1.67504
F    -1.22106   1.71949  -1.34633
F    -1.13843   0.50145  -3.12255
C     0.83259  -0.46970  -1.09330
C     1.48060   0.70168  -1.85312
C     2.08159   0.40060  -3.19848
O     1.45592   1.82614  -1.40071
C     1.66671  -1.74131  -1.14831
F     1.58277  -2.33232  -2.35825
F     2.96709  -1.47766  -0.93594
F     1.29166  -2.67026  -0.25566
H     2.56994  -3.51867   2.12456
H     2.81012  -2.67635   3.67771
H     4.16762  -2.81668   2.52318
H     3.42632  -0.88621   1.46636
H     3.68499   3.42489   1.85517
H     3.19137   3.59987   0.13442
H     2.30502   4.49997   1.42034
H    -3.47391  -0.81784   1.06969
H    -5.57984   0.46923   1.38505
H    -5.48617   2.93310   1.77173
H    -3.28312   4.09830   1.84296
H    -1.18060   2.81784   1.51926
H    -0.86371  -2.48814   0.93551
H    -2.55138  -2.53284   0.38883
H    -1.45484  -3.82007  -0.15369
H     3.03523  -0.13558  -3.07077
H     2.27430   1.35043  -3.71323
H     1.41569  -0.23847  -3.79427
