47
Generated by autodE on: 2022-10-21. E = -1198.410931 Ha
C    -0.35145  -1.37743   2.60144
O     0.30560  -2.13303   1.59013
C    -0.00777  -1.82858   0.23493
C     0.88838  -2.76146  -0.62620
C     1.24711  -4.09518  -0.04843
O     1.23638  -2.40448  -1.73648
C    -1.46608  -2.20371  -0.09680
C    -1.91525  -2.02484  -1.55945
C    -2.92008  -0.89794  -1.79542
C    -2.37889   0.52610  -1.84810
C    -1.73091   1.11138  -0.53520
C    -2.53749   0.78113   0.66012
N    -3.18863   0.53931   1.58746
C    -1.84441   2.58366  -0.66396
N    -1.95066   3.72997  -0.79313
C    -0.25487   0.76371  -0.32654
C     0.37948  -0.38994  -0.04087
N     1.76799  -0.10346   0.08982
C     2.70609  -0.82373   0.67559
N     3.57555  -1.44490   1.15009
N     2.08318   1.19735  -0.41719
C     2.56794   1.06575  -1.79839
C     0.77925   1.88109  -0.33487
C     0.73456   2.72025   0.96377
C     1.40146   4.05743   0.90325
O     0.18189   2.28946   1.95890
H    -1.43632  -1.56435   2.62184
H    -0.17616  -0.29600   2.48282
H     0.08336  -1.70522   3.55531
H     1.68155  -4.72875  -0.83231
H     1.98496  -3.94285   0.75496
H     0.37265  -4.58164   0.40721
H    -1.56378  -3.25706   0.20199
H    -2.12727  -1.64970   0.58038
H    -1.04762  -1.88455  -2.22136
H    -2.38811  -2.96364  -1.88293
H    -3.39957  -1.05975  -2.77400
H    -3.73124  -0.95831  -1.05013
H    -3.21068   1.19490  -2.11083
H    -1.60946   0.63096  -2.62709
H     3.50438   0.49161  -1.79294
H     2.77898   2.07260  -2.18216
H     1.83493   0.56481  -2.45472
H     0.68703   2.55383  -1.19724
H     0.76546   4.71811   0.28840
H     2.37609   3.98688   0.39827
H     1.51076   4.48390   1.90859
