16
Generated by autodE on: 2022-10-26. E = -434.348853 Ha
C    -1.34227   0.77735   1.78698
C    -1.01859   1.62255   0.59279
O    -1.43891   2.77312   0.47833
C    -0.18072   1.13081  -0.51576
N     0.39274  -0.04703  -0.65376
C     1.18884  -0.30063  -1.87484
N     0.28253  -1.00572   0.25611
C     0.88958  -2.14762   0.02290
N     1.37469  -3.21582  -0.04599
H    -0.41918   0.45945   2.29506
H    -1.97667   1.35914   2.46858
H    -1.85399  -0.14641   1.47693
H    -0.01587   1.83611  -1.32830
H     1.17032   0.58795  -2.51073
H     2.21760  -0.53706  -1.57282
H     0.75021  -1.15905  -2.40018
