16
Generated by autodE on: 2022-10-21. E = -434.348924 Ha
C     2.80039   0.68983  -0.63121
C     1.78052   0.13779   0.32833
O     2.08428  -0.26983   1.44540
C     0.40668   0.13675  -0.19691
N    -0.66250  -0.28229   0.45238
C    -0.59933  -0.81824   1.82649
N    -1.90350  -0.27763  -0.02953
C    -2.07470   0.18403  -1.25121
N    -2.34685   0.57252  -2.32542
H     2.54334   1.72852  -0.89712
H     2.79152   0.10760  -1.56739
H     3.79847   0.65493  -0.17679
H     0.23866   0.51352  -1.20715
H    -1.62188  -1.08120   2.10817
H    -0.18800  -0.05325   2.49396
H     0.05540  -1.69637   1.84222
