31
Generated by autodE on: 2022-10-21. E = -763.978807 Ha
C     0.69054   3.46630  -0.44099
O    -0.49311   2.76025  -0.78638
C    -0.32317   1.37656  -1.01046
C     0.34170   1.10605  -2.38957
C     0.03796   2.09021  -3.48117
O     1.02334   0.11406  -2.56169
C     0.38798   0.66646   0.05680
C     0.67604  -0.21203   0.83708
C     0.45573  -1.45055   1.59346
C    -0.10969  -1.13390   2.92354
N    -0.59044  -0.88859   3.94866
C     1.69245  -2.23635   1.77900
N     2.65400  -2.87221   1.89346
C    -0.58500  -2.30011   0.76019
C    -1.84949  -1.53449   0.33292
C    -1.83978  -0.79206  -1.03203
C    -1.75155   0.74502  -1.03271
H     1.48790   3.34226  -1.19454
H     1.08041   3.13683   0.53800
H     0.42199   4.52958  -0.38081
H     0.62528   3.00847  -3.31710
H    -1.02172   2.38251  -3.47596
H     0.31632   1.65630  -4.45031
H    -0.84836  -3.16562   1.38513
H    -0.04006  -2.67362  -0.11901
H    -2.63813  -2.29956   0.27822
H    -2.16583  -0.85053   1.13845
H    -2.79095  -1.03278  -1.52959
H    -1.05684  -1.21459  -1.68228
H    -2.26232   1.14582  -1.92130
H    -2.26751   1.16083  -0.15319
