47
Generated by autodE on: 2022-10-21. E = -1198.331865 Ha. Imaginary frequency = -252.7 cm-1
C    -0.35013  -1.67125   2.73143
O     0.39093  -2.21922   1.65054
C    -0.06459  -1.91150   0.34608
C     0.88387  -2.65730  -0.62888
C     1.38932  -3.99770  -0.18908
O     1.15613  -2.17073  -1.71021
C    -1.50908  -2.44528   0.11138
C    -2.12906  -2.22306  -1.27725
C    -3.01244  -0.97603  -1.47645
C    -2.38504   0.30572  -2.03254
C    -1.68121   1.26262  -1.00075
C    -2.63292   1.61130   0.07686
N    -3.40062   1.82615   0.91778
C    -1.33374   2.49941  -1.73507
N    -1.07151   3.42877  -2.37494
C    -0.49151   0.60799  -0.38590
C    -0.05308  -0.46296   0.06323
N     1.96883   0.15740   0.82780
C     2.90087  -0.77909   0.84844
N     3.66599  -1.65871   0.96497
N     2.13332   1.18566  -0.00905
C     2.89505   0.98761  -1.24979
C     1.17523   2.11087   0.02760
C     0.47567   2.60202   1.24869
C     0.87606   2.14677   2.62095
O    -0.41456   3.42839   1.07848
H    -1.23942  -2.27800   2.96849
H     0.31823  -1.66513   3.60360
H    -0.67191  -0.63786   2.52380
H     1.87626  -4.49946  -1.03518
H     2.11766  -3.85092   0.62260
H     0.57436  -4.61760   0.21253
H    -1.47048  -3.52184   0.33669
H    -2.15312  -1.98431   0.87486
H    -1.35784  -2.26145  -2.06293
H    -2.77691  -3.09326  -1.46112
H    -3.78262  -1.24652  -2.21500
H    -3.56580  -0.75471  -0.54827
H    -3.17070   0.90974  -2.51002
H    -1.63027   0.07549  -2.79876
H     2.93972   1.93308  -1.79940
H     3.91103   0.65804  -0.99845
H     2.38998   0.21351  -1.84759
H     1.16219   2.80385  -0.81335
H     1.96503   2.03654   2.71555
H     0.49079   2.87225   3.34980
H     0.43226   1.16150   2.82504
