55
Generated by autodE on: 2022-06-24. E = -1286.036814 Ha
C     5.15045  -0.31624  -0.33505
O     4.16252   0.28574  -1.17796
C     2.90002   0.35352  -0.67578
C     2.22662   1.53545  -0.57620
O     2.69258   2.76733  -0.80468
C     4.09586   3.05229  -0.78377
C     0.75284   1.54114  -0.31813
O     0.11933   2.55022  -0.58471
C     0.10619   0.37590   0.42074
C    -0.20562   0.96614   1.81228
C    -1.22684  -0.12139  -0.28189
C    -1.00530  -0.18681  -1.81628
C    -2.14803  -0.55899  -2.72354
O     0.11782  -0.05236  -2.27921
C    -2.46850   0.68783   0.06880
C    -2.84338   1.79489  -0.70682
C    -3.95701   2.56534  -0.36508
C    -4.71884   2.23966   0.76111
C    -4.35671   1.13610   1.53855
C    -3.24225   0.36754   1.19348
N    -1.30403  -1.50295   0.21800
C    -2.38639  -2.36980  -0.22060
C     0.03029  -2.09186   0.11741
C     0.17122  -3.37701   0.92174
C     0.99365  -0.92485   0.49847
C     1.66606  -1.12241   1.87792
C     2.18186  -0.91661  -0.45437
O     2.62439  -1.95591  -0.93148
H     6.08467  -0.33173  -0.91109
H     4.87436  -1.34485  -0.06057
H     5.29227   0.28487   0.57817
H     4.17128   4.14583  -0.72450
H     4.57177   2.60160   0.10007
H     4.58936   2.69388  -1.69586
H     0.71813   1.28177   2.31466
H    -0.84917   1.84720   1.70996
H    -0.71363   0.23124   2.44725
H    -2.13224   0.11375  -3.59414
H    -3.13072  -0.52263  -2.24421
H    -1.96466  -1.58031  -3.09614
H    -2.25628   2.07190  -1.58325
H    -4.22997   3.42367  -0.98352
H    -5.59128   2.84059   1.02859
H    -4.94459   0.86918   2.42010
H    -2.96639  -0.49120   1.80452
H    -2.18966  -2.85414  -1.19696
H    -3.32287  -1.80535  -0.29896
H    -2.54510  -3.16871   0.51849
H     0.24087  -2.36176  -0.93642
H    -0.08858  -3.23475   1.98067
H    -0.47847  -4.16274   0.51010
H     1.20544  -3.74162   0.85718
H     0.92154  -1.26401   2.67003
H     2.29020  -0.25603   2.13439
H     2.31522  -2.00744   1.85840
