29
Generated by autodE on: 2022-06-24. E = -596.535449 Ha
C     1.85249   0.29495   3.50948
C     0.73842   0.29738   2.53272
N     0.86283  -0.07608   1.29308
C     2.18850  -0.47419   0.78605
C    -0.28371  -0.30331   0.46510
C    -1.35130  -1.02323   1.05969
C    -2.59784  -1.32723   0.24165
O    -1.34334  -1.43704   2.25518
C    -0.17920   0.21450  -0.90280
C    -0.69206  -0.45847  -2.03652
C    -0.56601   0.07889  -3.31863
C     0.09986   1.29207  -3.52463
C     0.64213   1.96006  -2.42118
C     0.50093   1.43510  -1.13673
H     2.30340  -0.70851   3.59584
H     1.49411   0.61397   4.49574
H     2.65880   0.97728   3.18809
H    -0.25394   0.62979   2.83504
H     2.11060  -0.70707  -0.27883
H     2.52691  -1.36878   1.32911
H     2.91632   0.33366   0.93609
H    -2.50638  -2.30458  -0.26067
H    -2.81483  -0.57235  -0.52547
H    -3.44600  -1.39210   0.93873
H    -1.16929  -1.43060  -1.91854
H    -0.97604  -0.47025  -4.17046
H     0.20375   1.70495  -4.53069
H     1.17144   2.90657  -2.55974
H     0.91738   1.98441  -0.28918
