55
Generated by autodE on: 2022-06-24. E = -1285.996272 Ha. Imaginary frequency = -430.8 cm-1
C     5.19391   0.10053  -0.80078
O     3.92398  -0.32664  -1.29852
C     2.86536  -0.01780  -0.48149
C     2.15037   1.13784  -0.58885
O     2.30039   2.09544  -1.50750
C     2.90708   1.83126  -2.77792
C     1.07266   1.47739   0.40533
O     0.64516   2.65280   0.41555
C     0.63580   0.44848   1.30430
C    -0.30466   0.83337   2.40840
C    -1.29510  -0.30837  -0.54848
C    -0.51493   0.11919  -1.74129
C    -0.81649   1.47810  -2.32390
O     0.32128  -0.60165  -2.29823
C    -2.60029   0.38879  -0.34820
C    -2.65139   1.68992   0.17399
C    -3.87484   2.35143   0.30451
C    -5.06028   1.72935  -0.09656
C    -5.01595   0.44057  -0.63867
C    -3.79563  -0.22412  -0.76655
N    -1.07609  -1.49930   0.07149
C    -2.06752  -2.05705   1.00847
C     0.19466  -2.05562   0.08724
C     0.36509  -3.48811   0.49943
C     1.24812  -0.85048   1.32398
C     1.24628  -1.58616   2.65303
C     2.54087  -0.99917   0.56218
O     3.29653  -1.95104   0.76492
H     5.94742  -0.21233  -1.53655
H     5.41687  -0.36858   0.17072
H     5.22534   1.19765  -0.69048
H     2.52102   0.89358  -3.19900
H     2.61681   2.67373  -3.41916
H     4.00205   1.78883  -2.70228
H     0.21487   0.80684   3.38253
H    -0.68938   1.84817   2.26628
H    -1.15605   0.14164   2.49189
H    -0.56304   2.27218  -1.60405
H    -1.88083   1.58670  -2.57481
H    -0.20882   1.60628  -3.22856
H    -1.72847   2.19293   0.45857
H    -3.89835   3.36228   0.71826
H    -6.01562   2.24963   0.00434
H    -5.93521  -0.04904  -0.96836
H    -3.76629  -1.22599  -1.19963
H    -1.56048  -2.43558   1.89974
H    -2.60593  -2.88628   0.52753
H    -2.78374  -1.29196   1.31206
H     0.73085  -1.80787  -0.82316
H     1.43405  -3.73667   0.47525
H    -0.02578  -3.72627   1.49585
H    -0.14569  -4.13838  -0.23144
H     0.22972  -1.75075   3.02988
H     1.78777  -0.98996   3.40607
H     1.75245  -2.55355   2.57301
