44
Generated by autodE on: 2022-06-09. E = -906.079320 Ha
C     4.08980   1.36320   0.36893
C     2.76046   1.53857   1.13675
C     3.04996   1.54178   2.58248
N     3.28604   1.56616   3.71858
C     1.79689   0.48076   0.80241
C     0.83975  -0.01459   0.24922
C    -0.36719  -0.15834  -0.56913
C    -0.33795  -1.47520  -1.36170
C    -0.65802  -1.54542  -2.72321
C    -0.65937  -2.77646  -3.39054
C    -0.34008  -3.95147  -2.70737
C    -0.01861  -3.88964  -1.34639
C    -0.01931  -2.66222  -0.68302
C    -1.64653  -0.12359   0.29197
C    -1.61853   0.12379   1.66950
C    -2.80518   0.17484   2.41079
C    -4.03692  -0.01877   1.78309
C    -4.07402  -0.26603   0.40570
C    -2.88990  -0.31972  -0.33064
C    -0.32206   1.10993  -1.49072
C    -0.07516   2.45532  -0.77694
C     1.39199   2.94795  -0.62107
C     2.04787   2.89046   0.77269
H     3.89280   1.38585  -0.71136
H     4.78000   2.17971   0.62573
H     4.55975   0.40218   0.62041
H    -0.91461  -0.64340  -3.27847
H    -0.91168  -2.81155  -4.45317
H    -0.34008  -4.91061  -3.23055
H     0.23420  -4.80155  -0.79993
H     0.22853  -2.62044   0.38064
H    -0.66257   0.27864   2.17140
H    -2.76066   0.36778   3.48547
H    -4.96323   0.02024   2.36110
H    -5.03115  -0.42166  -0.09807
H    -2.93332  -0.52270  -1.40259
H     0.46051   0.95231  -2.24895
H    -1.28041   1.15777  -2.02771
H    -0.60172   3.21458  -1.37523
H    -0.57944   2.45840   0.20386
H     2.03510   2.44691  -1.36316
H     1.40537   4.01234  -0.90222
H     1.28629   3.09388   1.54138
H     2.81135   3.67967   0.85756
