18
Generated by autodE on: 2022-06-09. E = -585.543455 Ha
N     3.09336   2.31376  -0.49794
C     2.67695   1.24340  -0.28769
C     2.19576  -0.05350  -0.03310
C     3.02888  -1.16766   0.16900
N     3.74032  -2.07886   0.33352
O     0.88047  -0.29906   0.03787
N     0.02649   0.66399  -0.13058
C    -1.26985   0.22446  -0.02201
C    -2.24931   1.23174  -0.19405
C    -3.59747   0.90619  -0.10384
C    -3.98198  -0.41498   0.15608
C    -3.01099  -1.41709   0.32669
C    -1.66075  -1.11300   0.24081
H    -1.92162   2.25296  -0.39486
H    -4.35402   1.68201  -0.23569
H    -5.04142  -0.67008   0.22682
H    -3.32093  -2.44449   0.52835
H    -0.90434  -1.88652   0.37216
