18
Generated by autodE on: 2022-07-27. E = -585.524297 Ha
N    -1.92584   0.69440  -1.41254
C    -1.76429   0.20146  -0.36600
C    -1.60626  -0.40255   0.89003
C    -2.65996  -0.44121   1.82447
N    -3.53822  -0.44814   2.59313
O    -0.54816  -1.17376   1.23598
N     0.63345  -1.30654   0.70804
C     1.15514  -0.35873  -0.14746
C     0.90721   1.03941  -0.10457
C     1.67503   1.89040  -0.89063
C     2.65158   1.38045  -1.75544
C     2.90209   0.00144  -1.80157
C     2.18327  -0.86017  -0.98697
H     0.17489   1.46449   0.57963
H     1.50205   2.96680  -0.83508
H     3.22656   2.06082  -2.38701
H     3.67288  -0.39463  -2.46540
H     2.38367  -1.93256  -0.97886
