26
Generated by autodE on: 2022-06-21. E = -669.376915 Ha
C    -2.54084  -1.59356   1.30131
C    -2.93267  -0.27600   0.66252
O    -4.11323   0.09721   0.66911
C    -1.86856   0.50009   0.05889
N    -0.60939  -0.00091   0.10636
C     0.51498  -0.28953   0.06103
C     1.88735  -0.62263   0.00036
C     2.34781  -1.86239   0.49071
C     3.70706  -2.15380   0.41334
C     4.59905  -1.23042  -0.14505
C     4.13493  -0.00240  -0.63146
C     2.78121   0.31361  -0.56329
C    -1.94763   1.78873  -0.61583
C    -3.29036   2.46277  -0.74445
O    -0.92829   2.32291  -1.07720
H    -2.08481  -2.26871   0.55919
H    -1.79762  -1.43820   2.09992
H    -3.43608  -2.06795   1.72332
H     1.64147  -2.57302   0.92189
H     4.07385  -3.11019   0.79110
H     5.66309  -1.46955  -0.20166
H     4.83345   0.71513  -1.06645
H     2.39939   1.26514  -0.93630
H    -3.99718   1.82592  -1.29695
H    -3.15167   3.41622  -1.27193
H    -3.73746   2.63995   0.24482
