49
Generated by autodE on: 2022-06-21. E = -1020.897144 Ha. Imaginary frequency = -344.7 cm-1
C    -1.45907   2.42785   2.33941
C    -0.15814   2.31978   1.57285
O     0.42230   3.34298   1.17962
C     0.32144   0.98274   1.28455
C     1.58570   0.60726   0.65990
C     2.51484   1.68725   0.17387
O     1.88110  -0.58691   0.50926
N    -0.46876  -0.05543   1.64091
C    -1.22880  -0.91565   1.28781
C    -1.78949  -2.14964   1.79359
C    -1.02953  -2.88836   2.72543
C    -1.52972  -4.08537   3.23058
C    -2.78631  -4.54854   2.82232
C    -3.54160  -3.81666   1.90031
C    -3.04487  -2.62441   1.37507
C    -1.89206  -0.51723  -0.75526
C    -1.12126   0.47741  -1.33721
C    -1.59097   1.90817  -1.35327
C     0.09115   0.10853  -2.02954
C     0.92075   0.96282  -2.69003
C     2.15618   0.54260  -3.30526
C     3.09838   1.34505  -3.86711
C     2.99901   2.84110  -3.94041
C     4.35521   0.76353  -4.44706
H    -1.41322   1.86929   3.28713
H    -2.28431   1.99695   1.74949
H    -1.67287   3.48574   2.53944
H     3.41600   1.21320  -0.23743
H     2.78046   2.37958   0.98563
H     2.02779   2.28962  -0.60761
H    -0.05105  -2.51613   3.03317
H    -0.93927  -4.65907   3.94805
H    -3.17722  -5.48609   3.22394
H    -4.52198  -4.17885   1.58455
H    -3.63376  -2.05792   0.65447
H    -2.90487  -0.27574  -0.42306
H    -1.69226  -1.56083  -1.01107
H    -1.94077   2.17755  -2.36568
H    -0.79344   2.61948  -1.09474
H    -2.42790   2.05732  -0.65738
H     0.36791  -0.95010  -1.98114
H     0.65940   2.02305  -2.73075
H     2.35627  -0.53507  -3.28321
H     2.06002   3.24297  -3.53941
H     3.83401   3.30227  -3.38340
H     3.10360   3.18221  -4.98527
H     5.24649   1.18372  -3.94728
H     4.45184   1.02894  -5.51526
H     4.38774  -0.33192  -4.35530
