27
Generated by autodE on: 2022-10-06. E = -1059.812076 Ha
C     3.70022  -1.94102   0.14645
O     2.62432  -1.04267   0.45820
C     1.89641  -0.61084  -0.56667
O     2.14650  -0.84380  -1.73133
C     0.78016   0.31573  -0.16678
C     1.07559   1.77525  -0.54599
O     1.83631   2.25013  -1.34771
O     0.25110   2.52479   0.23080
N    -0.54679   1.54405   1.03771
C    -1.48889   0.99839  -0.02433
C    -2.80028   0.43355   0.57000
O    -2.74317  -0.18573   1.66016
O    -3.82857   0.65811  -0.11378
C    -0.59415   0.01108  -0.82902
C    -0.96593  -1.49354  -0.76295
O    -0.10614  -2.28451  -0.29540
O    -2.09100  -1.79657  -1.22356
N     0.47895   0.57875   1.24806
C     0.18716  -0.46072   2.22390
H     4.17726  -2.18331   1.10277
H     4.42096  -1.45973  -0.52961
H     3.30420  -2.85239  -0.32435
H    -1.77388   1.85489  -0.64198
H    -0.58775   0.28817  -1.89200
H    -0.60855  -1.15360   1.93057
H    -0.10934   0.03914   3.15648
H     1.11515  -1.01577   2.40585
