10
Generated by autodE on: 2022-10-06. E = -455.046629 Ha
O     1.79836  -1.31165   0.57176
C     1.50045  -0.42177  -0.26623
O     1.68799  -0.46808  -1.50947
C     0.95546   0.87986   0.29151
C    -0.32865   1.21112   0.50763
C    -1.53215   0.33930   0.23467
O    -1.35164  -0.80831  -0.26176
O    -2.65494   0.83984   0.53112
H     1.73060   1.61829   0.53994
H    -0.56423   2.19801   0.92262
