39
Generated by autodE on: 2022-06-19. E = -993.261273 Ha
C    -1.64231   2.96730  -0.31053
C    -0.52219   2.83458   0.41172
C     0.12259   3.99681   1.11720
C     0.20641   1.51521   0.56674
C    -0.61903   0.19156   0.48614
C    -0.65478  -0.55651   1.78545
C    -1.69788  -1.24970   2.27775
C    -1.57677  -1.98608   3.58426
C    -3.03435  -1.38351   1.60216
C     0.20016  -0.59113  -0.61188
C    -0.00393  -2.08907  -0.62674
O    -1.12418  -2.52180  -0.90289
N     1.06844  -2.82320  -0.31141
C     1.04832  -4.27074  -0.22828
O     1.54909  -0.15128  -0.37043
C     1.27596   1.21942  -0.53209
C     2.49733   2.02137  -0.53684
N     3.45463   2.67175  -0.51860
O     0.64504   1.29199  -1.83186
C    -0.08584   0.13767  -1.92756
O    -0.79650  -0.12358  -2.85324
H    -2.12699   3.94252  -0.41182
H    -2.11506   2.12765  -0.82626
H    -0.43167   4.93089   0.94908
H     1.16105   4.14384   0.77502
H     0.17675   3.80727   2.20303
H     0.76489   1.52665   1.51333
H    -1.62875   0.37018   0.10619
H     0.28366  -0.55468   2.35003
H    -0.57827  -1.87555   4.03181
H    -2.32799  -1.62317   4.30736
H    -1.77925  -3.06201   3.44131
H    -3.20665  -2.43717   1.32300
H    -3.13356  -0.77779   0.69260
H    -3.84480  -1.10735   2.29796
H     1.93727  -2.33507  -0.11503
H     1.73547  -4.71485  -0.96460
H     0.03082  -4.62307  -0.43313
H     1.34782  -4.60429   0.77667
