23
Generated by autodE on: 2022-06-19. E = -351.521384 Ha
C     3.60179  -1.02435   0.52622
C     2.56824  -0.20944   0.22040
C     2.79510   1.22397  -0.18714
C     1.19794  -0.71395   0.28244
C     0.07864   0.00017   0.00298
C    -1.25920  -0.55002   0.08136
C    -2.42470   0.09490  -0.17828
C    -3.74207  -0.61659  -0.05091
C    -2.52350   1.53266  -0.60278
H     3.43396  -2.06464   0.82173
H     4.63668  -0.67304   0.48835
H     2.28317   1.91824   0.49981
H     3.86600   1.47127  -0.19346
H     2.38816   1.42028  -1.19304
H     1.08713  -1.76277   0.58320
H     0.18134   1.04642  -0.29741
H    -1.32087  -1.60212   0.38493
H    -4.29077  -0.59899  -1.00977
H    -3.62105  -1.66420   0.26164
H    -4.39310  -0.10642   0.68174
H    -3.13625   2.10213   0.11837
H    -1.55181   2.03431  -0.69623
H    -3.04494   1.60929  -1.57327
