39
Generated by autodE on: 2022-06-19. E = -993.206488 Ha. Imaginary frequency = -278.4 cm-1
C    -1.54865   2.95679  -0.79638
C    -0.58851   3.02015   0.14358
C     0.05231   4.32475   0.53977
C    -0.06253   1.82336   0.84414
C    -0.81956   0.64971   1.02180
C    -0.48860  -0.29843   2.03305
C    -1.20758  -1.41692   2.35561
C    -2.48075  -1.82231   1.68588
C    -0.73606  -2.32651   3.44483
C     0.49523  -0.79707  -0.85662
C     0.15434  -2.18438  -0.56316
O     0.68747  -2.79038   0.37728
N    -0.78671  -2.71351  -1.38012
C    -1.36355  -4.02140  -1.16240
O     1.53969  -0.20324  -0.19126
C     1.46359   1.09694  -0.51369
C     2.61316   1.90742  -0.25617
N     3.50893   2.60172  -0.00305
O     0.81519   1.25296  -1.68778
C     0.03565   0.07726  -1.87119
O    -0.80360   0.00401  -2.74907
H    -1.90211   3.86505  -1.29199
H    -2.00406   2.01510  -1.11229
H    -0.39015   5.17312  -0.00100
H     1.13561   4.30763   0.33319
H    -0.05641   4.50209   1.62326
H     0.66333   2.02945   1.63730
H    -1.74958   0.53097   0.46420
H     0.42831  -0.10407   2.59811
H    -3.31295  -1.76267   2.40955
H    -2.73877  -1.21628   0.80958
H    -2.41888  -2.87928   1.37965
H     0.17501  -1.95538   3.93403
H    -0.53209  -3.32782   3.02783
H    -1.52457  -2.46234   4.20541
H    -1.19999  -2.10497  -2.08334
H    -1.57682  -4.50202  -2.12756
H    -2.30436  -3.96551  -0.58722
H    -0.65473  -4.64468  -0.60354
