12
Generated by autodE on: 2022-06-17. E = -157.299004 Ha
C     1.59068  -0.38452   0.38097
C     0.63297   0.66582  -0.09678
C    -0.69145   0.54486  -0.28037
C    -1.53976  -0.67038  -0.05243
H     2.38649  -0.55741  -0.36501
H     2.10255  -0.05776   1.30346
H     1.10458  -1.34888   0.58704
H     1.08388   1.64175  -0.31746
H    -1.23209   1.43020  -0.63861
H    -2.33363  -0.46136   0.68636
H    -0.96401  -1.53588   0.30527
H    -2.05773  -0.96689  -0.98169
