24
Generated by autodE on: 2022-07-27. E = -593.149001 Ha
C    -5.12370   1.04231  -0.05466
O    -4.13996   0.02558   0.12509
C    -2.83929   0.41411  -0.00141
O    -2.52855   1.58664  -0.25894
C    -1.92560  -0.65409   0.19348
N    -0.60470  -0.35171   0.08839
C     0.45956  -1.11586   0.21329
C     1.81775  -0.64022   0.07825
C     2.15457   0.71021  -0.17488
C     3.48686   1.09625  -0.29775
C     4.51691   0.15477  -0.17051
C     4.19827  -1.18387   0.08356
C     2.86730  -1.57827   0.20704
H    -5.06937   1.47615  -1.06534
H    -6.09693   0.55518   0.08602
H    -5.00347   1.84964   0.68452
H    -2.22226  -1.67563   0.41952
H    -0.45444   0.64301  -0.12471
H     0.28057  -2.17077   0.43164
H     1.37481   1.46950  -0.27481
H     3.72605   2.14413  -0.49377
H     5.55973   0.46462  -0.26791
H     4.99345  -1.92617   0.18597
H     2.62177  -2.62458   0.40453
