36
Generated by autodE on: 2022-06-17. E = -750.436627 Ha. Imaginary frequency = -417.4 cm-1
C    -4.90860   1.44888   0.33631
O    -3.86880   0.49331   0.55796
C    -2.60140   0.97018   0.56886
O    -2.34642   2.16760   0.43372
C    -1.62048  -0.07719   0.67309
N    -0.32438   0.30620   0.84777
C     0.67997  -0.55180   0.57391
C     2.07156  -0.12048   0.50906
C     2.44648   1.21316   0.23750
C     3.79120   1.56589   0.13155
C     4.79391   0.59944   0.28029
C     4.43614  -0.72755   0.54010
C     3.09187  -1.08357   0.65573
C     0.01700  -1.09035  -1.52490
C     0.57997  -2.48615  -1.60825
C    -1.35324  -0.82900  -1.49219
C    -2.39982  -1.91070  -1.50981
H    -4.78004   1.95255  -0.63367
H    -5.84834   0.88346   0.34168
H    -4.92312   2.20597   1.13477
H    -1.91148  -1.07451   0.99604
H    -0.16166   1.30243   0.69427
H     0.49408  -1.58761   0.86071
H     1.68595   1.98522   0.09639
H     4.06023   2.60437  -0.07637
H     5.84593   0.88008   0.19218
H     5.20966  -1.49011   0.65949
H     2.81737  -2.11895   0.86997
H     0.65817  -0.29678  -1.91995
H     0.44594  -2.91867  -2.61724
H     1.65946  -2.49734  -1.39163
H     0.09058  -3.17382  -0.90016
H    -1.67616   0.15075  -1.85549
H    -2.14071  -2.74715  -0.84207
H    -3.38154  -1.52354  -1.19898
H    -2.51769  -2.33648  -2.52412
