30
Generated by autodE on: 2022-10-21. E = -998.785510 Ha
C     3.73845   1.41476  -0.08459
O     2.31943   1.54446   0.13273
C     1.68953   0.49228   0.62307
O     2.20048  -0.55213   0.94113
C     0.16211   0.72843   0.71273
C    -0.15446   2.14678   0.89098
N    -0.43089   3.26041   1.05313
N    -0.37831  -0.04396   1.84034
C    -0.92438  -1.12284   1.42106
C    -1.52482  -2.15986   2.29243
C    -0.90109  -1.30579  -0.08944
F     0.14239  -2.16333  -0.41794
O    -2.08245  -1.80218  -0.54451
C    -2.23209  -1.92618  -1.96909
C    -0.51957   0.12295  -0.58719
F    -1.69958   0.81529  -0.77681
O     0.21957   0.08146  -1.72313
C     0.39241   1.31312  -2.44623
H     4.06608   2.37799  -0.48964
H     4.24550   1.20144   0.86629
H     3.93162   0.60629  -0.80307
H    -1.42181  -1.89401   3.35167
H    -1.03026  -3.12619   2.09990
H    -2.58883  -2.28621   2.03738
H    -1.35089  -2.40860  -2.41464
H    -2.39647  -0.94278  -2.43242
H    -3.11516  -2.55720  -2.12749
H     1.12933   1.09845  -3.22887
H     0.77232   2.11313  -1.79627
H    -0.55746   1.62307  -2.90371
