16
Generated by autodE on: 2022-10-21. E = -492.366864 Ha
C     3.55293  -1.67932  -0.44038
C     2.36094  -0.89096  -0.26006
N     1.40536  -0.25117  -0.11692
C     0.23666   0.41760   0.04326
C     0.26536   1.81035   0.23727
N     0.28206   2.96886   0.39907
C    -0.97597  -0.36984   0.00380
O    -1.01788  -1.58218  -0.16436
O    -2.07595   0.39395   0.17659
C    -3.33417  -0.28694   0.15740
H     4.06355  -1.84366   0.52101
H     4.22727  -1.17057  -1.14716
H     3.25831  -2.65020  -0.87086
H    -3.49291  -0.79009  -0.80803
H    -3.38971  -1.03030   0.96663
H    -4.09814   0.48554   0.30635
