14
Generated by autodE on: 2022-10-21. E = -506.335267 Ha
C     2.81428  -0.15699   0.17033
O     1.55484  -0.33847   0.84868
C     0.51663   0.29810   0.30294
F     0.55427   1.64218   0.38808
C    -0.51659  -0.29791  -0.30268
F    -0.55423  -1.64199  -0.38787
O    -1.55473   0.33870  -0.84848
C    -2.81448   0.15639  -0.17098
H     3.55398  -0.75200   0.71995
H     2.73831  -0.51537  -0.86851
H     3.11112   0.90265   0.17882
H    -3.55335   0.75420  -0.71867
H    -3.11262  -0.90285  -0.18321
H    -2.73833   0.51110   0.86911
