16
Generated by autodE on: 2022-06-17. E = -563.553558 Ha
C     3.49042   0.04683   0.31509
C     2.18639  -0.67746   0.24380
O     2.06657  -1.89438   0.31705
C     0.94632   0.13202   0.07519
C     0.96320   1.54089  -0.02222
N     1.04693   2.70067  -0.09495
N    -0.16481  -0.60013   0.02873
C    -1.46702  -0.31537  -0.10965
C    -1.95315   1.00832  -0.25774
N    -2.40493   2.07427  -0.38287
C    -2.39925  -1.38481  -0.10837
N    -3.18116  -2.24799  -0.11016
H     3.47718   0.75833   1.15699
H     3.64249   0.63724  -0.60321
H     4.30954  -0.67118   0.44106
H     0.08095  -1.60577   0.12212
