30
Generated by autodE on: 2022-06-17. E = -834.220927 Ha. Imaginary frequency = -358.8 cm-1
C     3.37013   0.88667   0.76176
C     1.98168   0.66458   1.25772
O     1.50658   1.19570   2.24698
C     1.09195  -0.28737   0.48182
C     1.70335  -1.17366  -0.45844
N     2.25868  -1.86165  -1.21388
N    -0.03023  -0.63211   1.16055
C    -1.19449  -0.99149   0.50253
C    -2.38355  -1.02842   1.30805
N    -3.36942  -1.00871   1.92215
C    -1.13307  -2.04143  -0.48184
N    -1.12136  -2.86421  -1.30119
C    -1.38515   0.74916  -0.74789
C    -2.41113   0.28753  -1.75707
C    -1.88719   1.75111   0.26484
C    -0.02964   0.84814  -1.19668
C     0.78427   2.04747  -1.02523
O     1.74328   2.31359  -1.74277
H     3.94960  -0.04059   0.90998
H     3.83708   1.70933   1.31639
H     3.36995   1.09796  -0.31823
H    -0.15580  -0.04557   1.99600
H    -2.00449  -0.45872  -2.45234
H    -3.30922  -0.11607  -1.26586
H    -2.72520   1.16359  -2.34919
H    -1.20209   1.87034   1.11623
H    -2.88121   1.47215   0.63883
H    -1.98610   2.73476  -0.22343
H     0.25495   0.24225  -2.06252
H     0.49308   2.73625  -0.20361
