38
Generated by autodE on: 2022-10-21. E = -1047.165545 Ha
C    -0.33303  -3.07227  -0.54441
O    -1.06210  -1.91315  -0.10256
C    -1.07627  -0.82836  -0.85545
C    -1.90773   0.24904  -0.74319
C    -2.95549   0.54994   0.21698
C    -3.38427  -0.52777   1.17820
O    -3.46229   1.67666   0.24587
C    -1.37365   1.24891  -1.75342
O    -0.83991   0.39041  -2.77979
C    -0.05803  -0.44173  -1.93126
C     0.89940   0.63641  -1.28296
C    -0.03881   1.86998  -1.19978
C    -0.00027   2.15638   0.27804
C    -0.66608   3.22305   0.92973
N    -1.21515   4.12046   1.43167
N     0.70244   1.29069   0.95474
N     1.26518   0.41582   0.12065
C     2.03544  -0.65639   0.59327
C     1.99942  -1.02134   1.94998
C     2.75738  -2.10341   2.39457
C     3.55187  -2.83626   1.50481
C     3.58329  -2.46915   0.15691
C     2.83294  -1.38582  -0.30492
H    -0.47592  -3.82873   0.23551
H     0.73637  -2.84759  -0.64803
H    -0.74370  -3.43523  -1.49781
H    -3.63622  -1.45629   0.64383
H    -2.54900  -0.76840   1.85606
H    -4.24485  -0.17924   1.76419
H    -2.09000   1.96909  -2.15867
H     0.44164  -1.24124  -2.48436
H     1.78458   0.77974  -1.91415
H     0.27570   2.71810  -1.82002
H     1.37122  -0.45992   2.64030
H     2.71838  -2.38201   3.45033
H     4.13755  -3.68677   1.85962
H     4.19794  -3.02988  -0.55099
H     2.86809  -1.11680  -1.36062
