22
Generated by autodE on: 2022-10-21. E = -574.825616 Ha
C     2.53494   1.82583   0.40429
O     1.11488   1.60194   0.40198
C     0.65724   0.37502   0.24884
C    -0.64222  -0.04397   0.21993
C    -1.89001   0.67508   0.30116
C    -1.84544   2.15262   0.61399
O    -2.96993   0.09560   0.11408
C    -0.51769  -1.54577  -0.11040
C    -0.00043  -1.66980  -1.55942
C     1.26647  -1.24510  -1.51777
C     1.50848  -0.89324  -0.03406
O     0.68913  -1.86972   0.61939
H     2.66788   2.90959   0.49988
H     2.98222   1.47859  -0.53821
H     3.00238   1.31681   1.25970
H    -1.33813   2.69504  -0.20050
H    -1.26747   2.34503   1.53096
H    -2.86831   2.53614   0.72717
H    -1.36411  -2.17425   0.18335
H    -0.60123  -1.97655  -2.41518
H     1.98803  -1.10016  -2.32050
H     2.53975  -0.89630   0.33104
