26
Generated by autodE on: 2022-06-09. E = -1558.659909 Ha
C    -0.02940  -3.39201  -2.19713
O     0.22798  -2.11376  -1.58590
C     1.22387  -1.39911  -2.08865
O     1.94050  -1.74365  -2.99840
C     1.34030  -0.01429  -1.42533
F     2.63789   0.41754  -1.66378
C     1.02552  -0.02650  -0.00305
C     0.34303   0.12189   0.98636
C    -0.79861   0.56923   1.74919
Cl   -1.27111  -0.62823   3.03399
Cl   -0.37966   2.14363   2.57591
C    -1.97286   0.77717   0.77483
C    -1.65633   1.61633  -0.48005
C    -1.12618   0.88508  -1.74457
C     0.37020   0.99676  -2.09372
H    -0.87711  -3.81897  -1.65033
H    -0.28364  -3.25855  -3.25797
H     0.85353  -4.03937  -2.10457
H    -2.78461   1.24092   1.35433
H    -2.31277  -0.22709   0.47755
H    -0.98799   2.45025  -0.21034
H    -2.61063   2.08630  -0.76027
H    -1.42800  -0.17392  -1.72204
H    -1.65466   1.32003  -2.60582
H     0.51213   0.88426  -3.17988
H     0.75358   1.99101  -1.81507
