52
Generated by autodE on: 2022-06-09. E = -2393.587881 Ha. Imaginary frequency = -256.5 cm-1
C   -13.58532  -6.89945  -4.05656
N   -12.23376  -6.61454  -4.49527
C   -11.94134  -5.44046  -5.07874
O   -12.72276  -4.48494  -5.13117
C   -10.58571  -5.33806  -5.70838
C    -9.91500  -4.04271  -6.06028
C   -10.51661  -2.73700  -5.63727
O    -8.86079  -4.09781  -6.67610
O    -9.89888  -6.44686  -5.61822
C    -8.82092  -6.94611  -6.18421
C    -7.57153  -6.26311  -6.22596
N    -6.49303  -5.83054  -6.15834
C    -8.76059  -8.43224  -6.16845
O    -7.74644  -9.04853  -6.42531
O    -9.93880  -8.97677  -5.88157
C   -10.00166 -10.41235  -5.88897
C   -10.02289  -6.56160  -8.40645
C   -11.08807  -6.05936  -8.03927
C   -12.51826  -5.77759  -8.25554
F   -13.27995  -6.45459  -7.30128
C   -12.83330  -4.27971  -8.16391
O   -12.02082  -3.42239  -8.43788
O   -14.09114  -4.06504  -7.82707
C   -14.50501  -2.69301  -7.69356
C   -12.95019  -6.33504  -9.62675
C   -12.14912  -5.85396 -10.84688
C   -11.05052  -6.79658 -11.37439
C    -9.61459  -6.63315 -10.86501
C    -9.25387  -7.19237  -9.47984
Cl   -7.46116  -6.98104  -9.27667
Cl   -9.60613  -8.99063  -9.41868
H   -13.59140  -7.85418  -3.51729
H   -14.27626  -6.96396  -4.91385
H   -13.94705  -6.10759  -3.38535
H   -11.58546  -7.38769  -4.61481
H    -9.74993  -1.96033  -5.75833
H   -11.37730  -2.49903  -6.27783
H   -10.87617  -2.77644  -4.60042
H   -11.03896 -10.66622  -5.64494
H    -9.73647 -10.79732  -6.88350
H    -9.31680 -10.82822  -5.13656
H   -14.30040  -2.13883  -8.61967
H   -13.97260  -2.22785  -6.85189
H   -15.58131  -2.72366  -7.49212
H   -14.01310  -6.07060  -9.73065
H   -12.89203  -7.43006  -9.53010
H   -11.73131  -4.85060 -10.66325
H   -12.87436  -5.72517 -11.66350
H   -10.97569  -6.62784 -12.45971
H   -11.36828  -7.84529 -11.25869
H    -8.93208  -7.12823 -11.57110
H    -9.33990  -5.56651 -10.84182
