20
Generated by autodE on: 2022-06-18. E = -644.893774 Ha
N     4.41787  -1.61552  -1.16517
C     3.45226  -1.10865  -0.74980
C     2.29465  -0.50024  -0.24874
N     1.03421  -0.71450  -0.61911
C     0.17076   0.06743   0.09328
C    -1.27346   0.08055  -0.06206
C    -1.92776  -0.75182  -0.99553
C    -3.31476  -0.71527  -1.12752
C    -4.08141   0.14635  -0.33515
C    -3.44320   0.97299   0.59485
C    -2.05610   0.94502   0.73426
C     0.98277   0.83812   0.98832
O     0.76773   1.68152   1.83951
O     2.31735   0.42612   0.71782
H     0.77426  -1.38279  -1.34663
H    -1.35989  -1.43685  -1.62834
H    -3.80058  -1.36678  -1.85744
H    -5.16797   0.17216  -0.44266
H    -4.03061   1.64933   1.22016
H    -1.56661   1.59260   1.46058
