23
Generated by autodE on: 2022-06-17. E = -351.521383 Ha
C     3.54080   1.32017   0.14191
C     2.55193   0.39966   0.11762
C     2.85358  -1.07585   0.18156
C     1.15741   0.82825   0.02905
C     0.07806   0.00667  -0.00011
C    -1.28706   0.48379  -0.08575
C    -2.41488  -0.27051  -0.11475
C    -2.43315  -1.77187  -0.06236
C    -3.76927   0.37402  -0.20419
H     3.31859   2.39078   0.09566
H     4.59230   1.02724   0.20828
H     2.37005  -1.54288   1.05566
H     2.46671  -1.59949  -0.70846
H     3.93541  -1.25884   0.24664
H     0.99104   1.91140  -0.01499
H     0.23628  -1.07429   0.04344
H    -1.40620   1.57320  -0.12958
H    -1.43524  -2.22395   0.00485
H    -3.02569  -2.11628   0.80364
H    -2.93580  -2.17907  -0.95747
H    -4.31050   0.02481  -1.10192
H    -4.39633   0.08869   0.65966
H    -3.70628   1.47149  -0.24083
