13
Generated by autodE on: 2022-06-17. E = -340.863491 Ha
C    -3.28850  -0.10386  -0.13189
C    -1.87190   0.19261  -0.16771
N    -0.74400   0.45289  -0.20305
N     0.49486   0.82019  -0.27112
C     1.37022  -0.15919   0.12859
C     2.81586   0.25827   0.05339
O     1.03756  -1.28507   0.51767
H    -3.82712   0.71098   0.37634
H    -3.45133  -1.04111   0.42215
H    -3.67854  -0.21746  -1.15522
H     3.35475  -0.43358  -0.61347
H     3.26908   0.16346   1.05301
H     2.93576   1.28677  -0.30914
