36
Generated by autodE on: 2022-06-17. E = -692.366914 Ha. Imaginary frequency = -394.5 cm-1
C    -1.33766  -0.84823  -2.22657
C    -1.16597  -1.55971  -1.09077
C    -2.10642  -2.67331  -0.70508
C    -0.08457  -1.29060  -0.14095
C     1.04244  -0.52138  -0.41300
C     2.15909  -0.47170   0.53693
C     3.43521  -0.10293   0.28242
C     4.46619  -0.09289   1.37694
C     3.94528   0.31246  -1.06973
C     0.26845   1.46750  -0.20476
C     1.15252   2.45609  -0.82893
N    -0.71261   1.37603   0.49706
N    -1.33102   0.45608   1.17584
C    -2.69570   0.38673   1.02395
C    -3.38181   1.38009   0.11776
O    -3.32275  -0.50552   1.60433
H    -2.16105  -1.07480  -2.90916
H    -0.67741  -0.02255  -2.50311
H    -2.58103  -2.45309   0.26409
H    -2.89597  -2.81733  -1.45645
H    -1.55930  -3.62397  -0.58617
H    -0.12416  -1.83595   0.80381
H     1.25519  -0.29814  -1.46162
H     1.90569  -0.76261   1.56298
H     4.04779  -0.40835   2.34409
H     5.31144  -0.75904   1.12772
H     4.89768   0.91705   1.49764
H     4.34797   1.33975  -1.03123
H     3.18319   0.27464  -1.85845
H     4.78599  -0.33569  -1.37409
H     2.13228   2.44479  -0.32834
H     0.71147   3.45937  -0.73158
H     1.30700   2.21920  -1.89140
H    -4.46759   1.22866   0.15963
H    -3.02929   1.22126  -0.91620
H    -3.13392   2.41528   0.39546
