52
Generated by autodE on: 2022-06-01. E = -1097.443336 Ha
C     2.29490  -2.62143  -2.64538
O     1.91562  -1.87620  -1.48205
C     1.10962  -0.82908  -1.67296
O     0.77946  -0.45130  -2.77988
C     0.70538  -0.17006  -0.32448
C     1.98441   0.34780   0.33793
C     2.15067   0.32531   1.72794
C     3.28971   0.88143   2.31848
C     4.27890   1.47200   1.52745
C     4.11979   1.50114   0.13807
C     2.98260   0.94246  -0.44905
C    -0.30579   0.97901  -0.61216
C    -0.22882   2.24506   0.27253
C    -1.16621   3.29264  -0.36678
C    -2.58631   2.72823  -0.06064
C    -2.28527   1.43578   0.72929
C    -1.03078   1.84366   1.52386
C    -1.72182   0.40724  -0.27687
C    -1.47853  -1.04362   0.25395
C    -2.28928  -1.40499   1.50832
C    -1.88678  -1.98789  -0.90169
C    -3.35097  -2.28091  -1.10181
O    -1.04637  -2.47588  -1.63986
N    -0.04533  -1.08549   0.52982
C     0.52781  -2.33754   0.98331
H     1.40316  -3.03025  -3.14203
H     2.93632  -3.43572  -2.28861
H     2.84747  -1.98396  -3.35070
H     1.37928  -0.12510   2.35172
H     3.40211   0.85301   3.40516
H     5.16869   1.90630   1.98937
H     4.88383   1.96182  -0.49281
H     2.86691   0.98481  -1.53488
H    -0.21141   1.25616  -1.66641
H     0.79063   2.61219   0.43878
H    -0.97537   3.40967  -1.44414
H    -1.01905   4.27567   0.10552
H    -3.16895   3.42771   0.55765
H    -3.17104   2.52503  -0.97068
H    -3.14025   1.07103   1.31105
H    -0.58051   1.01774   2.08725
H    -1.21215   2.69033   2.20487
H    -2.36472   0.37405  -1.16689
H    -2.18315  -2.47149   1.75515
H    -3.35746  -1.20008   1.36475
H    -1.93813  -0.81733   2.36612
H    -3.51346  -2.67344  -2.11447
H    -3.97799  -1.39555  -0.92576
H    -3.65831  -3.04872  -0.37242
H     1.60400  -2.21527   1.15472
H     0.07614  -2.62998   1.94431
H     0.39731  -3.17588   0.27603
