17
Generated by autodE on: 2022-06-01. E = -272.854102 Ha
C    -1.40991   0.13875   0.51621
C    -0.95132   1.14309  -0.25028
C     0.32935   0.66040  -0.91403
C     1.39901   0.57395   0.22527
C     0.86769  -0.58994   1.11222
C    -0.44029  -1.02415   0.37051
C     0.00022  -0.83748  -1.09817
H    -2.24494   0.17040   1.21998
H    -1.33382   2.16512  -0.30195
H     0.65736   1.21893  -1.80063
H     1.49066   1.52443   0.77081
H     2.38648   0.33419  -0.19811
H     0.66555  -0.28435   2.14912
H     1.58248  -1.42659   1.14296
H    -0.81915  -2.01222   0.66341
H    -0.81471  -1.01289  -1.81668
H     0.87598  -1.44711  -1.37298
