52
Generated by autodE on: 2022-06-01. E = -1097.347410 Ha. Imaginary frequency = -217.2 cm-1
C     1.92374  -2.74950  -3.04338
O     1.58866  -2.22862  -1.75385
C     1.17689  -0.94461  -1.72018
O     1.29677  -0.19386  -2.67082
C     0.93289  -0.52680  -0.28673
C     2.13577   0.12850   0.29505
C     2.10590   0.76418   1.55719
C     3.22569   1.41365   2.07298
C     4.41769   1.46255   1.34389
C     4.47028   0.84511   0.09179
C     3.35247   0.18768  -0.42252
C    -0.53932   1.27579  -0.69471
C    -0.43480   2.28971   0.43560
C    -1.35657   3.48066   0.01545
C    -2.78844   2.87732   0.12282
C    -2.50710   1.40749   0.57350
C    -1.31199   1.63063   1.51916
C    -1.82418   0.75811  -0.61274
C    -1.20212  -1.61583   0.23331
C    -2.07703  -2.00432   1.39431
C    -1.69180  -1.80075  -1.11007
C    -3.14849  -2.17919  -1.30607
O    -0.97243  -1.71035  -2.12702
N     0.11590  -1.30850   0.51111
C     0.60358  -1.74348   1.83778
H     1.05935  -2.68179  -3.71989
H     2.19661  -3.80021  -2.88678
H     2.77194  -2.20218  -3.48072
H     1.19318   0.76285   2.14568
H     3.15982   1.89428   3.05190
H     5.29363   1.97616   1.74653
H     5.39290   0.86634  -0.49304
H     3.44367  -0.28719  -1.39851
H     0.00901   1.39012  -1.62825
H     0.57757   2.59702   0.72069
H    -1.11698   3.84288  -0.99514
H    -1.22489   4.32272   0.71240
H    -3.38777   3.40031   0.88438
H    -3.34516   2.91504  -0.82519
H    -3.38079   0.87943   0.97889
H    -0.89981   0.69756   1.91903
H    -1.54475   2.30906   2.35424
H    -2.38514   0.40021  -1.47381
H    -1.92934  -3.05266   1.71004
H    -3.13207  -1.89807   1.12276
H    -1.90298  -1.36622   2.27078
H    -3.35528  -2.18569  -2.38429
H    -3.83874  -1.48154  -0.81032
H    -3.34608  -3.18536  -0.90190
H     1.69598  -1.74284   1.83695
H     0.24065  -1.11419   2.65982
H     0.26396  -2.77141   2.00797
