42
Generated by autodE on: 2022-06-19. E = -866.289140 Ha
C     0.19556   3.01636  -0.13552
N    -0.54069   1.81600  -0.47320
C    -0.95759   0.92637   0.43460
O    -0.90111   1.07807   1.65854
C    -1.57791  -0.36198  -0.16262
C    -3.06948  -0.34137   0.22099
C    -4.04691   0.01596  -0.85660
O    -3.39620  -0.59920   1.36467
C    -0.87745  -1.63443   0.37036
C     0.04687  -2.06017  -0.78476
C     0.30603  -3.57133  -0.80892
C     1.36252  -1.31280  -0.82751
C     1.85347  -0.46884   0.09856
C     3.11225   0.24745  -0.03478
C     3.59099   1.19395   0.80830
C     2.87567   1.67337   2.04142
C     4.91264   1.86106   0.54765
C    -0.82281  -1.61614  -1.97613
O    -1.41173  -0.37323  -1.57805
H    -0.13553   3.85377  -0.76639
H     1.27825   2.87352  -0.28266
H     0.01258   3.26864   0.91582
H    -0.56260   1.49441  -1.43765
H    -4.01711  -0.75256  -1.64567
H    -3.75753   0.96614  -1.33171
H    -5.05835   0.08529  -0.43615
H    -0.36634  -1.45379   1.32239
H    -1.62663  -2.41886   0.54265
H     0.86320  -3.88077   0.08845
H     0.90301  -3.85132  -1.69138
H    -0.64135  -4.13253  -0.84137
H     1.95099  -1.49292  -1.73666
H     1.28135  -0.28639   1.00944
H     3.71555  -0.00380  -0.91545
H     3.47554   1.45456   2.94278
H     2.76086   2.77081   2.00832
H     1.87811   1.23712   2.17558
H     5.59604   1.72593   1.40516
H     5.40518   1.46917  -0.35443
H     4.78351   2.95188   0.42905
H    -1.61558  -2.36022  -2.17300
H    -0.25442  -1.44429  -2.90086
