23
Generated by autodE on: 2022-06-19. E = -351.521384 Ha
C     2.49470   0.28217  -2.82762
C     2.05138   0.03830  -1.57474
C     2.98968  -0.41686  -0.48640
C     0.63636   0.21415  -1.25401
C     0.06758   0.00024  -0.04094
C    -1.34445   0.18975   0.22201
C    -1.99029  -0.00388   1.39971
C    -1.32677  -0.46257   2.66718
C    -3.46875   0.23893   1.51444
H     1.81091   0.61228  -3.61577
H     3.54779   0.15821  -3.09510
H     4.01922  -0.50784  -0.86035
H     2.68132  -1.39412  -0.07912
H     2.98942   0.29015   0.35984
H    -0.00378   0.54740  -2.07978
H     0.69951  -0.33201   0.78721
H    -1.94357   0.52629  -0.63284
H    -1.47236   0.28527   3.46677
H    -0.24961  -0.64466   2.56177
H    -1.79884  -1.39274   3.02985
H    -3.68161   0.99839   2.28826
H    -3.90997   0.57639   0.56511
H    -3.99250  -0.67908   1.83660
