42
Generated by autodE on: 2022-06-19. E = -866.188549 Ha. Imaginary frequency = -234.6 cm-1
C    -1.50311   2.95492   2.19833
N    -1.90205   1.85678   1.34615
C    -1.16179   1.48151   0.28497
O    -0.08694   2.03834  -0.00665
C    -1.67883   0.33882  -0.50480
C    -3.02718  -0.16524  -0.43836
C    -3.61202  -0.98253  -1.56803
O    -3.76071   0.09846   0.53883
C    -0.78002  -1.76001   0.74237
C     0.11557  -2.34651  -0.12348
C    -0.19997  -3.69522  -0.74023
C     1.52466  -1.91698  -0.20446
C     2.03229  -0.72436   0.18707
C     3.43926  -0.39237   0.07995
C     4.03654   0.77638   0.42367
C     3.31333   1.97081   0.98009
C     5.52192   0.95158   0.27429
C    -0.63370  -1.13873  -2.02907
O    -0.80287   0.02453  -1.49987
H    -1.38029   3.89010   1.62775
H    -2.27557   3.10969   2.96207
H    -0.54677   2.74782   2.70667
H    -2.78384   1.35671   1.47698
H    -3.21199  -0.70741  -2.55493
H    -3.42354  -2.05593  -1.40335
H    -4.69966  -0.82893  -1.55513
H    -1.77221  -2.19014   0.89213
H    -0.47847  -0.97169   1.43164
H     0.28468  -4.49203  -0.15031
H     0.18232  -3.78196  -1.76917
H    -1.28170  -3.89194  -0.74864
H     2.20866  -2.64832  -0.65158
H     1.35534   0.03383   0.58881
H     4.08157  -1.18814  -0.31703
H     3.62355   2.15410   2.02487
H     2.22087   1.88184   0.95269
H     3.59226   2.87851   0.41688
H     5.75180   1.78913  -0.40883
H     6.01232   0.04491  -0.10973
H     5.98408   1.21410   1.24315
H     0.22190  -1.20163  -2.70399
H    -1.43770  -1.86743  -2.08140
