34
Generated by autodE on: 2022-06-22. E = -674.959023 Ha
C    -0.00980   0.22500   1.85063
C    -0.69044  -0.40684   0.68804
C    -2.01738   0.02948   0.26049
C    -2.38714   0.04093  -1.10766
C    -3.65137   0.46529  -1.51375
C    -4.58832   0.91015  -0.57461
C    -4.23499   0.92900   0.78038
C    -2.97408   0.50223   1.19206
N    -0.02670  -1.38030   0.00715
C    -0.76536  -2.47362  -0.65412
C     1.32997  -1.51627  -0.00797
C     2.30122  -0.46446  -0.05050
C     2.01319   0.90223  -0.32472
C     3.03736   1.84259  -0.45128
C     4.37761   1.47878  -0.28691
C     4.68407   0.13541  -0.01370
C     3.67498  -0.81269   0.09895
H     0.62262   1.09533   1.58074
H     0.66778  -0.50165   2.33123
H    -0.74434   0.58325   2.58379
H    -1.66180  -0.25993  -1.86431
H    -3.90075   0.46453  -2.57795
H    -5.57686   1.24751  -0.89429
H    -4.95330   1.27612   1.52748
H    -2.73446   0.51424   2.25637
H    -1.80622  -2.49196  -0.31639
H    -0.28085  -3.41837  -0.36996
H    -0.72159  -2.37587  -1.74670
H     1.68481  -2.54282  -0.11382
H     0.98309   1.21679  -0.49499
H     2.77884   2.88014  -0.68033
H     5.17127   2.22455  -0.37056
H     5.72602  -0.17145   0.11224
H     3.93084  -1.85575   0.30447
