34
Generated by autodE on: 2022-07-27. E = -674.955885 Ha
C     0.55413   0.97186  -2.33667
C     0.72855   0.90266  -0.85513
C     1.79873   1.67061  -0.21716
C     2.09282   2.97497  -0.68782
C     3.13607   3.72571  -0.14878
C     3.93125   3.20325   0.87805
C     3.67058   1.91086   1.34651
C     2.63032   1.15425   0.80749
N    -0.11214   0.08672  -0.17144
C    -0.12693   0.13642   1.30503
C    -1.07017  -0.66587  -0.79207
C    -1.94095  -1.66825  -0.24044
C    -1.77971  -2.38969   0.97716
C    -2.69321  -3.37050   1.36535
C    -3.79608  -3.69576   0.56880
C    -3.96266  -3.01946  -0.64926
C    -3.06302  -2.03641  -1.04263
H    -0.44093   1.35884  -2.63070
H     0.63320  -0.03657  -2.78768
H     1.32134   1.60588  -2.79479
H     1.47501   3.41084  -1.47537
H     3.32455   4.73318  -0.52854
H     4.74836   3.79195   1.30114
H     4.29606   1.47694   2.13091
H     2.48600   0.13340   1.16091
H     0.24642   1.10817   1.63718
H    -1.16001   0.02063   1.64614
H     0.49152  -0.65549   1.74175
H    -1.19728  -0.46537  -1.85056
H    -0.91609  -2.21521   1.61469
H    -2.52766  -3.90041   2.30757
H    -4.50449  -4.46560   0.88238
H    -4.80982  -3.26058  -1.29728
H    -3.21532  -1.51791  -1.99317
