40
Generated by autodE on: 2022-06-04. E = -957.200615 Ha
C     1.01789   4.13202   0.09928
N     1.12611   2.69980  -0.09308
C     1.09162   1.83788   0.94063
O     1.20268   2.19115   2.12327
C     0.95850   0.38139   0.60761
C     2.03971  -0.43329   1.26710
O     3.22143  -0.26721   0.93004
N     1.68225  -1.28281   2.24566
C     0.34855  -1.51594   2.76830
C    -0.03007  -0.13465  -0.16638
C    -0.07818  -1.57615  -0.52071
C    -1.30258  -2.26948  -0.47777
C    -1.35953  -3.63003  -0.78046
C    -0.19764  -4.31706  -1.14947
C     1.02026  -3.63356  -1.21593
C     1.08103  -2.27385  -0.90461
C    -1.14281   0.71343  -0.67497
C    -1.52766   0.64275  -2.02509
C    -2.55518   1.45260  -2.51254
C    -3.22592   2.33027  -1.65434
C    -2.86456   2.39251  -0.30450
C    -1.83103   1.59036   0.18238
H     1.36485   4.64885  -0.80458
H    -0.02557   4.43250   0.30127
H     1.63789   4.44410   0.94992
H     0.93640   2.32898  -1.01864
H     2.44747  -1.82860   2.63613
H    -0.17607  -2.32066   2.22868
H     0.42726  -1.80204   3.82593
H    -0.25183  -0.60008   2.70396
H    -2.21100  -1.73767  -0.18884
H    -2.31492  -4.15732  -0.72894
H    -0.24366  -5.38123  -1.39235
H     1.92856  -4.15966  -1.51875
H     2.03149  -1.74352  -0.97653
H    -1.00703  -0.04229  -2.69735
H    -2.83428   1.39751  -3.56734
H    -4.03367   2.95949  -2.03533
H    -3.39367   3.06466   0.37497
H    -1.56055   1.63468   1.23913
