15
Generated by autodE on: 2022-07-27. E = -433.382840 Ha
C    -0.89232  -1.40278  -2.53882
N    -0.84357  -0.36965  -1.52025
C     0.24559  -0.18035  -0.76659
O     1.28708  -0.82395  -0.85315
N     0.14013   0.95465   0.10888
N     0.06266   0.65800   1.33620
C     0.05733   1.77640   2.30348
O    -0.01877  -0.49027   1.80956
H    -0.16034  -1.21035  -3.33950
H    -0.67526  -2.39137  -2.10658
H    -1.89790  -1.42013  -2.97518
H    -1.63667   0.25103  -1.39263
H     0.13773   2.72534   1.76658
H    -0.87985   1.70964   2.87019
H     0.90777   1.62078   2.97933
