15
Generated by autodE on: 2022-06-04. E = -433.380550 Ha
C    -1.33129   1.83481   0.27161
N    -1.74937   0.45181   0.10328
C    -0.95791  -0.55518  -0.29085
O    -1.27865  -1.73880  -0.32884
N     0.31852  -0.15784  -0.82398
N     1.22872  -0.03650   0.04279
C     2.58662   0.29965  -0.43515
O     1.08478  -0.17071   1.27493
H    -0.81309   2.19913  -0.62634
H    -0.66418   1.95700   1.14026
H    -2.22366   2.45269   0.42809
H    -2.66335   0.17360   0.45220
H     2.86355   1.25472   0.02960
H     3.25917  -0.49139  -0.08005
H     2.58357   0.36818  -1.52632
