55
Generated by autodE on: 2022-06-04. E = -1390.527986 Ha. Imaginary frequency = -434.0 cm-1
C     1.52700  -3.20293  -2.88813
N     1.09777  -2.66884  -1.61243
C     1.97775  -2.07199  -0.77842
O     3.20075  -2.16972  -0.91303
N     1.33686  -1.41698   0.29391
N     2.02873  -0.65037   1.10778
C     3.17848   0.17844   0.71599
O     1.23327  -0.14804   2.01604
C    -0.19668   0.52311   1.23061
C     0.15482   2.01667   1.17483
O     1.27406   2.40104   0.83503
N    -0.83525   2.86452   1.50225
C    -0.68389   4.29327   1.31207
C    -1.29321   0.23148   2.25523
O    -2.44761   0.61150   2.00668
N    -0.94782  -0.36680   3.39518
C    -1.94070  -0.74895   4.38023
C    -0.32674  -0.13468  -0.07265
C    -1.32618  -1.23069  -0.25267
C    -1.48790  -2.23651   0.72548
C    -2.37787  -3.29015   0.53531
C    -3.12427  -3.38457  -0.64540
C    -2.96066  -2.41277  -1.63334
C    -2.07095  -1.35109  -1.44264
C    -0.11279   0.74971  -1.27819
C    -1.11661   1.70078  -1.54809
C    -1.01338   2.56790  -2.63625
C     0.09408   2.49493  -3.48717
C     1.08817   1.54686  -3.23789
C     0.98498   0.67976  -2.14479
H     1.89052  -2.40933  -3.56423
H     2.33624  -3.93492  -2.75371
H     0.67466  -3.70413  -3.36347
H     0.10798  -2.49197  -1.46812
H     2.92468   0.82745  -0.13156
H     3.43459   0.78863   1.58719
H     4.00530  -0.48540   0.45006
H    -1.76487   2.47185   1.63875
H    -0.59497   4.54683   0.24164
H     0.21710   4.65968   1.82474
H    -1.56226   4.80310   1.72657
H     0.00525  -0.71346   3.46291
H    -2.55996   0.11527   4.66068
H    -1.42891  -1.12792   5.27299
H    -2.60662  -1.53561   3.98805
H    -0.88328  -2.21388   1.62846
H    -2.47803  -4.05399   1.30999
H    -3.81796  -4.21493  -0.79529
H    -3.52517  -2.47629  -2.56643
H    -1.95611  -0.61322  -2.23494
H    -1.98695   1.75406  -0.89168
H    -1.80264   3.30074  -2.81958
H     0.18026   3.17309  -4.33925
H     1.95968   1.47965  -3.89306
H     1.78903  -0.03174  -1.97222
