55
Generated by autodE on: 2022-07-02. E = -8899.530389 Ha
C    -2.57891   4.16821   0.93512
N    -3.46396   4.68137  -0.08282
C    -4.90645   4.77491   0.17586
C    -5.15672   6.12138   0.88784
C    -5.42094   3.56245   0.97355
C    -5.45866   2.29310   0.37575
C    -5.87269   1.16988   1.09481
C    -6.25364   1.29362   2.43445
C    -6.21312   2.55063   3.04240
C    -5.80132   3.67363   2.31768
C    -5.47508   4.81357  -1.24911
C    -4.49988   4.73152  -2.18728
C    -4.58345   4.92397  -3.68403
Br   -3.99124   6.81864  -4.06990
Br   -3.30219   3.72735  -4.64498
C    -5.91564   4.78539  -4.41853
C    -6.58375   3.41419  -4.42246
C    -6.91244   2.84951  -3.04799
C    -7.70664   3.78415  -2.13694
C    -6.97732   4.91598  -1.38161
F    -7.53214   4.92886  -0.12068
Br   -7.46540   6.77539  -2.04094
C    -3.14087   4.44689  -1.47316
C    -2.81623   2.99447  -1.66450
N    -2.57910   1.85861  -1.61819
C    -1.92888   5.31194  -1.86553
C    -0.81326   4.80019  -2.53327
C     0.27718   5.62649  -2.82612
C     0.26152   6.96944  -2.44522
C    -0.84647   7.48078  -1.75889
C    -1.93060   6.65540  -1.46698
H    -2.62056   3.06734   1.04878
H    -2.83179   4.61839   1.90528
H    -1.54190   4.44907   0.69586
H    -6.20072   6.25987   1.18810
H    -4.86853   6.93960   0.21415
H    -4.52373   6.18262   1.78447
H    -5.16080   2.16893  -0.66465
H    -5.89654   0.19411   0.60376
H    -6.57849   0.41679   2.99952
H    -6.50558   2.66328   4.08924
H    -5.78207   4.64215   2.81661
H    -5.73254   5.09433  -5.45619
H    -6.59725   5.53724  -4.00442
H    -5.96292   2.69430  -4.97695
H    -7.51712   3.53190  -4.99749
H    -7.52698   1.94585  -3.18197
H    -5.99957   2.51092  -2.53780
H    -8.11560   3.18041  -1.31399
H    -8.56921   4.20583  -2.67298
H    -0.78172   3.75030  -2.82539
H     1.14304   5.21173  -3.34737
H     1.11341   7.61488  -2.67230
H    -0.86479   8.52849  -1.44982
H    -2.79096   7.05005  -0.92635
