35
Generated by autodE on: 2022-07-27. E = -767.258933 Ha
C    -1.11808   1.54220   0.22533
C    -1.06959   0.05958   0.29121
C    -1.53043  -0.61975   1.51373
C    -0.73767  -1.61269   2.12491
C    -1.15567  -2.22390   3.30639
C    -2.37102  -1.86052   3.89590
C    -3.16183  -0.87095   3.30170
C    -2.74204  -0.24620   2.12782
N    -0.55455  -0.63192  -0.72186
C    -0.82309  -2.07038  -0.89294
C     0.27462  -0.02954  -1.69030
C     0.04961  -0.37698  -3.03079
N    -0.11680  -0.64889  -4.16180
C     1.40122   0.82476  -1.33797
C     2.05308   1.59220  -2.33569
C     3.17494   2.36307  -2.04041
C     3.69035   2.40996  -0.73861
C     3.05787   1.66254   0.26004
C     1.93358   0.88695  -0.02675
H    -0.20117   1.99330   0.64729
H    -1.96290   1.91565   0.81882
H    -1.19404   1.88389  -0.81804
H     0.22062  -1.88892   1.68257
H    -0.52486  -2.98387   3.77301
H    -2.69844  -2.34291   4.81968
H    -4.11229  -0.58269   3.75633
H    -3.36868   0.52091   1.66939
H    -1.04993  -2.24396  -1.95306
H    -1.68494  -2.37438  -0.29185
H     0.06302  -2.65904  -0.62179
H     1.66806   1.57616  -3.35781
H     3.65008   2.94055  -2.83791
H     4.56631   3.01996  -0.50748
H     3.44426   1.67810   1.28257
H     1.48183   0.30158   0.77615
