20
Generated by autodE on: 2022-07-02. E = -8132.181209 Ha
F    -1.06691   1.37658  -3.12467
C    -0.57029   0.33362  -2.39750
Br    1.01514  -0.35887  -3.42646
C    -0.10941   0.72303  -1.08018
C     0.06165   0.55151   0.10837
C    -0.04167  -0.07994   1.39276
Br   -1.44166   0.86416   2.45670
Br    1.66924   0.02424   2.39499
C    -0.43672  -1.55326   1.17471
C    -1.61175  -1.79222   0.20269
C    -1.30010  -1.93302  -1.31380
C    -1.63234  -0.75824  -2.25232
H    -0.66197  -1.98183   2.16186
H     0.46087  -2.06755   0.79609
H    -2.05916  -2.74356   0.52591
H    -2.39414  -1.03276   0.36395
H    -1.89999  -2.77740  -1.68296
H    -0.25034  -2.23761  -1.45887
H    -1.85285  -1.12750  -3.26503
H    -2.53449  -0.23260  -1.89555
