55
Generated by autodE on: 2022-07-02. E = -8899.433112 Ha. Imaginary frequency = -107.5 cm-1
C    -3.09280   2.18986  -0.09297
N    -3.12644   3.65071  -0.32220
C    -4.01271   4.39698   0.35382
C    -3.92156   5.89912   0.46385
C    -4.92473   3.73862   1.32967
C    -5.85708   2.76162   0.93333
C    -6.73808   2.20044   1.85667
C    -6.70549   2.60170   3.19694
C    -5.78837   3.57526   3.60249
C    -4.91214   4.14531   2.67575
C    -5.36746   4.48191  -1.90474
C    -4.60850   3.95151  -2.72508
C    -4.46113   3.28616  -4.00292
Br   -2.94429   3.99760  -5.07699
Br   -4.10185   1.33143  -3.69140
C    -5.73204   3.41999  -4.85640
C    -7.04679   2.94229  -4.20764
C    -7.96999   4.01323  -3.59199
C    -7.85324   4.32133  -2.09783
C    -6.64501   5.10614  -1.60820
F    -6.83184   5.37535  -0.27492
Br   -6.59121   6.94135  -2.48500
C    -2.39137   4.07238  -1.42868
C    -1.50099   3.14280  -2.01576
N    -0.72923   2.44377  -2.55092
C    -1.91669   5.49192  -1.58954
C    -2.45919   6.38763  -2.52160
C    -1.96437   7.68973  -2.62666
C    -0.91528   8.11524  -1.80639
C    -0.35495   7.22550  -0.88453
C    -0.84743   5.92241  -0.78480
H    -2.06230   1.84133  -0.21196
H    -3.73242   1.67549  -0.82086
H    -3.42199   1.96409   0.92206
H    -4.80203   6.26543   1.00142
H    -3.88389   6.41358  -0.49791
H    -3.02085   6.19152   1.02908
H    -5.90370   2.45522  -0.11213
H    -7.46003   1.45030   1.52551
H    -7.39607   2.16116   3.91981
H    -5.75358   3.89580   4.64636
H    -4.20194   4.90660   3.00415
H    -5.81253   4.48563  -5.12441
H    -5.55077   2.87243  -5.79167
H    -7.61856   2.45576  -5.01164
H    -6.84256   2.14773  -3.47234
H    -9.00488   3.66456  -3.73040
H    -7.89487   4.94978  -4.16845
H    -8.74081   4.88377  -1.76929
H    -7.83708   3.38192  -1.51840
H    -3.29210   6.07764  -3.14703
H    -2.40880   8.37750  -3.35006
H    -0.53379   9.13595  -1.88675
H     0.46809   7.54602  -0.24133
H    -0.40802   5.22743  -0.06539
