47
Generated by autodE on: 2022-06-21. E = -1073.136811 Ha
C    -4.07055  -2.71320   2.97337
O    -3.39980  -2.60827   1.70909
C    -2.93693  -1.39902   1.36871
O    -3.08956  -0.40839   2.05179
C    -2.17709  -1.48045   0.05464
C    -0.73688  -1.95703   0.33097
C     0.14539  -1.21391  -0.69304
C     0.11829  -1.94556  -2.04554
C     1.56818  -1.06739  -0.20136
C     2.43787  -0.13804  -0.64011
C     3.78132   0.04210  -0.11769
C     4.59653   1.09610  -0.36396
C     4.22470   2.27128  -1.22502
C     5.96384   1.17501   0.25443
C    -0.63739   0.16990  -0.78718
C    -0.44116   0.82534  -2.09605
N    -0.33634   1.31500  -3.14228
C    -0.15332   1.10995   0.34967
O    -0.36036   0.87765   1.51893
O     0.50103   2.17293  -0.10145
C     1.11940   3.02973   0.87397
N    -2.01980  -0.21855  -0.64939
C    -3.04554   0.80282  -0.64998
H    -3.39646  -2.42337   3.79251
H    -4.36123  -3.76504   3.07637
H    -4.96201  -2.06962   2.98979
H    -2.71474  -2.21387  -0.57090
H    -0.43714  -1.67217   1.34744
H    -0.63599  -3.04534   0.23203
H    -0.90847  -2.07119  -2.42041
H     0.70734  -1.40712  -2.80080
H     0.56335  -2.94308  -1.91697
H     1.88305  -1.77782   0.57124
H     2.11407   0.55683  -1.41858
H     4.14128  -0.73868   0.56277
H     4.26566   3.19990  -0.62883
H     3.22315   2.19992  -1.66763
H     4.95717   2.39824  -2.04130
H     6.06098   2.08462   0.87366
H     6.18758   0.30018   0.88234
H     6.74125   1.25267  -0.52662
H     0.36375   3.43062   1.56352
H     1.87654   2.46516   1.43646
H     1.59010   3.83990   0.30680
H    -3.00531   1.47485   0.22631
H    -2.96334   1.41773  -1.56106
H    -4.03460   0.32319  -0.66518
