24
Generated by autodE on: 2022-06-21. E = -721.566334 Ha
C    -4.10745   0.48960   2.26520
O    -2.72841   0.49689   1.87749
C    -2.44524   0.00493   0.65783
O    -3.29828  -0.42853  -0.09839
C    -0.99809   0.09142   0.45050
N    -0.35896  -0.29747  -0.63834
C    -1.13382  -0.86368  -1.77306
C     1.01437  -0.21246  -0.79147
C     1.60983  -0.65767  -1.99290
N     2.14138  -1.01526  -2.96987
C     1.89877   0.31520   0.24239
O     1.56718   0.74298   1.34058
O     3.18298   0.27965  -0.15870
C     4.15912   0.77110   0.76709
H    -4.14009   0.91900   3.27310
H    -4.49991  -0.53796   2.27693
H    -4.70666   1.09897   1.57260
H    -0.39742   0.50233   1.25529
H    -0.45695  -1.09996  -2.59507
H    -1.87540  -0.12724  -2.09633
H    -1.64508  -1.77006  -1.43334
H     5.12846   0.65856   0.26769
H     4.14226   0.18427   1.69715
H     3.97445   1.82996   1.00053
