24
Generated by autodE on: 2022-07-27. E = -721.566854 Ha
C     0.39555  -2.51283   3.12210
O     0.08377  -2.52935   1.72041
C    -0.41146  -1.40139   1.20731
O    -0.63525  -0.39673   1.85384
C    -0.75710  -1.60409  -0.21269
N    -0.91715  -0.63773  -1.08740
C    -1.67177  -0.94069  -2.32307
C    -0.39516   0.63949  -0.96633
C    -0.98196   1.67669  -1.71860
N    -1.46921   2.54522  -2.33063
C     0.87113   0.86582  -0.28999
O     1.58803   0.00207   0.19823
O     1.20714   2.16942  -0.30116
C     2.47605   2.50878   0.27011
H    -0.51287  -2.33141   3.71452
H     1.13643  -1.72938   3.33666
H     0.80820  -3.50183   3.35078
H    -1.01936  -2.61355  -0.52741
H    -2.59252  -0.34237  -2.32479
H    -1.93085  -2.00387  -2.33262
H    -1.05973  -0.67940  -3.19468
H     2.52431   2.19174   1.32206
H     3.29498   2.03498  -0.29099
H     2.55502   3.59999   0.20026
