47
Generated by autodE on: 2022-06-21. E = -1073.083976 Ha. Imaginary frequency = -277.7 cm-1
C    -0.97669  -1.84309   3.47952
O    -1.22992  -1.89989   2.06846
C    -2.13748  -1.05327   1.59870
O    -2.83931  -0.34770   2.29490
C    -2.44177  -1.21502   0.12871
C    -0.90843  -2.40317  -0.83456
C     0.16219  -1.59720  -1.21028
C     0.25704  -1.04735  -2.61149
C     1.23705  -1.37788  -0.27894
C     2.31281  -0.56732  -0.49278
C     3.34595  -0.35488   0.48788
C     4.35918   0.54988   0.41140
C     4.55625   1.50182  -0.73146
C     5.36056   0.67356   1.52185
C    -1.65922   0.86509  -0.84356
C    -1.71320   1.62991  -2.02579
N    -1.72881   2.25691  -3.01362
C    -0.62201   1.17138   0.10406
O    -0.47361   0.69133   1.22644
O     0.24588   2.09004  -0.39133
C     1.21158   2.62533   0.51913
N    -2.60170  -0.15969  -0.68836
C    -3.52263  -0.35277  -1.81875
H    -0.59700  -0.84783   3.75179
H    -0.21691  -2.60698   3.67977
H    -1.89360  -2.05704   4.04679
H    -3.21701  -1.97640   0.00641
H    -0.81067  -3.04148   0.04419
H    -1.59916  -2.74489  -1.60885
H    -0.70101  -1.14005  -3.14015
H     0.56330   0.00758  -2.63625
H     1.01623  -1.61335  -3.18086
H     1.15318  -1.88280   0.68839
H     2.38947  -0.03223  -1.44181
H     3.28154  -0.96996   1.39288
H     5.55301   1.35678  -1.18380
H     4.53721   2.54120  -0.35943
H     3.80011   1.40941  -1.52105
H     5.34878   1.69463   1.94343
H     5.17195  -0.04295   2.33430
H     6.38527   0.51303   1.14149
H     0.71106   3.18321   1.32556
H     1.83329   1.83314   0.95477
H     1.83529   3.30599  -0.07239
H    -4.03993   0.58942  -2.03834
H    -2.96903  -0.67805  -2.71246
H    -4.26387  -1.11151  -1.54914
