33
Generated by autodE on: 2022-07-27. E = -711.137286 Ha
C     1.00991  -1.02539   3.52815
O     0.88919  -0.38561   2.26283
C     0.06053  -0.99266   1.34987
O    -0.56065  -2.01996   1.67694
C     0.00056  -0.33963   0.09161
C     0.73580   0.82990  -0.37412
C     0.22477   1.58430  -1.46306
C     0.89459   2.70122  -1.96306
C     2.09939   3.12503  -1.39345
C     2.62121   2.39778  -0.31638
C     1.96372   1.27373   0.18140
N    -0.90576  -0.92942  -0.84939
C    -0.31941  -1.48452  -2.08231
C    -2.18285  -1.08946  -0.59968
C    -3.02639  -1.93122  -1.49832
C    -2.81851  -0.44469   0.57397
H     1.71045  -0.41483   4.11298
H     0.04117  -1.07491   4.04939
H     1.40762  -2.04769   3.42897
H    -0.72541   1.29470  -1.91639
H     0.46121   3.25204  -2.80241
H     2.62235   4.00262  -1.78034
H     3.56644   2.70437   0.14041
H     2.40551   0.72115   1.00753
H     0.68076  -1.06173  -2.21221
H    -0.93486  -1.24528  -2.95851
H    -0.23332  -2.57691  -1.98256
H    -3.98444  -2.16033  -1.01585
H    -3.23790  -1.38576  -2.43493
H    -2.52338  -2.87001  -1.77256
H    -3.86537  -0.20217   0.34291
H    -2.26348   0.45022   0.88881
H    -2.80938  -1.15154   1.42242
