35
Generated by autodE on: 2022-05-26. E = -825.307152 Ha
C    -0.11388  -2.65632   1.33995
C     0.66946  -2.45920   0.07600
O     1.57273  -3.20163  -0.26029
C     0.30306  -1.24080  -0.79626
N    -1.12719  -1.00208  -0.80812
C    -1.32455   0.18032  -0.29497
C    -2.67139   0.75981  -0.12185
C    -3.81126   0.03268  -0.51399
C    -5.08647   0.56995  -0.35118
C    -5.24706   1.84438   0.20700
C    -4.12291   2.57556   0.59992
C    -2.84360   2.03843   0.43732
C    -0.07491   0.85241   0.07342
C     0.95007   0.01444  -0.23611
C     2.38945   0.22957  -0.07380
C     3.32721  -0.56698  -0.76121
C     4.69719  -0.34382  -0.61111
C     5.15852   0.67595   0.22596
C     4.23779   1.47327   0.91694
C     2.86988   1.25284   0.77055
H     0.42545  -3.33810   2.01054
H    -0.31352  -1.69597   1.83795
H    -1.09049  -3.09823   1.08362
H     0.66264  -1.46939  -1.81181
H    -3.68144  -0.95901  -0.94815
H    -5.96190  -0.00607  -0.66011
H    -6.24730   2.26499   0.33462
H    -4.24053   3.57010   1.03615
H    -1.97733   2.62228   0.75025
H     0.01171   1.85447   0.48822
H     2.98384  -1.36700  -1.41718
H     5.40832  -0.97041  -1.15446
H     6.23090   0.84879   0.34280
H     4.59002   2.26835   1.57829
H     2.16153   1.87013   1.32622
