14
Generated by autodE on: 2022-05-26. E = -308.537344 Ha
C     3.19377  -0.38575  -0.12665
C     1.98819  -0.23914  -0.07951
C     0.56679  -0.06785  -0.02290
C    -0.27544  -1.17235   0.22064
C    -1.65847  -1.00071   0.27511
C    -2.21964   0.26727   0.08860
C    -1.39061   1.36800  -0.15352
C    -0.00639   1.20687  -0.20978
H     4.26192  -0.51646  -0.16892
H     0.16505  -2.16058   0.36580
H    -2.30266  -1.86232   0.46461
H    -3.30335   0.39785   0.13202
H    -1.82545   2.35943  -0.29943
H     0.64267   2.06400  -0.39864
