21
Generated by autodE on: 2022-05-26. E = -516.643503 Ha
C     4.76744   0.30975  -0.32779
C     3.25348   0.32855  -0.33842
O     2.64132   1.11740  -1.09176
C     2.59702  -0.58221   0.53868
N     1.25932  -0.57611   0.54175
C     0.10683  -0.43617   0.41492
C    -1.28548  -0.26000   0.25726
C    -1.74946   0.71154  -0.65830
C    -3.12005   0.89273  -0.82093
C    -4.02995   0.12265  -0.08652
C    -3.56566  -0.83848   0.81932
C    -2.19953  -1.03907   0.99962
H     5.13257   0.09373  -1.34528
H     5.13845   1.31238  -0.05850
H     5.18528  -0.42882   0.37028
H     3.10184  -1.27987   1.20450
H    -1.02879   1.30454  -1.22359
H    -3.48175   1.64259  -1.52763
H    -5.10339   0.27199  -0.22049
H    -4.27545  -1.43915   1.39200
H    -1.82949  -1.78622   1.70307
