16
Generated by autodE on: 2022-05-26. E = -326.040207 Ha
C    -1.72540  -0.72842  -0.45301
N    -1.19181   0.30644   0.14380
C    -2.08880   1.33113   0.71499
C     0.16047   0.56798   0.31357
C     1.19050  -0.27852  -0.13245
C     2.61089   0.17687   0.15268
O     1.02367  -1.37255  -0.74120
H    -1.05906  -1.47817  -0.87201
H    -2.81146  -0.79269  -0.50295
H    -1.87601   2.29675   0.23806
H    -3.13166   1.04767   0.53996
H    -1.89587   1.41320   1.79253
H     0.37657   1.49635   0.83539
H     3.16054   0.26715  -0.79907
H     2.66378   1.13514   0.68846
H     3.12646  -0.59553   0.74736
