19
Generated by autodE on: 2022-05-26. E = -461.261363 Ha
C     3.98720   0.59507  -0.02200
C     3.09011  -0.57531  -0.31599
O     3.51555  -1.67429  -0.65516
C     1.66880  -0.33903  -0.17669
C     0.47400  -0.12258  -0.05632
C    -0.92176   0.12734   0.08261
C    -1.37952   1.40872   0.45874
C    -2.74542   1.64874   0.59274
C    -3.66663   0.62195   0.35573
C    -3.22051  -0.65116  -0.01738
C    -1.85705  -0.90293  -0.15499
H     3.82547   0.93530   1.01402
H     3.72820   1.43865  -0.68247
H     5.03743   0.30854  -0.16647
H    -0.65505   2.20429   0.64160
H    -3.09500   2.64164   0.88374
H    -4.73660   0.81484   0.46218
H    -3.94049  -1.45137  -0.20173
H    -1.50154  -1.89298  -0.44590
