30
Generated by autodE on: 2022-07-27. E = -817.293736 Ha
C    -2.30010  -3.28388  -0.46885
N    -1.54550  -2.06465  -0.27746
C    -2.16526  -0.86475  -0.25640
O    -3.39507  -0.76602  -0.39350
C    -1.29494   0.32047  -0.06146
N     0.04741   0.25636   0.06432
N     0.80498  -0.77546   0.07281
C     2.18426  -0.57150   0.15018
C     2.83627   0.66618  -0.03372
C     4.22439   0.73989   0.06774
C     4.98351  -0.40455   0.34105
C     4.34113  -1.63640   0.50818
C     2.95424  -1.72260   0.40973
C    -1.74670   1.71865   0.01495
O    -0.95312   2.64158   0.18984
O    -3.05518   1.91268  -0.12071
C    -3.50976   3.27162  -0.04819
H    -1.60714  -4.13434  -0.46015
H    -3.04606  -3.42719   0.32999
H    -2.84106  -3.27784  -1.42926
H    -0.53110  -2.08382  -0.15787
H     0.44787   1.20905   0.17527
H     2.27964   1.57352  -0.27767
H     4.72013   1.70201  -0.07997
H     6.07097  -0.33618   0.41425
H     4.92460  -2.53619   0.71575
H     2.43987  -2.67666   0.53941
H    -3.05402   3.87503  -0.84643
H    -4.59711   3.22854  -0.17928
H    -3.26142   3.71089   0.92880
