30
Generated by autodE on: 2022-06-21. E = -817.294513 Ha
C    -4.04293  -2.39075   1.21073
N    -3.28857  -1.24582   0.74876
C    -1.96082  -1.26393   0.56110
O    -1.24908  -2.27511   0.74950
C    -1.30555  -0.00838   0.10477
N     0.02712  -0.19349  -0.00980
N     0.95278   0.59324  -0.39568
C     2.25832   0.09963  -0.29848
C     2.66089  -0.96378   0.53806
C     3.99517  -1.36806   0.55309
C     4.94613  -0.72174  -0.24553
C     4.55501   0.34867  -1.05812
C     3.22497   0.76288  -1.07952
C    -2.00875   1.23982  -0.15372
O    -3.23216   1.38313   0.00566
O    -1.22676   2.23853  -0.58233
C    -1.87042   3.49320  -0.84022
H    -4.93927  -2.53290   0.58873
H    -3.41869  -3.28970   1.14579
H    -4.36752  -2.26527   2.25728
H    -3.75238  -0.35207   0.58497
H     0.23497  -1.18129   0.26620
H     1.95158  -1.45942   1.20450
H     4.29805  -2.18822   1.20813
H     5.98966  -1.04305  -0.22332
H     5.29216   0.86514  -1.67713
H     2.90396   1.59606  -1.70740
H    -2.33443   3.88704   0.07579
H    -1.07858   4.16890  -1.18395
H    -2.63946   3.38236  -1.61837
