44
Generated by autodE on: 2022-06-21. E = -1087.958305 Ha. Imaginary frequency = -398.3 cm-1
C    -2.09348  -3.18246   1.51167
N    -1.37054  -1.96262   1.21779
C    -2.02401  -0.80696   1.00578
O    -3.24745  -0.69940   1.13636
C    -1.16329   0.37371   0.60739
C    -1.67979   1.77966   0.69947
O    -0.92720   2.72014   0.88957
O    -2.97637   1.91321   0.47397
C    -3.47333   3.25939   0.38335
N     0.18385   0.35336   0.77240
N     0.83986  -0.69327   0.24954
C     2.24559  -0.67175   0.39694
C     3.00091   0.49428   0.62049
C     4.39113   0.41823   0.71635
C     5.04846  -0.80954   0.58333
C     4.30069  -1.97138   0.36722
C     2.90960  -1.90573   0.28424
C     0.27380  -0.63497  -1.64718
C     0.41930  -2.09021  -2.02462
C     1.30970   0.28480  -2.24944
C    -1.09169  -0.17218  -1.53398
C    -1.59127   1.09433  -2.04550
O    -0.94422   2.11858  -2.26135
H    -2.69718  -3.07730   2.42611
H    -1.37078  -3.99475   1.65845
H    -2.77449  -3.45883   0.68890
H    -0.38701  -1.98971   0.93355
H    -2.96922   3.78678  -0.43915
H    -4.54586   3.16685   0.17994
H    -3.30621   3.79633   1.32732
H     0.61194   1.28692   0.74537
H     2.52327   1.47070   0.71710
H     4.96578   1.33052   0.89252
H     6.13699  -0.86057   0.65693
H     4.80130  -2.93819   0.27749
H     2.31824  -2.81165   0.14760
H    -0.26653  -2.72591  -1.44698
H     1.44931  -2.44132  -1.87544
H     0.18367  -2.21309  -3.09535
H     2.29953  -0.19181  -2.24684
H     1.04264   0.50819  -3.29546
H     1.36932   1.24400  -1.72027
H    -1.85743  -0.95154  -1.52284
H    -2.69224   1.09555  -2.22080
