28
Generated by autodE on: 2022-05-28. E = -752.807280 Ha
C     3.85034   0.40205   0.43589
C     2.55108  -0.04670   1.04059
O     2.37289  -0.10068   2.24612
C     1.46282  -0.51899   0.06836
O     1.52326   0.14090  -1.18813
C     0.55236   1.20407  -1.21220
C     1.15572   2.53145  -0.77457
C    -0.59255   0.74541  -0.29532
C    -1.70893  -0.07305  -1.01556
O    -1.10023  -1.36373  -1.14868
C    -0.88282  -1.57545   0.26466
C    -2.26279  -1.30582   0.85516
C    -2.75843  -0.37279   0.04098
F    -3.88735   0.32628   0.13908
C     0.03491  -0.36287   0.60611
H     4.19485  -0.32669  -0.31451
H     4.60595   0.53136   1.22176
H     3.70142   1.35474  -0.09515
H     1.70784  -1.58297  -0.10951
H     0.21827   1.27976  -2.25881
H     0.41630   3.33766  -0.90038
H     2.04018   2.77480  -1.38248
H     1.45224   2.50769   0.28627
H    -1.01958   1.58737   0.26306
H    -2.05923   0.32446  -1.97497
H    -0.44311  -2.56180   0.45165
H    -2.66413  -1.70351   1.78539
H     0.03724  -0.13923   1.67786
