28
Generated by autodE on: 2022-05-28. E = -752.667375 Ha. Imaginary frequency = -134.1 cm-1
C     3.94127   0.89953   0.42108
C     2.94704  -0.18889   0.78008
O     3.12423  -0.84537   1.83307
C     1.90074  -0.57009  -0.10685
O     1.50562   0.04892  -1.24996
C     1.16659   1.27483  -1.47007
C     1.50741   2.44602  -0.63998
C    -1.04574   0.91103  -0.03917
C    -1.91761  -0.04450  -0.88664
O    -1.14543  -1.25358  -0.79851
C    -1.11093  -1.28374   0.64869
C    -2.62361  -1.24260   0.97121
C    -3.10387  -0.46475   0.00189
F    -4.33435   0.00047  -0.19552
C    -0.52522   0.12100   0.92732
H     3.93750   1.16333  -0.64398
H     4.93883   0.52306   0.69328
H     3.76303   1.81002   1.01441
H     1.57262  -1.60840  -0.10221
H     0.74217   1.40381  -2.46985
H     0.76659   3.23576  -0.82777
H     2.49510   2.85487  -0.91798
H     1.53241   2.19688   0.42983
H    -1.09034   1.99579  -0.09394
H    -2.14899   0.24169  -1.91847
H    -0.55161  -2.14517   1.02730
H    -3.11547  -1.67538   1.83954
H     0.00794   0.39750   1.83443
