20
Generated by autodE on: 2022-06-20. E = -457.715350 Ha
C    -3.13329   0.51553   0.10412
N    -1.82848  -0.11572  -0.00789
C    -1.73268  -1.41234  -0.52851
C    -0.55622  -2.01506  -0.76227
C     0.77460  -1.35841  -0.49034
C     0.57232   0.05450   0.03241
C     1.71874   0.91930   0.35521
N     2.94637   0.38554   0.13376
O     1.60388   2.07639   0.80826
C    -0.67413   0.56886   0.23014
H    -3.56067   0.74418  -0.88729
H    -3.83395  -0.14354   0.63887
H    -3.03716   1.45192   0.66808
H    -2.68921  -1.89905  -0.72720
H    -0.56364  -3.03167  -1.16196
H     1.39162  -1.35570  -1.41200
H     1.35988  -1.96598   0.23043
H     3.76477   0.94943   0.33512
H     3.07889  -0.54271  -0.24671
H    -0.79057   1.58680   0.60568
