20
Generated by autodE on: 2022-06-20. E = -661.125664 Ha
C     4.11992   1.43791  -0.89978
N     3.26550   0.35737  -0.44700
C     1.93121   0.51633  -0.35503
O     1.35107   1.56958  -0.64163
C     1.15959  -0.66357   0.12216
C     1.73167  -1.90084   0.48999
N     2.24737  -2.90650   0.78403
N    -0.14873  -0.50764   0.20221
C    -1.28820  -0.24270   0.23116
C    -2.72146  -0.07860   0.28463
O    -3.44612  -0.98188   0.64495
O    -3.07587   1.13785  -0.09642
C    -4.48968   1.42873  -0.08256
H     3.87083   1.74322  -1.92864
H     4.02229   2.32212  -0.25043
H     5.16162   1.09637  -0.87584
H     3.68776  -0.53524  -0.21334
H    -4.88732   1.31213   0.93500
H    -4.57832   2.46832  -0.41496
H    -5.01840   0.75554  -0.77147
