40
Generated by autodE on: 2022-06-20. E = -1118.837311 Ha. Imaginary frequency = -384.1 cm-1
C     0.84420  -1.87232   2.59683
N    -0.14668  -1.51578   1.60105
C    -0.19004  -2.07847   0.37845
O     0.49373  -3.05001   0.02756
C    -1.11584  -1.45428  -0.60696
C    -1.47776  -2.22374  -1.74277
N    -1.75103  -2.83759  -2.69558
N    -1.87860  -0.40736  -0.25964
C    -1.82364   0.80688  -0.29454
C    -2.68950   1.90662   0.16128
O    -3.33605   2.57694  -0.61453
O    -2.58119   2.09817   1.46954
C    -3.24025   3.26204   2.00930
C     0.09356   1.31228  -1.42789
C     0.43575   0.06626  -1.92979
C     1.75628  -0.57777  -1.59984
C     2.29484  -0.02548  -0.29546
C     3.32662  -0.71750   0.49689
N     3.74008  -1.92180   0.03320
O     3.81896  -0.23578   1.53743
C     1.87560   1.19004   0.14668
N     0.91429   1.93978  -0.47644
C     0.45103   3.16896   0.15229
H     1.62236  -1.09773   2.67917
H     1.32003  -2.81544   2.30508
H     0.36823  -2.00103   3.58005
H    -0.69953  -0.68117   1.76882
H    -4.32461   3.19218   1.84754
H    -2.84678   4.16944   1.52969
H    -3.01075   3.26191   3.08017
H    -0.56430   1.98010  -1.98476
H    -0.10100  -0.28076  -2.81298
H     2.47147  -0.38851  -2.42869
H     1.63913  -1.67166  -1.56483
H     3.26065  -2.39835  -0.72041
H     4.38144  -2.45871   0.60753
H     2.30923   1.62778   1.04705
H    -0.18821   2.96273   1.02670
H     1.31156   3.76706   0.48068
H    -0.12597   3.75578  -0.57447
