57
Generated by autodE on: 2022-06-25. E = -1321.371583 Ha
C     4.80696   2.00681  -0.41572
O     3.90939   1.06214   0.18598
C     2.60081   1.28758   0.02382
O     2.15746   2.26432  -0.54742
C     1.76429   0.14946   0.58620
C     1.37899  -0.79197  -0.58728
N     2.31702  -1.87595  -0.82764
C     3.18934  -1.70412  -1.97777
C     1.96003  -3.15813  -0.45596
C     0.88974  -3.45177   0.30893
C    -0.02219  -2.36043   0.78805
C    -0.07227  -1.20827  -0.25428
C    -0.76203  -1.75534  -1.51600
N    -2.03628  -2.15705  -1.38561
O    -0.16023  -1.86596  -2.59081
C    -0.66402   0.12756   0.38249
C    -1.06598   1.24029  -0.61857
C    -1.72233   2.37406  -0.10042
C    -2.03511   3.47104  -0.90392
C    -1.70938   3.46385  -2.26349
C    -1.07098   2.34420  -2.79765
C    -0.75035   1.25062  -1.98526
C    -1.85772  -0.18570   1.30257
C    -3.16679  -0.20760   0.79274
C    -4.25061  -0.56510   1.59909
C    -4.05011  -0.89033   2.94344
C    -2.75595  -0.85170   3.46858
C    -1.67338  -0.50476   2.65556
N     0.50592   0.55543   1.17231
C     0.48420   1.76513   1.96187
H     5.81864   1.64755  -0.19509
H     4.65613   3.00737   0.01421
H     4.64603   2.04793  -1.50280
H     2.38844  -0.39448   1.31379
H     1.35132  -0.19050  -1.50042
H     3.71641  -0.74082  -1.91346
H     3.94625  -2.50134  -1.99014
H     2.63306  -1.73516  -2.93354
H     2.63546  -3.93793  -0.81824
H     0.69829  -4.48703   0.59488
H     0.33105  -1.94061   1.74241
H    -1.02941  -2.74966   0.98436
H    -2.54622  -2.08141  -0.51321
H    -2.51064  -2.54418  -2.19587
H    -2.01037   2.39757   0.95028
H    -2.54222   4.33331  -0.46401
H    -1.95617   4.31848  -2.89784
H    -0.81514   2.31113  -3.85954
H    -0.25586   0.40557  -2.45445
H    -3.34809   0.06332  -0.24746
H    -5.25683  -0.57995   1.17357
H    -4.89665  -1.16314   3.57793
H    -2.58341  -1.09319   4.52022
H    -0.66961  -0.48187   3.07674
H     1.35272   1.75942   2.64052
H     0.52775   2.69659   1.36824
H    -0.41977   1.80441   2.58501
