37
Generated by autodE on: 2022-07-27. E = -863.622307 Ha
C     4.17893   0.65652  -2.23584
O     3.66683   0.94062  -0.93886
C     2.48498   0.31551  -0.60444
O     1.89212  -0.39401  -1.42727
C     2.13674   0.57842   0.74110
N     0.98525   0.08788   1.32411
C     1.12894  -0.27412   2.74772
C    -0.18437  -0.04512   0.69003
C    -0.50990   0.78224  -0.48833
C    -0.22755   2.16239  -0.49934
C    -0.61852   2.95511  -1.57505
C    -1.28574   2.38613  -2.66929
C    -1.56816   1.01865  -2.66911
C    -1.18605   0.22312  -1.58578
C    -1.19202  -1.00467   1.17161
C    -2.55645  -0.64951   1.19343
C    -3.51972  -1.55841   1.62830
C    -3.14374  -2.84409   2.03449
C    -1.79551  -3.21486   1.99933
C    -0.82747  -2.30651   1.57091
H     3.46724   0.95253  -3.02271
H     5.10286   1.24075  -2.33740
H     4.40744  -0.41496  -2.35501
H     2.85080   1.05904   1.40536
H     1.70006   0.52925   3.23271
H     1.68780  -1.21304   2.85079
H     0.14816  -0.35774   3.22461
H     0.29470   2.61519   0.34512
H    -0.40762   4.02707  -1.56049
H    -1.58508   3.01053  -3.51429
H    -2.08744   0.56484  -3.51645
H    -1.40601  -0.84576  -1.59097
H    -2.85533   0.35201   0.87958
H    -4.57094  -1.26215   1.65181
H    -3.90047  -3.55677   2.37034
H    -1.49612  -4.22228   2.29763
H     0.21796  -2.61474   1.52219
