26
Generated by autodE on: 2022-07-27. E = -628.384173 Ha
C    -0.88837  -1.57418   2.26092
C    -0.34896  -0.89619   1.04362
C    -1.01424   0.32518   0.55021
C    -1.34394   1.36128   1.43991
C    -2.00768   2.50014   0.97948
C    -2.37322   2.60321  -0.36487
C    -2.06515   1.56470  -1.25271
C    -1.38072   0.43784  -0.80512
N     0.68938  -1.41001   0.41742
C     1.19798  -2.73994   0.79868
C     1.46277  -0.69768  -0.54479
C     1.66290   0.68244  -0.41786
N     1.85072   1.83581  -0.32174
C     2.00128  -1.37749  -1.64482
N     2.46614  -1.93371  -2.56737
H    -0.08906  -1.89473   2.94494
H    -1.45460  -2.47467   1.96502
H    -1.57955  -0.91064   2.79211
H    -1.06093   1.28464   2.49133
H    -2.24316   3.30719   1.67658
H    -2.89997   3.49051  -0.72327
H    -2.35984   1.63547  -2.30203
H    -1.13703  -0.36457  -1.50301
H     0.36561  -3.42915   0.97488
H     1.81877  -3.12620  -0.01602
H     1.81163  -2.65121   1.70649
