27
Generated by autodE on: 2022-06-07. E = -802.271315 Ha
C     3.90959   2.10147   0.41815
N     3.08151   0.92578   0.23092
C     1.74423   1.00159   0.28536
O     1.12382   2.04953   0.48877
C     1.02435  -0.30252   0.09061
F     1.83451  -1.37169   0.12642
C    -0.30174  -0.44841  -0.05395
C    -0.93263  -1.81415  -0.15969
O    -0.40028  -2.73921  -0.77898
N    -2.11442  -1.92978   0.46999
C    -2.85939  -3.17237   0.46448
C    -1.23478   0.73727  -0.05701
O    -2.00886   0.91946   0.89111
N    -1.24612   1.46639  -1.18305
C    -1.98283   2.71272  -1.26858
H     4.96300   1.80613   0.35123
H     3.72662   2.55966   1.40264
H     3.70007   2.85908  -0.35314
H     3.52157   0.02538   0.07181
H    -2.46905  -1.11758   0.97175
H    -2.31304  -3.97198   0.99062
H    -3.04756  -3.51376  -0.56524
H    -3.82041  -3.01145   0.96756
H    -0.48223   1.31883  -1.83633
H    -2.09361   2.99774  -2.32240
H    -1.45963   3.52260  -0.73173
H    -2.97877   2.58826  -0.82384
