53
Generated by autodE on: 2022-06-07. E = -1430.620398 Ha. Imaginary frequency = -323.7 cm-1
C    -1.13841   2.14309   3.46638
N    -0.56612   1.01363   2.75841
C    -0.13505   1.12655   1.49248
O    -0.18243   2.20879   0.87862
C     0.36770  -0.12295   0.86411
F     0.37540  -1.16039   1.78732
C    -1.44380  -0.89512  -0.25102
C    -2.12418  -1.72117   0.80720
C    -2.28414   0.24326  -0.73847
C    -2.86588   1.16310   0.15293
C    -3.75004   2.13975  -0.30303
C    -4.09513   2.20419  -1.65649
C    -3.56654   1.26399  -2.54460
C    -2.67875   0.28933  -2.08952
N    -0.67240  -1.57569  -1.17608
C    -0.60554  -3.04442  -1.10761
C     0.35308  -0.89844  -1.83091
C     0.14718   0.42115  -2.37387
N     0.11672   1.48515  -2.83934
C     1.22979  -1.64594  -2.69158
N     1.94350  -2.17132  -3.44387
C     1.45824  -0.23766  -0.05881
C     2.32225   0.81085  -0.73311
O     3.23112   0.39896  -1.47396
N     2.09720   2.10927  -0.52253
C     2.81682   3.11212  -1.28071
C     2.34497  -1.45409   0.25546
O     2.20326  -2.56530  -0.25335
N     3.29721  -1.19585   1.16718
C     4.24170  -2.21427   1.58637
H    -1.36100   1.83618   4.49515
H    -0.43456   2.98863   3.48895
H    -2.06915   2.48843   2.98779
H    -0.55334   0.09991   3.19813
H    -1.46475  -2.47121   1.25435
H    -3.00445  -2.22754   0.37680
H    -2.48845  -1.05596   1.60038
H    -2.64629   1.10863   1.21662
H    -4.17701   2.85040   0.40807
H    -4.78812   2.96986  -2.01259
H    -3.85308   1.27927  -3.59850
H    -2.30527  -0.45637  -2.79192
H    -1.62775  -3.43735  -1.07358
H    -0.03520  -3.38366  -0.23555
H    -0.12235  -3.42175  -2.01434
H     1.22768   2.36031  -0.03324
H     2.59904   3.03245  -2.35896
H     2.51254   4.10659  -0.93070
H     3.90334   3.00477  -1.14532
H     3.35792  -0.26622   1.56949
H     3.72465  -3.07054   2.04794
H     4.82499  -2.58928   0.73060
H     4.92935  -1.77752   2.32057
