12
Generated by autodE on: 2022-06-22. E = -157.299005 Ha
C     1.56897  -0.56458   0.20661
C     0.69021   0.57420  -0.21712
C    -0.65167   0.61407  -0.22795
C    -1.60260  -0.47077   0.18117
H     2.23316  -0.25990   1.03473
H     2.23309  -0.87519  -0.61932
H     1.00162  -1.44724   0.53492
H     1.22237   1.47267  -0.55481
H    -1.12424   1.54211  -0.57414
H    -2.26696  -0.74641  -0.65692
H    -1.09300  -1.38285   0.52326
H    -2.26448  -0.12544   0.99504
