36
Generated by autodE on: 2022-06-22. E = -970.259308 Ha
C    -3.74180   0.65519  -2.64233
N    -2.65870   0.17959  -1.79858
C    -1.90758   1.00743  -1.07032
O    -2.06816   2.22927  -0.98504
C    -0.83386   0.37772  -0.21048
C    -1.21467   0.08348   1.22194
O    -0.82087  -0.93949   1.78103
N    -2.09262   0.94713   1.75527
C    -2.52574   0.81908   3.13311
N     0.32358   0.05161  -0.71560
C     0.51060   0.14371  -2.18687
C     1.46563  -0.18247   0.08947
C     1.70822   0.74591   1.16206
C     3.01396   0.67764   1.92258
O     0.87948   1.62376   1.47289
C     2.32319  -1.29173  -0.25206
O     3.43190  -1.53590   0.21574
O     1.74756  -2.12509  -1.15990
C     2.54350  -3.22029  -1.61425
H    -4.25367   1.49148  -2.14846
H    -4.45494  -0.16259  -2.80359
H    -3.36816   1.00133  -3.61963
H    -2.39803  -0.80298  -1.83650
H    -2.26186   1.82040   1.26188
H    -1.70178   1.03599   3.83337
H    -3.34455   1.52514   3.31608
H    -2.88159  -0.20241   3.32769
H     0.13402   1.11636  -2.52846
H     1.57772   0.07990  -2.40858
H    -0.02793  -0.66820  -2.68740
H     3.08631  -0.27459   2.46988
H     3.88359   0.72640   1.25360
H     3.03569   1.51231   2.63581
H     3.47175  -2.86446  -2.08633
H     1.93131  -3.75491  -2.35090
H     2.79934  -3.89267  -0.78189
