36
Generated by autodE on: 2022-07-28. E = -970.252447 Ha
C    -3.59823  -2.61800  -0.39302
N    -2.38152  -1.84326  -0.22546
C    -2.35172  -0.52257  -0.43309
O    -3.34298   0.15793  -0.72596
C    -0.99878   0.10888  -0.20741
C    -0.85622   1.14180   0.88278
O     0.22886   1.56396   1.28690
N    -2.03518   1.60661   1.34319
C    -2.07700   2.68822   2.30578
N    -0.01333  -0.17298  -1.03342
C    -0.30374  -0.84281  -2.32056
C     1.33415  -0.05211  -0.65519
C     2.23109   0.60956  -1.57552
C     3.72730   0.59409  -1.35506
O     1.77994   1.21882  -2.56407
C     1.63705  -0.64958   0.64167
O     0.84868  -1.31332   1.31044
O     2.90248  -0.45710   1.04618
C     3.28686  -1.08449   2.27339
H    -3.86586  -2.71294  -1.45775
H    -3.44021  -3.61833   0.02661
H    -4.43416  -2.13238   0.13072
H    -1.51708  -2.31896   0.02160
H    -2.88221   1.36760   0.83026
H    -3.10279   2.78962   2.68052
H    -1.76521   3.64688   1.85778
H    -1.40292   2.47283   3.14695
H    -1.28084  -0.52201  -2.69975
H     0.47236  -0.55675  -3.03253
H    -0.28323  -1.92940  -2.16559
H     4.10528  -0.41483  -1.14179
H     3.99697   1.22865  -0.49759
H     4.20274   0.99441  -2.26068
H     4.33663  -0.81143   2.43413
H     2.66869  -0.71790   3.10584
H     3.18844  -2.17768   2.20321
