48
Generated by autodE on: 2022-06-22. E = -1127.522001 Ha. Imaginary frequency = -271.1 cm-1
C    -3.66524  -1.07713  -2.31406
N    -2.40404  -0.62709  -1.76126
C    -2.36473   0.21208  -0.70500
O    -3.43068   0.65094  -0.22645
C    -1.03023   0.48572  -0.09479
C    -0.93949   1.15255   1.22480
O     0.15202   1.56161   1.66452
N    -2.06962   1.29758   1.94607
C    -2.05413   1.98616   3.21827
C    -0.57574  -1.69079   1.11338
C    -1.93801  -2.29291   0.93753
C     0.55763  -2.10460   0.43762
C     0.51420  -3.05200  -0.72597
C     1.30879  -0.04833  -0.51475
C     2.22071  -0.65003  -1.51432
C     3.62137  -0.98615  -1.05790
O     1.85035  -0.96184  -2.64639
C     2.04393   0.50646   0.69604
O     2.39354  -0.09774   1.68808
O     2.50890   1.72619   0.37860
C     3.27929   2.39240   1.38678
N     0.08118   0.42169  -0.91584
C    -0.07072   0.89298  -2.32893
H    -4.29395  -0.22042  -2.59774
H    -3.46253  -1.68048  -3.20775
H    -4.23060  -1.68885  -1.59043
H    -1.56840  -1.14003  -2.01388
H    -2.94330   1.11424   1.45040
H    -1.34465   1.51315   3.91465
H    -3.05915   1.94204   3.65683
H    -1.76193   3.04561   3.11466
H    -0.40772  -1.15568   2.05153
H    -2.73466  -1.59705   1.23769
H    -2.12982  -2.62317  -0.09109
H    -2.02851  -3.18209   1.58936
H     1.50535  -1.98380   0.95987
H     1.52397  -3.35351  -1.03523
H     0.02437  -2.60318  -1.60616
H    -0.05126  -3.96568  -0.47489
H     3.60478  -1.62687  -0.16444
H     4.17406  -0.07053  -0.79540
H     4.14017  -1.50481  -1.87349
H     3.55595   3.36567   0.96462
H     2.67413   2.52960   2.29461
H     4.18220   1.81376   1.63049
H     0.84549   1.42758  -2.60094
H    -0.90356   1.60180  -2.35718
H    -0.23245   0.08802  -3.04691
