49
Generated by autodE on: 2022-06-23. E = -1216.126754 Ha
C     3.39103   1.82198  -2.73524
N     2.36850   1.52644  -1.75217
C     2.67770   1.27636  -0.46862
O     3.83134   1.33574  -0.02254
C     1.52345   0.85178   0.43386
N     0.26008   1.56387   0.21143
C    -0.85924   0.63720   0.05023
C    -2.09803   1.10162   0.84830
O    -3.14711   0.42834   0.85966
N    -1.95416   2.24623   1.50711
C    -2.98670   2.80754   2.35358
C    -1.20164   0.47630  -1.46226
O    -0.34454   0.72856  -2.32235
N    -2.42021   0.03806  -1.77842
C    -2.79986  -0.24184  -3.14997
C    -0.30536  -0.72039   0.64021
C    -0.94984  -1.98318   0.03358
N    -2.19106  -2.28074   0.45505
O    -0.33617  -2.68679  -0.77336
C    -0.39311  -0.74888   2.18475
C     0.50681  -1.82853   2.71399
C     1.62283  -2.18318   2.04328
N     2.05748  -1.58154   0.87845
C     3.00032  -2.28561   0.02623
C     1.17690  -0.64044   0.21572
H     4.06070   2.61450  -2.37040
H     4.00960   0.93696  -2.96426
H     2.91097   2.16259  -3.66155
H     1.41624   1.30625  -2.06486
H     1.88378   0.99246   1.46364
H     0.30874   2.21061  -0.57049
H    -1.01567   2.64374   1.47383
H    -3.00038   2.32886   3.34682
H    -2.80309   3.88156   2.48334
H    -3.97152   2.66324   1.88880
H    -3.07886  -0.10830  -1.01381
H    -2.15033  -1.01804  -3.58436
H    -3.83741  -0.59629  -3.16394
H    -2.72094   0.65988  -3.77689
H    -2.75383  -1.55583   0.89895
H    -2.67013  -3.05155  -0.00196
H    -1.42955  -0.90924   2.50848
H    -0.10681   0.24315   2.57394
H     0.26066  -2.33032   3.65079
H     2.27708  -2.97793   2.41193
H     2.49593  -2.97387  -0.67775
H     3.69248  -2.87071   0.64819
H     3.59636  -1.56724  -0.55561
H     1.21666  -0.84630  -0.85990
