29
Generated by autodE on: 2022-06-23. E = -758.371601 Ha
C     5.24031   0.04014   0.06079
N     3.91005   0.60494  -0.03635
C     2.80546  -0.16035   0.05914
O     2.84750  -1.39112   0.24072
C     1.52500   0.54800  -0.06698
N     0.45070  -0.20020   0.04923
C    -0.88997  -0.04187   0.03909
C    -1.59666   1.20297  -0.26800
O    -2.81082   1.34580  -0.00435
N    -0.90717   2.20988  -0.86267
C    -1.58149   3.42942  -1.26683
C    -1.56957  -1.32117   0.34922
O    -0.88631  -2.35750   0.50836
N    -2.90776  -1.31801   0.45017
C    -3.65024  -2.51767   0.76881
H     5.97658   0.84586  -0.04418
H     5.39422  -0.45594   1.03253
H     5.41671  -0.70663  -0.73016
H     3.80327   1.60232  -0.19102
H     1.47008   1.62518  -0.19912
H     0.67417  -1.20449   0.22720
H    -0.01604   2.00944  -1.30241
H    -2.32741   3.24890  -2.05950
H    -2.10211   3.88211  -0.41096
H    -0.83241   4.13857  -1.64049
H    -3.36037  -0.40654   0.36140
H    -3.45072  -3.31889   0.03950
H    -4.72259  -2.28683   0.75030
H    -3.39224  -2.90521   1.76881
