49
Generated by autodE on: 2022-06-23. E = -1216.071422 Ha. Imaginary frequency = -509.6 cm-1
C     3.90189   0.51577  -2.74183
N     2.69354   0.50885  -1.94181
C     2.65935   1.09160  -0.72585
O     3.62193   1.68903  -0.22497
C     1.36934   0.92983   0.01701
N     0.22427   1.16519  -0.70052
C    -1.01988   0.80001  -0.29932
C    -1.56214   1.08921   1.05012
O    -2.63459   0.58221   1.43698
N    -0.88856   1.95348   1.83351
C    -1.32083   2.23972   3.18725
C    -1.94132   0.59130  -1.45841
O    -1.50093   0.70011  -2.61715
N    -3.20672   0.24193  -1.18626
C    -4.12345  -0.15254  -2.23384
C    -0.06582  -1.43102   0.26609
C    -0.24789  -1.77787  -1.14594
N    -1.36021  -2.47922  -1.48525
O     0.58741  -1.46313  -2.02406
C    -0.99890  -1.98545   1.31976
C    -0.59904  -1.50810   2.69129
C     0.65329  -1.08883   2.94310
N     1.64414  -1.04155   1.96674
C     2.96106  -0.54109   2.31733
C     1.25217  -1.00366   0.61460
H     4.28764   1.54009  -2.84816
H     4.69885  -0.09999  -2.29026
H     3.67407   0.11881  -3.73931
H     1.96337  -0.18689  -2.14156
H     1.41148   1.33474   1.02557
H     0.29513   1.09478  -1.72131
H    -0.08757   2.45300   1.46752
H    -1.35758   1.31667   3.78604
H    -0.60291   2.93084   3.64531
H    -2.32118   2.70122   3.20492
H    -3.44171   0.14272  -0.19671
H    -5.10673  -0.35101  -1.78974
H    -3.77665  -1.06472  -2.74771
H    -4.22997   0.64103  -2.98953
H    -1.58083  -2.53957  -2.47455
H    -2.13738  -2.55809  -0.83986
H    -2.04028  -1.69323   1.11058
H    -0.98701  -3.09601   1.27297
H    -1.32935  -1.53379   3.50121
H     0.97105  -0.77830   3.94126
H     3.68567  -0.84024   1.54663
H     2.99770   0.55961   2.40806
H     3.27984  -0.97527   3.27545
H     2.04322  -1.31613  -0.06995
