42
Generated by autodE on: 2022-05-31. E = -1140.973291 Ha
C    -2.89262   2.40449  -2.29979
N    -2.37834   1.21830  -1.64201
C    -1.75890   1.28108  -0.46004
O    -1.57465   2.32776   0.16708
C    -1.26972  -0.05937   0.12742
C    -2.07272  -0.22023   1.44950
O    -1.67002   0.28944   2.49394
N    -3.22044  -0.90015   1.34506
C    -4.09868  -1.09737   2.48287
N    -1.55041  -1.18416  -0.76874
C    -0.49068  -1.89115  -0.88966
C    -0.48743  -3.08438  -1.69436
N    -0.44033  -4.05073  -2.33666
C     0.74946  -1.41089  -0.18754
C     1.84197  -0.90754  -1.19660
O     1.24412   0.30181  -1.66088
C     1.14014   0.93647  -0.37689
C     2.55461   0.76877   0.17256
C     3.15490   1.61866   1.21090
C     2.25734   2.67362   1.80768
O     4.32321   1.48974   1.57343
C     2.99649  -0.40888  -0.33602
C     4.21306  -1.21245  -0.07716
C     0.25499  -0.06941   0.42462
H    -2.08990   3.13822  -2.47067
H    -3.67347   2.88900  -1.69264
H    -3.32201   2.11523  -3.26618
H    -2.50109   0.30539  -2.06900
H    -3.45718  -1.30722   0.44569
H    -4.96237  -1.69268   2.16391
H    -4.45639  -0.13392   2.87842
H    -3.58008  -1.62820   3.29644
H     1.13853  -2.15939   0.51545
H     2.08158  -1.59390  -2.01684
H     0.75127   1.95252  -0.46683
H     2.74219   3.13366   2.67840
H     2.06142   3.44950   1.04786
H     1.27770   2.25579   2.08958
H     4.86843  -0.73648   0.66041
H     3.92494  -2.21824   0.27577
H     4.77227  -1.36469  -1.01660
H     0.42756   0.02474   1.49951
