21
Generated by autodE on: 2022-05-31. E = -499.581899 Ha
C     2.73980  -0.48510   0.72005
C     1.66371   0.57095   0.67645
O     1.82850   1.66936   1.21174
C     0.42909   0.21471  -0.02499
C    -0.77223   0.84197  -0.02443
C    -1.26003   2.07720   0.62675
C    -1.70305  -0.10724  -0.81714
C    -1.92505  -1.35029   0.07191
C    -0.74652  -1.98088   0.07107
C     0.17316  -1.10292  -0.80638
O    -0.77354  -0.62825  -1.78191
H     3.10130  -0.69351  -0.30064
H     2.33521  -1.43200   1.11390
H     3.57688  -0.14588   1.34400
H    -0.48034   2.56594   1.22113
H    -1.63339   2.78463  -0.13446
H    -2.12534   1.83666   1.27007
H    -2.58264   0.35064  -1.28311
H    -2.84396  -1.58111   0.60950
H    -0.43476  -2.87757   0.60580
H     1.03694  -1.58532  -1.27392
