21
Generated by autodE on: 2022-05-31. E = -641.257225 Ha
C    -2.36274  -2.99747   0.12718
N    -1.22606  -2.13407  -0.13368
C    -1.24051  -0.83651   0.22782
O    -2.19940  -0.30612   0.79501
C    -0.02686  -0.02211  -0.12291
N    -0.20498   1.25186  -0.10108
C    -0.42064   2.43163  -0.18999
C    -0.36714   3.56818   0.59672
N    -0.36451   4.59645   1.15361
C     1.34901  -0.46944  -0.53426
O     2.06145   0.26559  -1.22122
N     1.74212  -1.68403  -0.10041
C     3.06502  -2.19676  -0.40860
H    -2.08341  -4.03021  -0.11373
H    -2.65256  -2.94211   1.18662
H    -3.23700  -2.71259  -0.48111
H    -0.46731  -2.48648  -0.70746
H     1.19080  -2.16330   0.60448
H     3.25845  -2.12769  -1.48852
H     3.85281  -1.63221   0.11727
H     3.11627  -3.24863  -0.10255
