39
Generated by autodE on: 2022-05-29. E = -1101.601956 Ha
C    -3.98193   2.91130  -0.77254
N    -3.24877   1.75028  -0.31220
C    -1.95692   1.83990   0.03321
O    -1.31981   2.90621   0.02593
C    -1.25791   0.59772   0.45819
C    -1.45034  -0.72951   0.27393
C    -2.53141  -1.45434  -0.41046
O    -3.64734  -1.01400  -0.64582
O    -2.14852  -2.68590  -0.74615
C    -3.11155  -3.50714  -1.42614
C    -0.15924  -1.38802   0.75487
O     0.22919  -0.51256   1.82078
C     0.13323   0.70071   1.07166
C     1.12980   0.43814  -0.09978
C     0.92169  -1.08993  -0.33091
C     2.28203  -1.76548  -0.04713
C     2.98856  -2.19548  -1.32774
N     3.08450  -0.80021   0.74275
C     2.64211   0.54071   0.32816
C     3.44031   1.01317  -0.82807
N     4.05736   1.38081  -1.73740
C     2.86592   1.50727   1.41681
N     3.03165   2.25682   2.28457
H    -3.92000   3.72911  -0.03836
H    -3.58526   3.28970  -1.72955
H    -5.03462   2.63615  -0.91041
H    -3.66648   0.81818  -0.37264
H    -2.60753  -4.46013  -1.62143
H    -3.41672  -3.03370  -2.37010
H    -3.99456  -3.66291  -0.79019
H    -0.22250  -2.42850   1.08629
H     0.32530   1.58462   1.68548
H     0.92042   1.08307  -0.95882
H     0.54882  -1.33207  -1.33263
H     2.14186  -2.65109   0.58841
H     2.39966  -2.97645  -1.83276
H     3.10817  -1.35978  -2.03363
H     3.98523  -2.60258  -1.10144
H     2.81297  -0.89621   1.72156
