13
Generated by autodE on: 2022-07-26. E = -357.896266 Ha
C     0.32678  -2.18723  -1.41547
C     1.10585  -1.77494  -0.22689
N     0.91051  -0.68528   0.45685
C     0.00152   0.36849   0.31376
C    -0.92062   0.47331  -0.74184
N    -1.71153   0.63539  -1.59008
C     0.03616   1.38761   1.28203
N     0.05482   2.24369   2.08125
H    -0.74982  -2.24709  -1.18413
H     0.44200  -1.46246  -2.23926
H     0.67070  -3.16962  -1.76181
H     1.91965  -2.39806   0.14948
H     1.53689  -0.56081   1.25644
