26
Generated by autodE on: 2022-05-29. E = -743.630342 Ha
C     3.71171   0.75731  -1.06899
N     2.38276   0.63491  -0.50756
C     1.89750  -0.55699  -0.12895
O     2.55273  -1.61053  -0.18902
C     0.50926  -0.60558   0.39799
C    -0.58227   0.18849   0.32748
C    -0.78397   1.50059  -0.29495
O     0.10124   2.27340  -0.63835
O    -2.08163   1.77300  -0.44522
C    -2.41913   3.03178  -1.04790
C    -1.72409  -0.66407   0.94471
C    -2.00211  -1.81902  -0.04260
C    -0.91993  -2.59864   0.03131
C    -0.00588  -1.90478   1.06441
O    -0.98176  -1.35297   1.96129
H     3.79798   0.22728  -2.03249
H     4.46528   0.33422  -0.38699
H     3.93417   1.81934  -1.22925
H     1.73967   1.43115  -0.52467
H    -2.02972   3.86190  -0.44126
H    -3.51386   3.06427  -1.08183
H    -2.00277   3.09287  -2.06358
H    -2.58017  -0.11437   1.34587
H    -2.88071  -1.89529  -0.68178
H    -0.65704  -3.49351  -0.53104
H     0.74681  -2.51328   1.57329
