37
Generated by autodE on: 2022-05-30. E = -1120.542043 Ha
C     4.24989   0.12537   1.36630
N     3.07420   0.60066   0.65959
C     2.57868  -0.06475  -0.38412
O     3.08243  -1.09550  -0.84207
C     1.32823   0.52581  -1.10134
N     0.66905  -0.50997  -1.89867
C    -0.44622  -1.05826  -1.09649
C    -1.57459  -1.37764  -1.98895
N    -2.43167  -1.63757  -2.72530
C     0.02468  -2.31901  -0.28966
C    -0.01662  -3.63622  -0.99401
O     0.45111  -2.15714   0.83388
C    -0.76221   0.08264  -0.14493
C    -1.90289   0.06582   0.79689
O    -2.08651   0.88204   1.67787
O    -2.68522  -0.99194   0.57892
C    -3.80985  -1.16802   1.45434
C     0.22383   0.99388  -0.18689
C     0.25794   2.28678   0.55917
O     1.15912   2.60687   1.31385
O    -0.77581   3.05383   0.26490
C    -0.88530   4.30324   0.97200
H     4.08459  -0.88050   1.78427
H     4.47304   0.81805   2.18669
H     5.12203   0.07555   0.69629
H     2.55590   1.40254   1.02700
H     1.69778   1.34476  -1.74188
H     1.35057  -1.23682  -2.13120
H     0.34542  -3.53847  -2.02950
H    -1.06708  -3.96868  -1.05091
H     0.57372  -4.37850  -0.44242
H    -4.48505  -0.30369   1.38326
H    -3.46685  -1.28464   2.49216
H    -4.31548  -2.07799   1.11308
H    -1.77356   4.79816   0.56494
H     0.01040   4.91688   0.80403
H    -1.01039   4.10986   2.04678
