16
Generated by autodE on: 2022-05-30. E = -533.327077 Ha
C    -4.01058   0.28124   1.17521
O    -2.60054   0.01617   1.04656
C    -2.03328   0.37635  -0.09925
O    -2.60171   0.90624  -1.03050
C    -0.61582   0.05684  -0.11793
C     0.57183  -0.17787  -0.19535
C     1.97538  -0.53637  -0.31052
O     2.34925  -1.60544  -0.74463
O     2.76593   0.44260   0.11494
C     4.18375   0.19679   0.04881
H    -4.20392   1.35915   1.08118
H    -4.57035  -0.26462   0.40266
H    -4.28938  -0.07292   2.17361
H     4.48877   0.01646  -0.99166
H     4.66075   1.10336   0.43675
H     4.44686  -0.67223   0.66824
