37
Generated by autodE on: 2022-05-30. E = -1120.465465 Ha. Imaginary frequency = -290.7 cm-1
C     4.11007   2.59340   0.43538
N     3.12005   1.85206  -0.32289
C     2.65327   0.66961   0.10312
O     3.08178   0.07115   1.09673
C     1.51252   0.10769  -0.68088
N     1.19445  -1.14963  -0.37332
C     0.04665  -1.76593  -0.74327
C    -0.47584  -1.57247  -2.05249
N    -0.90864  -1.42568  -3.12349
C    -0.34055  -2.93395   0.09589
C    -1.48610  -3.78177  -0.36047
O     0.29697  -3.15175   1.11791
C    -1.19334   0.08296   0.12213
C    -2.46748  -0.55913   0.36393
O    -2.77483  -1.08040   1.42020
O    -3.24702  -0.53715  -0.72131
C    -4.53056  -1.17489  -0.60318
C    -0.31336   0.96837   0.13032
C     0.08609   2.35746   0.33188
O     0.04792   3.20102  -0.54190
O     0.53884   2.56599   1.56795
C     0.98921   3.89838   1.87378
H     5.08333   2.07790   0.42611
H     3.79265   2.70679   1.48322
H     4.23005   3.58575  -0.01430
H     2.67080   2.29495  -1.11996
H     1.26497   0.49573  -1.67120
H     1.57911  -1.49532   0.51921
H    -1.11065  -4.46601  -1.14158
H    -2.29205  -3.19038  -0.81638
H    -1.86895  -4.37377   0.48000
H    -5.13917  -0.66800   0.15905
H    -4.40910  -2.23351  -0.33385
H    -4.99996  -1.08331  -1.58897
H     1.40769   3.84610   2.88484
H     0.14187   4.59823   1.84636
H     1.75605   4.21918   1.15649
