16
Generated by autodE on: 2022-05-29. E = -1688.667493 Ha
Cl    3.03464  -0.06884  -0.02553
C     1.36096   0.16649   0.35022
Cl    1.08153   0.98766   1.85537
C     0.35184  -0.26941  -0.43273
Cl    0.74160  -1.18425  -1.87559
C    -1.09214  -0.06015  -0.18632
C    -1.97618  -1.15315  -0.21015
C    -3.33918  -0.95975   0.01518
C    -3.83762   0.32569   0.25277
C    -2.96578   1.41866   0.26141
C    -1.60002   1.22989   0.04293
H    -1.59085  -2.15597  -0.40389
H    -4.01568  -1.81731   0.00384
H    -4.90596   0.47569   0.42482
H    -3.35032   2.42667   0.43242
H    -0.92480   2.08669   0.03994
