30
Generated by autodE on: 2022-05-29. E = -2104.732253 Ha. Imaginary frequency = -389.8 cm-1
C    -1.88324  -4.30634   1.15121
O    -1.87360  -2.86907   1.22755
C    -1.30297  -2.22868   0.20329
O    -0.80887  -2.76595  -0.76550
C    -1.26700  -0.78680   0.43090
N    -1.99402   0.09411   0.85587
N    -2.19060   1.31676   0.82362
C    -2.41106   2.01759   2.07967
C    -0.02400   1.75859  -0.14838
Cl   -0.62932   3.09023  -1.09664
Cl    0.81700   2.26841   1.29559
C     0.23068   0.49291  -0.67423
Cl   -0.44063   0.21670  -2.29614
C     1.44272  -0.32587  -0.34370
C     1.68779  -0.80511   0.95394
C     2.84780  -1.52785   1.23760
C     3.78105  -1.79153   0.23073
C     3.54300  -1.32303  -1.06406
C     2.38519  -0.59632  -1.35013
H    -2.36707  -4.64970   2.07242
H    -2.45371  -4.63886   0.27243
H    -0.85520  -4.69128   1.09128
H    -2.25259   3.08644   1.88954
H    -1.72733   1.67350   2.87212
H    -3.45148   1.87875   2.41634
H     0.96215  -0.62347   1.74645
H     3.01566  -1.89499   2.25275
H     4.68459  -2.36391   0.45290
H     4.26151  -1.52314  -1.86237
H     2.20965  -0.23968  -2.36569
