30
Generated by autodE on: 2022-06-16. E = -555.747577 Ha
C     4.34800   0.04750  -0.39129
C     3.21833   0.05310   0.34511
C     3.24697   0.21689   1.84169
C     1.91948  -0.10204  -0.31868
C     0.72246  -0.11140   0.29579
C    -0.57082  -0.23547  -0.43768
N    -1.45431  -1.27413   0.11376
C    -1.14979  -2.67231  -0.10378
N    -2.74536  -0.89201  -0.04810
N    -2.87337   0.32203  -0.31505
C    -1.53146   0.98502  -0.36760
C    -1.42145   1.87345  -1.59713
C    -1.38829   1.80868   0.91501
H     5.33199   0.16228   0.07201
H     4.31441  -0.07178  -1.47858
H     2.78482  -0.64923   2.34401
H     2.67201   1.10454   2.15393
H     4.27663   0.32267   2.21126
H     1.94936  -0.21551  -1.40872
H     0.65414  -0.01269   1.38217
H    -0.36396  -0.47323  -1.49925
H    -1.93827  -3.28847   0.34833
H    -0.19159  -2.91679   0.37535
H    -1.07438  -2.91512  -1.18057
H    -2.13722   2.70797  -1.54317
H    -0.40563   2.29452  -1.66221
H    -1.61796   1.30131  -2.51633
H    -0.42526   2.34074   0.92616
H    -1.44508   1.17598   1.81300
H    -2.19528   2.55468   0.96620
