40
Generated by autodE on: 2022-10-21. E = -1784.272443 Ha
C     0.35490   1.90023   2.43699
O    -0.07492   0.54408   2.50601
C    -1.01634   0.13449   1.53121
C    -2.26191   0.91834   1.79401
N    -3.20203   1.52321   2.10252
C    -1.39713  -1.34999   1.81095
C    -0.27462  -2.29550   2.23390
C     0.86933  -2.51667   1.24575
C     1.86819  -1.34600   1.17967
C     1.84012  -0.56864  -0.12250
Cl    2.51267  -1.67896  -1.41928
Cl    3.05025   0.81968   0.03087
C     0.55798   0.06097  -0.59077
C    -0.55827   0.39384   0.08872
C    -1.40927   1.26764  -0.82413
C    -2.70434   0.60338  -1.33418
C    -3.28438   1.16613  -2.59639
O    -3.22690  -0.30279  -0.71004
O    -0.55056   1.64666  -1.88143
C     0.45545   0.63221  -2.01098
C     0.04038  -0.36789  -3.09118
H    -0.48701   2.59601   2.59487
H     1.08614   2.03409   3.24461
H     0.83773   2.12455   1.47310
H    -2.14256  -1.34227   2.62006
H    -1.90744  -1.72081   0.91245
H     0.13804  -1.96467   3.20033
H    -0.76260  -3.26479   2.42652
H     0.46611  -2.74138   0.24496
H     1.41927  -3.41764   1.55539
H     2.89906  -1.70291   1.30259
H     1.67513  -0.63422   1.98962
H    -1.73714   2.18412  -0.29967
H    -3.31569   2.26584  -2.54546
H    -4.28913   0.75639  -2.76258
H    -2.63165   0.90531  -3.44411
H     1.39171   1.13412  -2.29875
H     0.85174  -1.06390  -3.33008
H    -0.22012   0.18976  -4.00320
H    -0.83519  -0.95392  -2.77165
