15
Generated by autodE on: 2022-10-26. E = -345.873562 Ha
C     0.71175  -2.05509  -0.34752
C     1.56674  -0.91531  -0.68989
O     1.46308   0.26288  -0.20063
C     0.47117   0.78917   0.59979
C    -0.92102   0.69533   0.38058
C    -1.47566   0.03793  -0.86929
O    -1.71983   1.25870   1.17380
H     1.33648  -2.96159  -0.33483
H     0.22795  -1.88287   0.62991
H    -0.09070  -2.22982  -1.08506
H     2.45426  -1.02643  -1.32078
H     0.87718   1.56956   1.24278
H    -0.75120  -0.03476  -1.69356
H    -1.85090  -0.97495  -0.64955
H    -2.33378   0.64246  -1.19806
