25
Generated by autodE on: 2022-10-21. E = -1438.244210 Ha
C    -0.26273  -4.05966  -1.61798
O     0.39931  -2.98824  -0.94919
C    -0.42769  -1.98111  -0.40694
C    -1.29030  -2.55602   0.66748
N    -1.97212  -3.02330   1.48070
C     0.40137  -0.92343   0.17958
C     0.72593   0.19960   0.49246
C     0.65560   1.64287   0.51534
Cl    1.86533   2.30934  -0.68020
Cl    1.05735   2.31556   2.15492
C    -0.77092   2.05949   0.11398
C    -1.32680   1.37965  -1.15322
C    -2.05138   0.01268  -1.00035
C    -1.32705  -1.26672  -1.46635
H    -1.05252  -4.50404  -0.98796
H     0.50556  -4.81980  -1.81093
H    -0.70012  -3.73942  -2.57666
H    -1.41766   1.83094   0.97531
H    -0.75937   3.15256  -0.00777
H    -2.06166   2.08847  -1.56238
H    -0.53278   1.30914  -1.91429
H    -2.96577   0.06828  -1.60886
H    -2.40489  -0.11345   0.03750
H    -0.66173  -1.05030  -2.31656
H    -2.07243  -2.00011  -1.80517
