40
Generated by autodE on: 2022-10-21. E = -1784.129735 Ha. Imaginary frequency = -150.8 cm-1
C    -1.03204   2.15857   2.45337
O    -1.08412   0.76673   2.75412
C    -1.19839  -0.12270   1.66825
C    -2.56517  -0.04589   1.07936
N    -3.64497  -0.04066   0.65713
C    -1.00882  -1.55355   2.24383
C     0.38954  -1.84085   2.81963
C     1.43976  -2.52910   1.91659
C     2.48187  -1.65261   1.20173
C     2.04620  -1.06169  -0.14393
Cl    1.83404  -2.40951  -1.36431
Cl    3.37496   0.03124  -0.76794
C     0.80650  -0.32127  -0.01285
C    -0.18311   0.05982   0.60284
C    -0.82115   2.22684  -0.93031
C    -2.21192   2.39969  -1.21884
C    -2.81130   2.01680  -2.55544
O    -2.94038   2.96544  -0.37460
O     0.13309   1.74023  -1.77278
C     0.22832   0.58137  -2.33242
C    -0.87110  -0.37670  -2.54561
H    -1.84885   2.46449   1.78037
H    -1.13283   2.68299   3.41309
H    -0.06649   2.42704   1.99512
H    -1.76495  -1.64737   3.03825
H    -1.26595  -2.27659   1.45572
H     0.80572  -0.91657   3.25136
H     0.22327  -2.51320   3.67453
H     0.94169  -3.18692   1.18560
H     2.02558  -3.19956   2.56334
H     3.39714  -2.23271   1.01305
H     2.75964  -0.80133   1.84271
H    -0.36890   2.93906  -0.24116
H    -3.57251   2.77167  -2.79951
H    -3.32295   1.04441  -2.47977
H    -2.07495   1.96833  -3.36765
H     1.19398   0.44594  -2.82710
H    -0.44656  -1.38754  -2.60191
H    -1.37232  -0.17624  -3.50910
H    -1.62431  -0.32378  -1.74840
