23
Generated by autodE on: 2022-06-21. E = -351.521382 Ha
C     3.44245   0.95166   1.24227
C     2.51201   0.48177   0.38240
C     2.89385  -0.02725  -0.98405
C     1.10341   0.45988   0.77164
C     0.07764   0.01324   0.00406
C    -1.30408   0.01495   0.43961
C    -2.38293  -0.41552  -0.26213
C    -2.32057  -0.98699  -1.65018
C    -3.76240  -0.34557   0.32949
H     4.50308   0.97937   0.97736
H     3.16155   1.32031   2.23369
H     2.38318   0.54308  -1.77771
H     3.97807   0.04715  -1.14839
H     2.59563  -1.08101  -1.11323
H     0.87762   0.84219   1.77449
H     0.29498  -0.36958  -0.99681
H    -1.48187   0.41066   1.44692
H    -2.74376  -2.00702  -1.66190
H    -1.30511  -1.03403  -2.06394
H    -2.94501  -0.38956  -2.33781
H    -3.75875   0.07841   1.34437
H    -4.42890   0.26788  -0.30322
H    -4.22171  -1.34961   0.37174
