25
Generated by autodE on: 2022-06-21. E = -780.623028 Ha
C     4.42345  -1.60859   0.66460
O     3.07983  -1.15347   0.47377
C     2.92703   0.13138   0.07925
O     3.86841   0.88929  -0.11484
C     1.54220   0.47736  -0.07839
N     0.47532  -0.39643   0.14405
C    -0.67051   0.21049  -0.08697
C    -2.01578  -0.31846   0.01563
C    -3.10715   0.52952  -0.25531
C    -4.40774   0.03852  -0.16238
C    -4.63239  -1.29413   0.19835
C    -3.54948  -2.13989   0.46748
C    -2.24529  -1.66069   0.37820
O    -0.44191   1.46683  -0.45755
C     0.99273   1.71408  -0.47577
O     1.40108   2.81183  -0.79381
H     4.92820  -1.01817   1.44361
H     4.99634  -1.53675  -0.27180
H     4.34697  -2.65645   0.97821
H     0.58576  -1.36468   0.44161
H    -2.92772   1.56783  -0.53624
H    -5.25099   0.69950  -0.37287
H    -5.65318  -1.67599   0.27003
H    -3.72302  -3.18067   0.74815
H    -1.41134  -2.33269   0.58978
