48
Generated by autodE on: 2022-06-21. E = -1132.119719 Ha. Imaginary frequency = -436.9 cm-1
C    -1.17781   0.33894   2.90745
C    -1.89960   0.81311   1.86130
C    -3.39796   0.96743   1.95097
C    -1.29752   1.16367   0.58913
C     0.11162   1.24983   0.37128
C     0.58931   2.22899  -0.63089
C     1.76804   2.88360  -0.61687
C     2.14257   3.81329  -1.73875
C     2.80366   2.75724   0.46572
C     0.59883  -0.44244  -0.35790
C     2.07567  -0.51844  -0.33547
C     2.81751  -0.16189  -1.46992
C     4.21336  -0.15889  -1.41838
C     4.87486  -0.50565  -0.23708
C     4.13461  -0.86083   0.89665
C     2.74094  -0.86321   0.85135
N    -0.17826  -1.36743   0.32977
C    -1.44962  -1.22889  -0.17018
C    -2.58811  -1.83829   0.48993
O    -2.51185  -2.36685   1.58944
O    -3.72500  -1.72688  -0.21094
C    -4.90720  -2.25486   0.40506
C    -1.33196  -0.68500  -1.50054
O    -2.11229  -0.50320  -2.41208
O     0.01611  -0.35089  -1.62292
H    -0.08849   0.25878   2.88281
H    -1.67388   0.03470   3.83234
H    -3.89633   0.51598   1.08012
H    -3.79989   0.51034   2.86573
H    -3.67114   2.03638   1.94935
H    -1.96082   1.59538  -0.16524
H     0.71249   1.20173   1.28169
H    -0.08721   2.39887  -1.47498
H     3.07387   3.47163  -2.22515
H     2.34709   4.83033  -1.36010
H     1.35624   3.87739  -2.50535
H     3.06487   3.75428   0.86122
H     2.48736   2.12560   1.30502
H     3.73486   2.33059   0.05521
H     2.30128   0.11354  -2.38910
H     4.78534   0.12002  -2.30610
H     5.96649  -0.49849  -0.19746
H     4.64596  -1.13143   1.82302
H     2.17207  -1.12306   1.74695
H    -0.03722  -1.54688   1.32439
H    -5.11535  -1.73074   1.34915
H    -4.79335  -3.33089   0.60072
H    -5.72028  -2.08366  -0.30965
