42
Generated by autodE on: 2022-05-29. E = -1015.581071 Ha
C    -3.63609   2.90259   0.52891
O    -2.83236   1.80925   0.05647
C    -1.55772   1.77676   0.44891
O    -1.05270   2.60813   1.16938
C    -0.84316   0.57213  -0.18109
C    -1.66253  -0.66153   0.23862
O    -1.96121  -0.88749   1.39509
O    -2.03937  -1.42037  -0.78311
C    -2.78013  -2.61054  -0.46746
N    -0.75089   0.80326  -1.61865
C     0.34871  -0.03185  -2.13124
C     0.81740   0.42217  -3.50211
C     1.41189   0.07797  -1.02931
C     2.04677  -1.26839  -0.58269
O     1.02425  -1.80238   0.28385
C     1.02979  -0.69832   1.21003
C     2.51457  -0.54064   1.52725
C     3.01564   0.05924   2.79428
C     3.15650  -0.91461   0.40469
C     4.59622  -0.85823   0.03146
C     0.64154   0.47369   0.26832
H    -4.63542   2.74657   0.10723
H    -3.22015   3.85921   0.18209
H    -3.67930   2.89581   1.62733
H    -3.70682  -2.35498   0.06517
H    -2.16695  -3.27779   0.15492
H    -3.00862  -3.08687  -1.42736
H    -1.63536   0.59070  -2.07862
H     0.03002  -1.08804  -2.19913
H     1.65290  -0.20649  -3.84872
H     0.00693   0.34364  -4.24455
H     1.15797   1.46961  -3.47068
H     2.18068   0.81390  -1.29988
H     2.28920  -1.97115  -1.38960
H     0.35917  -0.88078   2.05463
H     4.11325   0.12797   2.81069
H     2.68979  -0.52555   3.67196
H     2.60844   1.07742   2.92913
H     4.75128  -0.15925  -0.81009
H     4.96149  -1.84253  -0.30924
H     5.22564  -0.52502   0.86967
H     0.94467   1.44140   0.68065
