19
Generated by autodE on: 2022-05-29. E = -386.192012 Ha
C    -1.14552   2.07469   0.77664
C    -0.51684   0.88492   0.14385
C    -0.96699  -0.36263  -0.06570
C    -2.26178  -1.01901   0.25658
C     0.26051  -1.13001  -0.62440
C     1.27652  -1.26957   0.53307
C     1.72489  -0.02705   0.74150
C     0.97129   0.83977  -0.29379
O     0.89221  -0.08784  -1.39475
H    -0.60179   2.35582   1.69721
H    -2.19614   1.88889   1.04523
H    -1.10754   2.95489   0.11139
H    -2.99019  -0.30683   0.67210
H    -2.70870  -1.49241  -0.63501
H    -2.11263  -1.82662   0.99664
H     0.05466  -2.02359  -1.22570
H     1.49637  -2.18998   1.07371
H     2.41209   0.34844   1.49943
H     1.43142   1.79141  -0.58547
