23
Generated by autodE on: 2022-07-26. E = -629.311088 Ha
C     2.66116   0.42684  -2.76799
C     1.75755  -0.23675  -1.80160
N     0.98037   0.45017  -1.02503
C     0.03286   0.15529  -0.03514
C    -0.53070   1.37452   0.49867
O    -0.18658   2.49513   0.10184
O    -1.45783   1.22270   1.45936
C    -2.02535   2.42219   1.99297
C    -0.32122  -1.17744   0.37626
O    -1.14418  -1.48662   1.23364
O     0.37009  -2.13565  -0.30085
C     0.08389  -3.49231   0.04279
H     3.70651   0.13879  -2.56237
H     2.43728   0.07691  -3.79039
H     2.57290   1.52254  -2.73242
H     1.72856  -1.32232  -1.72561
H     1.03406   1.47637  -1.12144
H    -2.53717   2.99916   1.20832
H    -1.25193   3.05223   2.45703
H    -2.74901   2.09950   2.75142
H    -0.97256  -3.73296  -0.14832
H     0.72879  -4.10844  -0.59582
H     0.30963  -3.68665   1.10193
