41
Generated by autodE on: 2022-06-17. E = -715.993142 Ha
C     3.86348   0.21087  -1.13366
O     2.79702   0.21521  -0.17511
C     1.56891   0.49008  -0.63806
O     1.36578   0.75948  -1.80635
C     0.48425   0.40295   0.44630
C     1.07046   0.86084   1.79086
N    -0.67009   1.24202   0.11095
C    -0.44595   2.56594  -0.43029
C    -1.71504   0.43214  -0.49657
C    -3.06084   1.14405  -0.55492
C    -1.66322  -0.86652   0.34281
C    -2.40849  -2.01250  -0.34982
C    -2.30791  -0.65956   1.72309
C    -0.10203  -1.09843   0.45214
C     0.41078  -1.91592  -0.75213
C     0.31041  -1.88477   1.70130
H     4.77347  -0.03536  -0.57412
H     3.67910  -0.54554  -1.91054
H     3.96327   1.19916  -1.60510
H     0.29761   0.81668   2.56783
H     1.41582   1.90322   1.71236
H     1.92459   0.25018   2.10557
H     0.44758   3.01369   0.02932
H    -1.29340   3.22912  -0.19443
H    -0.29916   2.58478  -1.52809
H    -1.45003   0.16227  -1.54359
H    -3.03912   1.97012  -1.28181
H    -3.84611   0.44454  -0.87989
H    -3.34809   1.55943   0.42267
H    -2.22625  -2.97138   0.16068
H    -2.12367  -2.12651  -1.40496
H    -3.49382  -1.82808  -0.31854
H    -3.37165  -0.40163   1.61357
H    -1.82336   0.14200   2.29607
H    -2.26189  -1.58252   2.31905
H     1.50853  -1.98442  -0.73502
H     0.11281  -1.49472  -1.72002
H     0.02919  -2.94431  -0.69568
H     1.39802  -2.05515   1.70491
H    -0.17728  -2.87213   1.69196
H     0.04493  -1.39042   2.64214
