23
Generated by autodE on: 2022-07-27. E = -479.959884 Ha
C    -3.11094   0.72942  -1.33678
C    -1.74998   0.28833  -0.92119
N    -1.18058   0.57367   0.23307
C    -1.93911   1.38446   1.20659
C     0.10791   0.18476   0.65656
C     0.52681   0.52361   2.06198
C     0.97096  -0.49123  -0.23711
O     0.74918  -0.83309  -1.41721
O     2.20682  -0.78059   0.31447
C     3.12452  -1.46325  -0.52789
H    -3.20742   1.82872  -1.38211
H    -3.31810   0.33483  -2.34064
H    -3.90306   0.36219  -0.66077
H    -1.14479  -0.31543  -1.59157
H    -1.35233   2.26720   1.48416
H    -2.88708   1.70852   0.77593
H    -2.13784   0.79021   2.10642
H     1.51509   0.09437   2.25297
H     0.60412   1.60932   2.25173
H    -0.15605   0.11536   2.82714
H     3.37257  -0.87208  -1.42415
H     2.73064  -2.43952  -0.85344
H     4.03293  -1.61722   0.06972
