23
Generated by autodE on: 2022-06-17. E = -479.962975 Ha
C    -3.71567   0.26425  -0.41733
C    -2.31992  -0.09804  -0.78824
N    -1.26586   0.05484  -0.00891
C    -1.48324   0.62508   1.33792
C     0.01541  -0.36295  -0.38655
C     0.10633  -1.18547  -1.63215
C     1.16555   0.11532   0.29711
O     1.24009   0.92132   1.23988
O     2.33222  -0.42507  -0.21264
C     3.54042   0.00528   0.39942
H    -3.81507   1.32242  -0.12030
H    -4.10134  -0.34381   0.42129
H    -4.37019   0.09118  -1.28194
H    -2.13541  -0.50781  -1.77838
H    -1.27192   1.70108   1.32874
H    -2.52058   0.45494   1.63698
H    -0.81368   0.13955   2.04975
H    -0.60372  -2.03361  -1.60581
H     1.11647  -1.58982  -1.74982
H    -0.13231  -0.61141  -2.55020
H     3.67402   1.09545   0.31295
H     4.35296  -0.50592  -0.13384
H     3.57481  -0.26633   1.46669
