28
Generated by autodE on: 2022-06-15. E = -765.694885 Ha
C     0.27470   3.98032   0.52663
O     0.50747   2.57002   0.42124
C    -0.55316   1.81416   0.10089
O    -1.67129   2.26989  -0.08062
C    -0.22521   0.38401  -0.01092
O     1.04912   0.13706   0.13701
C     1.77761  -0.95067   0.18566
C     3.18379  -0.77201   0.43757
C     3.70782   0.63870   0.57517
O     3.92058  -1.76398   0.53231
C    -1.22772  -0.64365  -0.27322
C    -0.95912  -1.72582  -1.13921
C    -1.93698  -2.68619  -1.39424
C    -3.19307  -2.59354  -0.78631
C    -3.47107  -1.52448   0.07263
C    -2.50367  -0.55458   0.32567
H     1.24262   4.42645   0.78251
H    -0.08951   4.38529  -0.42886
H    -0.46156   4.19207   1.31571
H     1.32114  -1.93333   0.06772
H     3.51922   1.21427  -0.34491
H     3.19384   1.16691   1.39351
H     4.78656   0.60384   0.77482
H     0.00426  -1.80299  -1.64415
H    -1.71643  -3.51077  -2.07559
H    -3.95412  -3.35228  -0.98182
H    -4.44917  -1.44749   0.55263
H    -2.72603   0.27341   0.99774
