23
Generated by autodE on: 2022-06-24. E = -351.521383 Ha
C     3.50314  -0.95419  -1.05642
C     2.52890  -0.48140  -0.24820
C     2.83882   0.03434   1.13384
C     1.14251  -0.46255  -0.71052
C     0.07762  -0.01354   0.00028
C    -1.27918  -0.01725  -0.50748
C    -2.39368   0.41465   0.13517
C    -2.40510   0.98736   1.52409
C    -3.73966   0.34523  -0.52918
H     4.54850  -0.97973  -0.73634
H     3.27448  -1.32770  -2.05938
H     3.91321  -0.03759   1.35424
H     2.53286   1.08818   1.24257
H     2.28856  -0.53330   1.90259
H     0.97012  -0.84912  -1.72225
H     0.24155   0.37383   1.00953
H    -1.40350  -0.41468  -1.52211
H    -3.06783   0.39242   2.17717
H    -2.82506   2.00873   1.51215
H    -1.41344   1.03135   1.99246
H    -4.44033  -0.26508   0.06868
H    -3.68266  -0.08159  -1.54128
H    -4.19400   1.35002  -0.59879
