28
Generated by autodE on: 2022-06-24. E = -819.896520 Ha
C    -2.69754  -3.11846  -0.46173
O    -1.87122  -1.96116  -0.31956
C    -2.49020  -0.76028  -0.43902
O    -3.69030  -0.66417  -0.65780
C    -1.56009   0.33957  -0.28091
N    -0.26213   0.05186  -0.04915
C     0.85735  -0.19255   0.15093
C     2.21921  -0.48808   0.39783
C     2.88484  -1.43793  -0.40704
C     4.22116  -1.72800  -0.14800
C     4.89769  -1.06707   0.88434
C     4.23833  -0.11736   1.67397
C     2.89601   0.17167   1.44637
C    -1.95071   1.73292  -0.35813
O    -3.08290   2.15461  -0.55083
O    -0.89089   2.56143  -0.18415
C    -1.16550   3.96284  -0.23802
H    -3.48486  -3.13702   0.30683
H    -2.03336  -3.98231  -0.33663
H    -3.16627  -3.14772  -1.45687
H     2.34616  -1.93437  -1.21540
H     4.74187  -2.46723  -0.75968
H     5.94886  -1.29408   1.07509
H     4.77229   0.39392   2.47721
H     2.36436   0.90020   2.06008
H    -0.20425   4.46658  -0.07906
H    -1.87615   4.25529   0.54956
H    -1.57886   4.24559  -1.21785
