54
Generated by autodE on: 2022-12-31. E = -1650.255912 Ha
C    -2.69090  -6.30782   4.82151
N    -3.06638  -5.02067   4.26426
C    -3.41319  -3.99777   5.05417
O    -3.38334  -4.07655   6.28838
C    -3.72332  -2.65094   4.37569
C    -2.33411  -1.90384   4.32419
O    -2.09988  -1.08973   3.43109
N    -1.44417  -2.21889   5.27634
C    -0.15518  -1.56207   5.36836
C    -4.21378  -2.71688   2.88911
C    -5.32633  -3.67698   2.44465
C    -6.64720  -3.68193   3.21352
C    -6.54087  -4.39353   4.57265
C    -6.73506  -3.47695   5.77993
O    -8.05901  -2.97287   5.88124
C    -9.17509  -3.73137   5.43340
C    -6.44998  -4.27043   7.12305
F    -5.75602  -5.39995   6.93055
F    -5.77108  -3.52713   8.01366
F    -7.60084  -4.62560   7.71410
C    -5.91362  -2.19041   5.71732
C    -4.72108  -1.83593   5.20849
C    -4.52100  -0.31648   5.43778
C    -3.28623   0.13319   6.22203
C    -4.62041   0.42844   4.15491
N    -4.74167   1.05138   3.18488
O    -5.64577   0.07753   6.23720
C    -6.63836  -0.91839   6.20480
C    -7.70285  -0.51520   5.24140
N    -8.45532  -0.11701   4.45490
C    -7.22403  -1.00928   7.56112
N    -7.65416  -1.02827   8.63561
H    -2.54187  -7.01773   3.99944
H    -1.75907  -6.23175   5.40400
H    -3.48124  -6.68727   5.48674
H    -3.09478  -4.91273   3.25718
H    -1.75684  -2.79286   6.05601
H    -0.24229  -0.55628   5.81374
H     0.51006  -2.16786   5.99643
H     0.28675  -1.45844   4.36828
H    -4.50802  -1.69444   2.62065
H    -3.32997  -2.93020   2.27001
H    -5.53249  -3.40458   1.39705
H    -4.95194  -4.71232   2.40575
H    -7.39138  -4.21086   2.59992
H    -7.03066  -2.65531   3.32781
H    -5.57408  -4.89628   4.66422
H    -7.27728  -5.20433   4.65525
H    -9.19887  -4.73754   5.87618
H    -9.20089  -3.80696   4.33552
H   -10.05983  -3.17455   5.77024
H    -2.39939   0.21803   5.58842
H    -3.50935   1.13110   6.62437
H    -3.10629  -0.56305   7.05070
