13
Generated by autodE on: 2022-12-31. E = -469.987397 Ha
C    -2.84243  -0.10029   0.66796
C    -1.43119   0.27411   0.41824
C    -0.99288   1.61243   0.62759
N    -0.73804   2.72983   0.83367
O    -0.63032  -0.64380   0.00786
C     0.67270  -0.67708  -0.32399
C     1.14411  -1.94138  -0.72488
N     1.55938  -2.97992  -1.06040
C     1.51207   0.44898  -0.28345
N     2.25132   1.35357  -0.26763
H    -3.50850   0.50253   0.02739
H    -3.11065   0.11660   1.71567
H    -2.98543  -1.16755   0.45646
