13
Generated by autodE on: 2023-01-01. E = -469.987382 Ha
C     2.61164   0.60001   1.16081
C     1.46429   0.27215   0.28369
C     1.65356   0.08950  -1.11559
N     1.91636  -0.05309  -2.24101
O     0.30615   0.15842   0.83052
C    -0.93296  -0.09548   0.37234
C    -1.23545  -0.26073  -0.99022
N    -1.53771  -0.39842  -2.11033
C    -1.92261  -0.17401   1.37006
N    -2.76121  -0.24745   2.17934
H     3.39729  -0.16719   1.06001
H     3.05315   1.56384   0.85409
H     2.27460   0.66065   2.20337
