41
Generated by autodE on: 2022-12-31. E = -1180.158096 Ha
C     1.12560  -2.46932   3.50641
N     0.85415  -1.85959   2.21750
C     1.83191  -1.59897   1.34586
O     3.01937  -1.86802   1.57434
C     1.43962  -0.93607   0.00287
C     1.79596  -1.84309  -1.20325
O     1.04329  -1.90190  -2.17941
N     2.97046  -2.47961  -1.13611
C     3.44749  -3.31440  -2.22091
C     0.03771  -0.54044  -0.04404
C    -0.95562   0.14019   0.08422
C    -1.73610   1.36460   0.30385
O    -2.73437   1.25104   1.29688
C    -3.64900   0.16288   1.21112
C    -2.39687   1.81447  -1.02554
F    -3.15015   0.83797  -1.56404
F    -3.19468   2.87140  -0.82421
F    -1.48893   2.16099  -1.95259
C    -0.74325   2.44493   0.82047
C     0.66401   2.51253   0.19571
C     1.76755   1.57016   0.75388
C     2.24445   0.40889  -0.14064
H     1.64678  -3.43040   3.38132
H     1.75642  -1.81728   4.13103
H     0.17395  -2.64339   4.02230
H    -0.09459  -1.57641   1.99125
H     3.49136  -2.40724  -0.26238
H     4.44080  -3.70013  -1.96139
H     3.52269  -2.74014  -3.15741
H     2.77198  -4.16640  -2.40056
H    -3.12777  -0.78081   0.97516
H    -4.11717   0.07211   2.20086
H    -4.43474   0.33784   0.45918
H    -1.24712   3.41817   0.71719
H    -0.65880   2.24712   1.89928
H     0.60162   2.40439  -0.89681
H     1.00439   3.54521   0.36619
H     1.47376   1.18549   1.74493
H     2.65975   2.18860   0.93563
H     2.19552   0.70927  -1.19847
H     3.29253   0.16748   0.08439
