54
Generated by autodE on: 2022-12-31. E = -1650.145044 Ha. Imaginary frequency = -169.1 cm-1
C    -2.04516  -6.36249   4.17398
N    -2.60306  -5.05435   3.88181
C    -3.15889  -4.30243   4.84146
O    -3.21015  -4.66126   6.02037
C    -3.64234  -2.88929   4.39940
C    -2.36934  -1.98609   4.41756
O    -2.11322  -1.22229   3.48776
N    -1.60604  -2.12811   5.51410
C    -0.37204  -1.40291   5.74376
C    -4.29669  -2.88275   2.99075
C    -5.45318  -3.86293   2.72866
C    -6.81103  -3.67254   3.43973
C    -6.96631  -4.36565   4.81100
C    -6.99057  -3.40644   6.02586
O    -8.14108  -2.59701   6.14332
C    -9.37636  -3.01840   5.58117
C    -6.90129  -4.21897   7.34312
F    -5.84976  -5.05056   7.36869
F    -6.79648  -3.41204   8.40859
F    -8.00730  -4.96566   7.51287
C    -5.77855  -2.56033   5.87443
C    -4.67265  -2.43017   5.35319
C    -4.45151   0.28906   5.70960
C    -3.10581   0.73495   6.15729
C    -4.81588   0.42301   4.33744
N    -5.00815   0.57606   3.19928
O    -5.34400   0.14894   6.64533
C    -6.60598  -0.29394   6.57478
C    -7.40771  -0.11293   5.41674
N    -8.08071   0.06416   4.48240
C    -7.22947  -0.43278   7.84134
N    -7.74237  -0.53181   8.88210
H    -2.81641  -7.04527   4.56384
H    -1.63132  -6.78395   3.25016
H    -1.24335  -6.28830   4.92484
H    -2.60692  -4.72549   2.92259
H    -1.92673  -2.76933   6.23558
H     0.44232  -2.10403   5.98042
H    -0.47453  -0.69301   6.57909
H    -0.10950  -0.84722   4.83594
H    -4.63222  -1.85738   2.78904
H    -3.50297  -3.07658   2.25263
H    -5.64306  -3.78519   1.64628
H    -5.11355  -4.89847   2.89223
H    -7.57691  -4.09998   2.77534
H    -7.05316  -2.60015   3.51627
H    -6.12642  -5.05515   4.97488
H    -7.87654  -4.98053   4.84048
H    -9.70723  -3.98941   5.97968
H    -9.33406  -3.06389   4.48183
H   -10.10666  -2.25066   5.87095
H    -2.37636   0.61076   5.34981
H    -3.15109   1.80961   6.41053
H    -2.79693   0.17644   7.05074
