64
Generated by autodE on: 2022-06-07. E = -1509.288597 Ha
C     7.40362   2.70304   0.69015
N     7.71822   1.30068   0.46661
C     8.66891   0.79752  -0.35420
O     8.64249  -0.35590  -0.78714
N     9.69415   1.69663  -0.69011
N    10.36081   2.46048   0.33285
C    11.78702   2.03519   0.26402
C    12.64709   3.21184   0.71318
C    11.93904   0.77529   1.17032
C    12.33012   0.97541   2.60602
O    11.65671  -0.32742   0.73264
C    11.88342   1.65490  -1.22046
C    10.63689   1.44252  -1.70818
C    10.14435   1.05640  -3.10925
C     8.62206   1.33344  -3.27652
C     8.09189   2.58240  -2.90720
C     6.73761   2.87285  -3.07230
C     5.87821   1.92744  -3.64203
C     6.39832   0.69851  -4.04976
C     7.75488   0.40504  -3.86778
C    10.74582   1.99990  -4.18523
C    10.80383   1.60024  -5.53002
C    11.28416   2.46330  -6.51740
C    11.70369   3.75528  -6.18642
C    11.61744   4.17669  -4.85796
C    11.13578   3.31148  -3.87239
C    10.45197  -0.46287  -3.33833
C    11.69818  -1.08643  -2.70377
C    13.07121  -0.68179  -3.23874
C    13.42893   0.80057  -3.22982
C    13.26896   1.55544  -1.86542
C    13.80703   2.91920  -2.09848
N    14.21595   3.97701  -2.33790
C    14.17682   0.88340  -0.90416
N    14.88223   0.32368  -0.17495
H     7.90738   3.32628  -0.05712
H     7.70505   3.04456   1.69365
H     6.31926   2.85156   0.58699
H     7.02977   0.61366   0.75964
H     9.94642   2.22764   1.23766
H    13.71613   2.95988   0.74577
H    12.34825   3.52970   1.72168
H    12.49604   4.06042   0.03394
H    13.38586   1.28795   2.65286
H    12.20105   0.03600   3.15864
H    11.73633   1.77658   3.07223
H     8.74160   3.34372  -2.47774
H     6.35438   3.84607  -2.75635
H     4.81715   2.15189  -3.77413
H     5.74683  -0.04838  -4.51005
H     8.12086  -0.56692  -4.19353
H    10.47425   0.60403  -5.82411
H    11.33018   2.11984  -7.55366
H    12.08712   4.42742  -6.95749
H    11.93495   5.18356  -4.57709
H    11.08345   3.66548  -2.84334
H     9.60630  -1.00625  -2.90710
H    10.44208  -0.67692  -4.41449
H    11.60478  -2.17405  -2.86049
H    11.66512  -0.94576  -1.61548
H    13.16778  -1.00764  -4.28812
H    13.83634  -1.23993  -2.67379
H    14.48557   0.91392  -3.51370
H    12.85096   1.35259  -3.97306
