22
Generated by autodE on: 2022-06-07. E = -550.226043 Ha
C     4.35020   0.27481   0.00701
N     3.04969   0.44393   0.61798
C     1.91243   0.11053  -0.02278
O     1.89365  -0.36009  -1.17432
N     0.76639   0.34845   0.74320
N    -0.29555   0.01161   0.06626
C    -1.54647   0.08937   0.46544
C    -1.85173   0.60522   1.82551
C    -2.52177  -0.37297  -0.54384
C    -3.98071  -0.33221  -0.19132
O    -2.12870  -0.77818  -1.64015
H     5.11966   0.61641   0.70995
H     4.54584  -0.78109  -0.24182
H     4.43865   0.86081  -0.92231
H     2.97304   0.81937   1.55684
H    -0.14139  -0.36058  -0.89410
H    -2.92809   0.61461   2.02746
H    -1.45823   1.62925   1.94424
H    -1.35173  -0.01378   2.59017
H    -4.28808   0.69750   0.05310
H    -4.57214  -0.70488  -1.03695
H    -4.17764  -0.94754   0.70144
