42
Generated by autodE on: 2022-06-07. E = -959.007963 Ha
N     3.82691   2.76639  -2.08219
C     3.40877   2.15632  -1.19040
C     2.84414   1.41334  -0.04501
C     3.91923   0.59744   0.56290
N     4.73982  -0.03873   1.07719
C     1.72248   0.54663  -0.43065
C     0.65375   0.00520  -0.25521
C    -0.65115  -0.35084   0.30681
C    -1.74918   0.37816  -0.49017
C    -2.78503   1.08971   0.12699
C    -3.78698   1.69426  -0.64188
C    -3.76627   1.59564  -2.03437
C    -2.73448   0.88494  -2.65826
C    -1.73689   0.28322  -1.89077
C    -0.93229  -1.85947   0.29379
C    -2.18123  -2.32884   0.72914
C    -2.45357  -3.69754   0.76230
C    -1.48259  -4.61930   0.35430
C    -0.23895  -4.15883  -0.08404
C     0.03437  -2.78677  -0.11247
C    -0.51943   0.12978   1.79398
C    -0.01735   1.57148   2.01936
C     1.51048   1.80093   2.18591
C     2.28878   2.43692   1.02159
H    -2.82626   1.17949   1.21233
H    -4.58682   2.24668  -0.14295
H    -4.54817   2.06985  -2.63212
H    -2.70671   0.79914  -3.74718
H    -0.93628  -0.27393  -2.38367
H    -2.94990  -1.61761   1.03842
H    -3.43107  -4.04611   1.10428
H    -1.69719  -5.69033   0.37576
H     0.52633  -4.86821  -0.40827
H     1.01011  -2.43641  -0.45520
H    -1.50198  -0.00245   2.26834
H     0.15853  -0.57646   2.29718
H    -0.40813   2.23672   1.23261
H    -0.49189   1.91418   2.95144
H     2.00531   0.86689   2.50202
H     1.64445   2.49739   3.02726
H     1.65070   3.14126   0.46804
H     3.15733   2.99672   1.39834
