64
Generated by autodE on: 2022-06-07. E = -1509.192556 Ha. Imaginary frequency = -197.5 cm-1
C     8.05404   3.57265   1.26198
N     7.85690   2.27055   0.65909
C     8.67552   1.64596  -0.23355
O     8.47948   0.47576  -0.56585
N     9.57582   2.48098  -0.91917
N    10.48479   3.20544  -0.30956
C    11.44842   2.86246   0.54969
C    12.53592   3.87536   0.74248
C    11.35093   1.70072   1.46512
C    12.55893   1.41109   2.31916
O    10.32330   1.04123   1.59378
C    11.82543   0.96869  -1.43293
C    10.84649   1.24052  -2.14574
C    10.22706   1.23699  -3.51096
C     8.69582   1.06073  -3.50171
C     8.08891  -0.18655  -3.69849
C     6.69778  -0.32772  -3.64364
C     5.88483   0.77979  -3.39787
C     6.47747   2.03544  -3.22673
C     7.86423   2.17178  -3.28752
C    10.58665   2.53845  -4.25673
C    10.03574   2.75405  -5.53158
C    10.36470   3.88867  -6.27394
C    11.25030   4.83944  -5.75327
C    11.80649   4.63331  -4.48989
C    11.48127   3.48952  -3.75034
C    10.94484   0.06433  -4.27684
C    11.15526  -1.24059  -3.47957
C    12.62435  -1.58535  -3.18122
C    13.53172  -0.48720  -2.62594
C    13.07340   0.17987  -1.27935
C    14.18102   1.06046  -0.84180
N    15.05720   1.76520  -0.56212
C    12.86072  -0.86224  -0.24949
N    12.66504  -1.69791   0.52887
H     8.88937   3.59157   1.98337
H     7.13514   3.85164   1.79497
H     8.24156   4.33538   0.49342
H     7.26462   1.61766   1.16413
H    10.70525   4.05897  -0.83280
H    13.52532   3.41303   0.62839
H    12.49187   4.31740   1.75104
H    12.45028   4.68456   0.00303
H    12.65056   2.19960   3.08530
H    13.49505   1.41168   1.74555
H    12.41899   0.44290   2.81508
H     8.68971  -1.07523  -3.88239
H     6.25208  -1.31428  -3.79292
H     4.79878   0.66947  -3.34973
H     5.85578   2.91606  -3.04674
H     8.30944   3.15553  -3.15206
H     9.33387   2.02732  -5.94503
H     9.92370   4.03348  -7.26327
H    11.50359   5.73203  -6.33014
H    12.50178   5.36417  -4.06968
H    11.94253   3.34112  -2.77418
H    11.91793   0.45168  -4.60909
H    10.37045  -0.12309  -5.19464
H    10.73550  -2.08690  -4.04563
H    10.58992  -1.20616  -2.53764
H    12.65155  -2.45440  -2.50340
H    13.10819  -1.91537  -4.11585
H    14.53515  -0.90691  -2.45656
H    13.64055   0.34356  -3.33733
