59
Generated by autodE on: 2022-07-04. E = -9134.634067 Ha
C    -8.77599   6.60253  -1.00091
N    -9.31578   6.31363   0.31469
C   -10.53258   5.77445   0.46357
O   -11.26182   5.53024  -0.50499
C   -10.90120   5.37456   1.92902
C   -12.39758   5.01887   2.20006
O   -12.79451   4.98813   3.36822
N   -13.13174   4.62774   1.15717
C   -14.52406   4.26001   1.31354
N   -10.12702   4.15775   2.21067
C    -9.27206   4.36467   3.37730
C    -9.51037   3.30688   4.37484
N    -9.76637   2.43541   5.09469
C    -7.82389   4.30368   2.80720
O    -7.34410   5.22231   2.17661
O    -7.27950   3.11061   2.94500
C    -5.98087   2.91010   2.35603
C    -9.59608   5.78452   3.88199
C   -10.43620   6.38376   3.00160
C   -10.93174   7.83103   2.93905
Br  -11.88501   8.37572   4.60118
Br  -12.37100   8.02215   1.53439
C    -9.88251   8.87358   2.50367
C    -8.78643   9.36333   3.45213
C    -7.91414   8.32318   4.15111
C    -8.63013   7.69958   5.35550
C    -9.04523   6.23312   5.23132
Br   -7.23446   5.22624   5.54313
C    -9.94165   5.81621   6.39283
C   -11.22374   5.29355   6.17753
C   -12.05471   4.98401   7.25962
C   -11.62257   5.19607   8.56858
C   -10.34490   5.72386   8.79224
C    -9.51402   6.02907   7.71622
H    -8.58935   5.68056  -1.57688
H    -9.47656   7.22818  -1.57261
H    -7.82973   7.14456  -0.88094
H    -8.66241   6.28286   1.09709
H   -12.72648   4.81787   0.23504
H   -14.63886   3.49720   2.09757
H   -14.89545   3.85421   0.36436
H   -15.14291   5.12955   1.59386
H   -10.70356   3.32398   2.28724
H    -5.25156   3.58880   2.82071
H    -6.02401   3.09373   1.27365
H    -5.71813   1.86675   2.56093
H   -10.43777   9.76178   2.17522
H    -9.41927   8.44151   1.60443
H    -9.23353  10.02361   4.21361
H    -8.15086  10.01171   2.82788
H    -7.58010   7.55043   3.44122
H    -7.00173   8.82500   4.50498
H    -9.54320   8.26407   5.57866
H    -8.01997   7.78956   6.26165
H   -11.60400   5.14400   5.16797
H   -13.05057   4.57788   7.06698
H   -12.27276   4.95295   9.41226
H    -9.99099   5.89439   9.81159
H    -8.51557   6.42175   7.91281
