29
Generated by autodE on: 2022-07-27. E = -870.497138 Ha
C     2.73782   1.31485  -1.97606
N     1.64809   0.68588  -1.25571
C     0.39022   1.08103  -1.45110
O     0.09923   2.01125  -2.22796
C    -0.71410   0.44443  -0.66630
N    -0.68742  -0.11585   0.53011
C     0.17562  -0.59843   1.47178
C    -0.35875  -0.65531   2.78532
N    -0.81125  -0.68066   3.86044
C     1.43003  -1.28902   1.21937
O     1.86461  -1.60744   0.11445
O     2.04312  -1.62187   2.35837
C     3.23526  -2.41383   2.24842
C    -2.16877   0.61840  -1.06689
O    -3.03273   0.16367  -0.29417
N    -2.44876   1.21891  -2.22049
C    -3.81473   1.41684  -2.66141
H     2.74886   2.39975  -1.79519
H     2.65102   1.15439  -3.06357
H     3.68329   0.88318  -1.62574
H     1.81705  -0.21193  -0.78499
H    -1.69797  -0.18752   0.81493
H     4.00104  -1.87503   1.67244
H     3.01540  -3.37463   1.76132
H     3.57823  -2.57859   3.27606
H    -1.66432   1.68852  -2.67868
H    -4.38156   0.47746  -2.58851
H    -4.33228   2.17556  -2.05096
H    -3.80524   1.75033  -3.70603
