26
Generated by autodE on: 2022-05-28. E = -3330.407590 Ha
C    -5.53886   1.05562  -0.52808
N    -4.17059   1.52140  -0.57386
C    -3.12464   0.83082  -0.07512
O    -3.22585  -0.26899   0.49472
C    -1.79665   1.45274  -0.24362
N    -1.60050   2.55278  -0.89874
N    -0.30786   2.91083  -0.82202
C     0.53155   1.86458  -0.24313
C     1.30060   0.99574  -1.29484
O     0.26701   0.14883  -1.80237
C    -0.11854  -0.43702  -0.56077
C     1.22758  -0.88920  -0.01696
Br    1.45946  -2.26898   1.21008
C     2.13568   0.00009  -0.47859
C     3.50336   0.12121  -0.15428
N     4.63502   0.23467   0.09728
C    -0.52348   0.83627   0.27130
H    -5.95169   0.93051  -1.54209
H    -6.18191   1.76255   0.02021
H    -5.56574   0.08657  -0.01596
H    -3.96587   2.41019  -1.02007
H     0.03639   3.51372  -1.56470
H     1.21287   2.27180   0.51289
H     1.81563   1.54369  -2.09013
H    -0.90050  -1.19266  -0.67813
H    -0.52582   0.64566   1.35130
