12
Generated by autodE on: 2022-05-28. E = -356.895619 Ha
C    -2.12089  -0.18365  -0.96098
N    -1.63952   0.59584   0.16440
C    -0.35238   0.71104   0.54013
O     0.03352   1.31838   1.54277
C     0.63100   0.10495  -0.36899
N     1.39351  -0.80938  -0.43879
N     2.29775  -1.64728  -0.51789
H    -3.07657   0.23244  -1.30581
H    -1.40388  -0.12979  -1.79309
H    -2.27319  -1.24397  -0.70051
H    -2.31634   0.98527   0.81659
H     1.97906  -2.44750  -1.08451
