38
Generated by autodE on: 2022-05-30. E = -1237.013047 Ha
C    -1.07842   4.26571   1.57197
N    -0.41587   3.12177   0.98000
C    -1.10755   2.11969   0.41121
O    -2.33847   2.01190   0.42655
N    -0.34474   1.16880  -0.27151
N     1.05348   1.26336  -0.25834
N     1.46884  -0.00718   0.23033
C     2.80162  -0.27501   0.44447
O     3.23806  -1.40475   0.56930
O     3.52396   0.84451   0.50868
C     4.92377   0.67829   0.78280
C     0.53542  -1.03279  -0.17948
F     0.43732  -1.98823   0.78960
C     0.79545  -1.65766  -1.58360
C    -0.26040  -2.72821  -1.79416
C    -1.39829  -2.06275  -2.02580
C    -1.03889  -0.58617  -1.94314
O     0.32651  -0.58291  -2.41039
C    -0.79312  -0.21383  -0.44395
C    -1.89109  -0.55057   0.56486
O    -1.71334  -0.51368   1.76150
O    -3.02179  -0.91561  -0.02275
C    -4.12761  -1.22049   0.84234
H    -1.96326   3.94146   2.13648
H    -1.40308   4.99907   0.81395
H    -0.38467   4.76289   2.26194
H     0.59279   3.11504   0.86158
H     1.35773   1.31378  -1.23701
H     5.07006   0.19597   1.75982
H     5.34652   1.68934   0.79274
H     5.40061   0.07487  -0.00259
H     1.84382  -1.90254  -1.77927
H    -0.09727  -3.80044  -1.69491
H    -2.40283  -2.45439  -2.17117
H    -1.65613   0.13686  -2.48421
H    -3.86943  -2.05092   1.51420
H    -4.39210  -0.33221   1.43360
H    -4.95604  -1.50352   0.18373
