19
Generated by autodE on: 2022-05-30. E = -602.174971 Ha
C    -4.64288   0.17411   0.13169
N    -3.38869  -0.15201  -0.51384
C    -2.19090   0.07739   0.03450
O    -1.97854   0.59621   1.13359
N    -1.13721  -0.36021  -0.82985
N    -0.01551  -0.13377  -0.28704
N     1.11777  -0.41812  -0.81889
C     2.15923  -0.03864   0.03713
O     2.03168   0.49011   1.13016
O     3.32248  -0.34344  -0.52633
C     4.50085  -0.01838   0.22555
H    -5.26859   0.78800  -0.53321
H    -5.20264  -0.73840   0.39164
H    -4.43779   0.73697   1.04956
H    -3.40130  -0.59843  -1.42677
H    -0.02929   0.31959   0.66628
H     5.34846  -0.33260  -0.39395
H     4.54820   1.06358   0.41580
H     4.50652  -0.56069   1.18211
