38
Generated by autodE on: 2022-05-30. E = -1236.938079 Ha. Imaginary frequency = -325.8 cm-1
C    -2.52554   2.95357   0.61794
N    -1.68844   2.98865  -0.56834
C    -0.50489   2.39791  -0.76682
O     0.16928   2.51188  -1.79475
N    -0.05851   1.59736   0.34012
N     1.13925   1.19317   0.12451
N     1.54872   0.17378   0.84383
C     2.87846  -0.21110   0.64753
O     3.29828  -1.28241   1.03408
O     3.60801   0.71881   0.02887
C     4.99083   0.40182  -0.20479
C     0.25651  -1.26074   0.45611
F     0.36187  -1.93610   1.59928
C     0.81103  -1.89117  -0.84719
C    -0.18382  -2.97374  -1.29848
C    -1.26647  -2.30394  -1.70954
C    -0.93387  -0.81968  -1.47727
O     0.49085  -0.81544  -1.73575
C    -0.92265  -0.61363   0.04625
C    -2.09145  -0.42972   0.87991
O    -2.09748  -0.37805   2.10140
O    -3.21318  -0.31642   0.13697
C    -4.44485  -0.17052   0.85163
H    -2.07628   2.30692   1.37627
H    -2.63481   3.96576   1.03736
H    -3.52549   2.57424   0.36549
H    -2.01430   3.54263  -1.35712
H     1.56181   1.40049  -0.80340
H     5.42011   1.28355  -0.69337
H     5.07327  -0.47744  -0.85910
H     5.50130   0.20555   0.74840
H     1.87364  -2.14893  -0.85441
H    -0.00521  -4.04638  -1.23932
H    -2.22318  -2.68189  -2.06773
H    -1.45917  -0.07267  -2.07982
H    -4.64311  -1.06295   1.46373
H    -4.41749   0.71503   1.50237
H    -5.22528  -0.05516   0.09030
