23
Generated by autodE on: 2022-06-21. E = -351.521383 Ha
C     3.68540   0.75723   0.37388
C     2.55425   0.01855   0.40254
C     2.57391  -1.42869   0.82342
C     1.27893   0.62215   0.02120
C     0.07673  -0.00664   0.01164
C    -1.15973   0.64122  -0.37597
C    -2.39717   0.08506  -0.40771
C    -2.69648  -1.33847  -0.03205
C    -3.59153   0.88965  -0.83607
H     4.65284   0.33158   0.65452
H     3.66766   1.80776   0.06763
H     1.92289  -1.59737   1.69731
H     2.19547  -2.08150   0.01930
H     3.59115  -1.75422   1.08282
H     1.31950   1.67602  -0.27955
H     0.02669  -1.05718   0.31071
H    -1.07063   1.69325  -0.67285
H    -3.42748  -1.36929   0.79524
H    -3.17086  -1.86554  -0.87863
H    -1.81028  -1.90953   0.27341
H    -3.32400   1.92340  -1.09984
H    -4.35174   0.91879  -0.03478
H    -4.08561   0.42323  -1.70741
