21
Generated by autodE on: 2022-07-27. E = -699.251322 Ha
C     1.88872   3.23045   1.89763
O     1.25475   2.47771   0.84831
C     0.85041   1.25637   1.14948
O     0.98392   0.74062   2.25054
C     0.19542   0.52705   0.03287
N    -0.18750  -0.68743   0.43926
C    -0.70944  -1.79025  -0.12321
C    -1.03850  -2.86226   0.75153
N    -1.32483  -3.74812   1.45175
C    -0.82832  -2.05653  -1.51145
N    -0.90554  -2.45458  -2.60405
C    -0.19314   1.05821  -1.28745
C     0.41169   2.32671  -1.81350
O    -1.04735   0.44734  -1.92625
H     1.19260   3.37024   2.73638
H     2.15216   4.19585   1.45212
H     2.79051   2.70834   2.24684
H     0.01459  -0.79077   1.45101
H     1.50634   2.31627  -1.71625
H     0.11620   2.43777  -2.86470
H     0.04313   3.18836  -1.23645
