40
Generated by autodE on: 2022-06-02. E = -1552.071919 Ha
C     4.59937   0.32480   1.48001
O     3.32674   0.73544   0.95069
C     2.79898  -0.02801   0.00513
O     3.33405  -1.01039  -0.46400
C     1.44128   0.46174  -0.46455
N     1.07466   1.77347   0.02382
C    -0.33402   1.92290  -0.28621
C    -0.94411   3.14825   0.41327
C    -0.44120   2.18646  -1.74126
N    -0.47540   2.47504  -2.86300
C    -0.97464   0.48280   0.10387
C    -1.25228   0.58891   1.65425
C    -2.61309   0.35586   2.23723
O    -0.32178   0.91843   2.35975
C    -2.27443   0.20011  -0.67793
F    -2.06377   0.07018  -1.99957
F    -2.90013  -0.91011  -0.27269
F    -3.13904   1.22270  -0.53813
C     0.22498  -0.53429  -0.21812
C    -0.07846  -1.47086  -1.45817
C     0.63289  -1.24656  -2.75506
O    -0.85180  -2.38872  -1.29531
C     0.50657  -1.55291   0.93046
F     1.27803  -1.05457   1.90925
F    -0.62993  -1.98766   1.49727
F     1.16113  -2.63128   0.46943
H     4.50740  -0.66726   1.94446
H     4.86851   1.07624   2.23028
H     5.35243   0.29211   0.68038
H     1.55275   0.53335  -1.55183
H     1.17191   1.80366   1.04078
H    -0.47444   4.05230   0.00369
H    -0.75035   3.11809   1.49097
H    -2.02450   3.20289   0.23648
H    -2.95538  -0.66826   2.03851
H    -3.34927   1.04170   1.79454
H    -2.54896   0.52788   3.31826
H     0.26540  -1.97899  -3.48392
H     0.47619  -0.22659  -3.13428
H     1.71519  -1.38362  -2.60030
