18
Generated by autodE on: 2022-06-02. E = -493.604662 Ha
C     3.72834  -1.25474   0.80413
O     2.31756  -1.23764   1.04036
C     1.58260  -0.44269   0.23642
O     2.07172   0.24260  -0.66094
C     0.17929  -0.49544   0.55364
N    -0.62779   0.26359  -0.19530
C    -1.95340   0.40946  -0.12946
C    -2.73880  -0.34016   0.89271
C    -2.56218   1.28531  -1.05170
N    -3.09663   2.00476  -1.80336
H     4.15181  -1.94600   1.54262
H     3.95073  -1.60967  -0.21346
H     4.16004  -0.25143   0.93788
H    -0.22346  -1.11043   1.35315
H    -0.12840   0.79961  -0.91747
H    -2.39852  -0.08195   1.91166
H    -2.59925  -1.42911   0.76862
H    -3.80774  -0.10948   0.80895
