40
Generated by autodE on: 2022-06-02. E = -1552.036648 Ha. Imaginary frequency = -147.2 cm-1
C     4.57688   0.41089   1.42983
O     3.34899   0.92297   0.89299
C     2.87533   0.32762  -0.20720
O     3.48232  -0.52620  -0.83113
C     1.53486   0.79795  -0.57885
N     0.96997   1.79633   0.13988
C    -0.14641   2.45238  -0.16844
C    -0.75452   3.42822   0.78482
C    -0.55161   2.46779  -1.53409
N    -0.86553   2.53839  -2.65270
C    -1.22221  -0.07891   0.21976
C    -1.46374   0.42032   1.59857
C    -2.86426   0.74259   2.05767
O    -0.52061   0.57636   2.36982
C    -2.37400  -0.00979  -0.75710
F    -1.98806  -0.17048  -2.03734
F    -3.29647  -0.97022  -0.51600
F    -3.03483   1.16316  -0.70675
C    -0.09232  -0.84237  -0.10158
C    -0.16797  -1.77091  -1.34510
C     0.66927  -1.51029  -2.55289
O    -0.90128  -2.73396  -1.24092
C     0.69091  -1.60874   0.98296
F     1.51532  -0.90285   1.76119
F    -0.14832  -2.27517   1.79399
F     1.47263  -2.54027   0.38518
H     4.45931  -0.65003   1.69452
H     4.78537   1.00591   2.32604
H     5.39198   0.52125   0.70074
H     1.28595   0.75904  -1.63497
H     1.30195   1.90141   1.10428
H    -0.37410   4.44391   0.58300
H    -0.51091   3.15435   1.82024
H    -1.84546   3.44589   0.65935
H    -3.60115   0.00444   1.71452
H    -3.16616   1.72626   1.66673
H    -2.85790   0.78881   3.15416
H     0.50854  -2.31349  -3.28314
H     0.39854  -0.54135  -2.99930
H     1.73030  -1.45629  -2.26588
