47
Generated by autodE on: 2022-06-05. E = -3779.798028 Ha
C     1.55303   2.67756  -2.76383
O     0.90627   2.27202  -1.54863
C     0.42740   1.02780  -1.50899
O     0.50046   0.25795  -2.44068
C    -0.08364   0.67720  -0.11850
C    -0.64191   1.90758   0.65432
C    -1.77936   2.52082  -0.20366
C    -2.94664   1.50780  -0.02288
C    -2.32356   0.40932   0.86844
C    -1.46933   1.29529   1.79793
C    -1.26663  -0.37347   0.04477
Br   -2.11240  -1.15638  -1.56390
C    -0.51435  -1.53421   0.77321
C    -1.37484  -2.61711   1.42560
C    -1.31799  -3.99737   0.85880
O    -2.05494  -2.29688   2.38017
N     0.36398  -0.83692   1.66389
C     1.10708  -0.10448   0.62542
C     2.24132   0.75161   1.10500
C     2.25458   1.20734   2.43125
C     3.27465   2.05082   2.87835
C     4.28868   2.45143   2.00402
C     4.27810   2.00240   0.67982
C     3.26138   1.15782   0.22973
C     1.45102  -1.28975  -0.31631
O     2.42015  -1.52214  -0.98836
O     0.39481  -2.13165  -0.22430
H     1.90476   3.70050  -2.58944
H     0.84097   2.65533  -3.60096
H     2.40053   2.01305  -2.98405
H     0.14400   2.61563   0.93716
H    -2.04083   3.51018   0.19785
H    -1.50316   2.66436  -1.25592
H    -3.33309   1.12475  -0.97411
H    -3.78910   1.95910   0.51957
H    -3.05243  -0.25334   1.34688
H    -0.89521   0.75178   2.54667
H    -2.09107   2.05724   2.29070
H    -0.28918  -4.38281   0.94759
H    -2.01801  -4.64903   1.39609
H    -1.55323  -3.97663  -0.21661
H     0.97614  -1.48359   2.16875
H     1.45926   0.90599   3.11333
H     3.27341   2.39790   3.91410
H     5.08555   3.11233   2.35297
H     5.06686   2.31053  -0.01023
H     3.26809   0.80984  -0.80254
