24
Generated by autodE on: 2022-06-05. E = -705.349439 Ha
C     4.53381   0.12900  -0.02253
C     3.31382  -0.74282  -0.02288
O     3.34181  -1.97374  -0.03411
C     2.02169  -0.07407  -0.00942
N     0.83848  -0.67734  -0.00907
C    -0.18545   0.22551   0.00330
C    -1.59650  -0.11134   0.00701
C    -2.57126   0.90998   0.01878
C    -3.92855   0.59036   0.02231
C    -4.34539  -0.74476   0.01429
C    -3.38642  -1.76417   0.00261
C    -2.02769  -1.45524  -0.00099
C     0.43548   1.51830   0.01142
O     0.03154   2.66822   0.02291
O     1.83111   1.25002   0.00286
H     4.53477   0.78143   0.86572
H     5.43311  -0.49938  -0.02734
H     4.53008   0.78725  -0.90657
H     0.75613  -1.69568  -0.01818
H    -2.25408   1.95208   0.02508
H    -4.66814   1.39451   0.03143
H    -5.40964  -0.99036   0.01709
H    -3.69885  -2.81093  -0.00368
H    -1.29923  -2.26872  -0.00992
