23
Generated by autodE on: 2022-06-05. E = -3074.434063 Ha
C     3.88244  -1.29816   0.41507
O     2.51884  -1.43166  -0.00010
C     1.78313  -0.30149  -0.02599
O     2.23562   0.78654   0.28080
C     0.41019  -0.57526  -0.46306
C    -0.68698   0.20476  -0.31696
Br   -0.83611   1.90299   0.47158
C    -1.90933  -0.59467  -0.71298
C    -2.08677  -1.66279   0.41826
C    -0.84718  -2.58218   0.22997
C    -0.10627  -1.92008  -0.97373
C    -1.29933  -1.46010  -1.83543
H     4.42977  -0.62484  -0.26120
H     3.93970  -0.90435   1.44065
H     4.31264  -2.30574   0.37364
H    -2.80573  -0.00572  -0.93753
H    -3.02640  -2.21018   0.25519
H    -2.13595  -1.19621   1.41224
H    -0.20422  -2.62991   1.11987
H    -1.14520  -3.60871  -0.02952
H     0.65187  -2.55013  -1.45132
H    -1.95790  -2.28605  -2.14302
H    -0.99699  -0.87237  -2.71426
