48
Generated by autodE on: 2022-06-22. E = -1132.156828 Ha
C     2.03763   3.91737   0.59352
O     1.18734   2.96084  -0.06321
C     0.64353   2.02045   0.69562
O     0.79613   1.93092   1.89653
C    -0.24094   1.09259  -0.10051
N    -0.68118  -0.10100   0.62952
C    -1.64263  -0.52409  -0.35776
C    -2.55226  -1.65167   0.02330
C    -3.92269  -1.61567  -0.26323
C    -4.73607  -2.70263   0.07060
C    -4.18755  -3.83018   0.68750
C    -2.81809  -3.86896   0.97066
C    -2.00226  -2.78584   0.63896
C    -0.77555  -0.68789  -1.61487
C     0.28234   0.46488  -1.45712
C     0.24197   1.43600  -2.64506
C     1.67734  -0.10543  -1.34710
C     2.46057  -0.20767  -0.25810
C     3.80739  -0.75436  -0.27750
C     4.65841  -0.82301   0.77418
C     6.02764  -1.42373   0.62043
C     4.33937  -0.32323   2.15637
O    -2.45122   0.72018  -0.61199
C    -1.59766   1.74259  -0.45716
O    -1.89182   2.90422  -0.58939
H     2.36814   4.60989  -0.18818
H     2.90062   3.40612   1.04305
H     1.47714   4.45370   1.37170
H    -1.13753   0.15029   1.51011
H    -4.35407  -0.73756  -0.74377
H    -5.80466  -2.66538  -0.15342
H    -4.82523  -4.67832   0.94750
H    -2.38202  -4.74695   1.45271
H    -0.93370  -2.81805   0.85824
H    -0.30233  -1.67710  -1.60795
H    -1.38458  -0.58833  -2.52149
H    -0.77009   1.82419  -2.83003
H     0.56206   0.90475  -3.55374
H     0.91914   2.28569  -2.48472
H     2.06676  -0.46915  -2.30622
H     2.08084   0.11583   0.71081
H     4.15481  -1.13855  -1.24398
H     6.20927  -1.78759  -0.40160
H     6.81042  -0.68617   0.87314
H     6.16550  -2.26707   1.32077
H     3.36954   0.18567   2.23230
H     5.12015   0.38010   2.49487
H     4.34705  -1.15908   2.87847
