23
Generated by autodE on: 2022-06-22. E = -351.521384 Ha
C     3.72125   0.66320   0.10282
C     2.58533  -0.05728  -0.02489
C     2.62382  -1.53700  -0.30932
C     1.28605   0.59794   0.11152
C     0.07796  -0.00973   0.00185
C    -1.18277   0.68968   0.14371
C    -2.42755   0.15850   0.04365
C    -3.64686   1.01933   0.21613
C    -2.71211  -1.28919  -0.24014
H     3.69001   1.73759   0.30889
H     4.70629   0.19850   0.00463
H     2.10093  -1.77436  -1.25073
H     3.65802  -1.90085  -0.38742
H     2.11482  -2.10786   0.48507
H     1.31219   1.67452   0.31893
H     0.04331  -1.08286  -0.20496
H    -1.10732   1.76355   0.35362
H    -4.28009   0.98708  -0.68880
H    -4.27743   0.64433   1.04233
H    -3.38947   2.06842   0.42327
H    -1.80918  -1.90006  -0.36749
H    -3.32418  -1.38566  -1.15430
H    -3.31186  -1.72806   0.57680
