25
Generated by autodE on: 2022-06-22. E = -780.623045 Ha
C     4.29321  -1.28662   1.56778
O     2.98639  -0.91933   1.11405
C     2.92627  -0.00480   0.11915
O     3.91939   0.49962  -0.38845
C     1.56986   0.28718  -0.25185
N     0.44404  -0.29285   0.33685
C    -0.65553   0.17518  -0.21624
C    -2.03235  -0.15526   0.09003
C    -3.06700   0.48526  -0.61830
C    -4.39580   0.17740  -0.33376
C    -4.70368  -0.76577   0.65227
C    -3.67661  -1.40477   1.35775
C    -2.34524  -1.10512   1.08266
O    -0.33963   1.05427  -1.16212
C     1.10913   1.17972  -1.24228
O     1.59474   1.94108  -2.05293
H     4.82808  -0.41165   1.96597
H     4.14154  -2.02711   2.36202
H     4.88063  -1.72780   0.74896
H     0.48268  -0.97827   1.08934
H    -2.82161   1.21978  -1.38606
H    -5.19588   0.67631  -0.88435
H    -5.74642  -1.00486   0.87238
H    -3.91572  -2.14166   2.12703
H    -1.55298  -1.61092   1.63807
