56
Generated by autodE on: 2022-07-02. E = -6484.546932 Ha
C    -2.03567   8.24959  10.99036
N    -2.89813   7.95821   9.86429
C    -3.98238   8.68028   9.55617
O    -4.44817   9.59071  10.23646
C    -4.72472   8.18651   8.26805
C    -5.85634   9.11939   8.01081
N    -6.82057   9.73468   7.82039
C    -3.85126   7.99459   7.00061
C    -4.06436   6.74395   6.52157
C    -5.16514   6.06743   7.31482
C    -6.50673   6.17138   6.56035
O    -6.82148   7.10556   5.85177
O    -7.31922   5.16960   6.87987
C    -8.64651   5.21113   6.32988
N    -5.20159   6.83748   8.54339
C    -6.32414   6.67690   9.45046
C    -3.38356   5.94406   5.43848
Br   -4.66453   4.59333   4.66948
Br   -1.96268   4.87030   6.37179
C    -2.75574   6.63490   4.24285
C    -3.68369   7.64189   3.53993
C    -3.29030   9.09814   3.77961
C    -3.64799   9.72824   5.12277
C    -3.00698   9.17369   6.45433
C    -1.62200   8.73728   6.21858
N    -0.51307   8.44046   6.05342
C    -2.90601  10.34350   7.47607
C    -3.88765  11.34521   7.50953
C    -3.81991  12.37621   8.44853
C    -2.76373  12.43352   9.35988
C    -1.76585  11.45713   9.31462
C    -1.83549  10.42506   8.37843
H    -1.92533   7.36405  11.63474
H    -1.03676   8.56125  10.64710
H    -2.47947   9.06272  11.57601
H    -2.61976   7.22067   9.22501
H    -4.96864   5.00807   7.53185
H    -9.16346   4.32836   6.72229
H    -8.60277   5.17180   5.23189
H    -9.16105   6.12975   6.64523
H    -7.27705   7.07531   9.05309
H    -6.45706   5.60815   9.66657
H    -6.10701   7.19590  10.39519
H    -1.83426   7.12629   4.56932
H    -2.43197   5.84747   3.55071
H    -4.73308   7.48011   3.83511
H    -3.63922   7.44711   2.45860
H    -2.21028   9.21916   3.58926
H    -3.79835   9.72061   3.02552
H    -3.35695  10.78445   5.06239
H    -4.73706   9.69817   5.26950
H    -4.72235  11.32855   6.81328
H    -4.60310  13.13736   8.46421
H    -2.71342  13.23947  10.09551
H    -0.92745  11.49148  10.01354
H    -1.04949   9.67051   8.36812
