25
Generated by autodE on: 2022-07-27. E = -701.697187 Ha
C     4.01626   0.76984   1.32282
N     2.73604   0.28530   0.84401
C     1.57614   0.77869   1.32729
O     1.54797   1.70132   2.15650
C     0.30691   0.22694   0.79701
C    -0.80829   1.08428   0.88472
N    -1.73405   1.78530   1.01002
N     0.13519  -1.05221   0.33602
C     0.99643  -2.13738   0.87292
C    -0.81645  -1.44028  -0.51113
C    -1.46996  -0.56958  -1.47834
O    -1.17510   0.58636  -1.74162
O    -2.43092  -1.25244  -2.12985
C    -3.10085  -0.55762  -3.18768
H     4.06313   0.72330   2.42101
H     4.81094   0.13899   0.90586
H     4.19643   1.81470   1.01960
H     2.72652  -0.34954   0.05427
H     0.36305  -3.01968   1.02193
H     1.42762  -1.83124   1.82910
H     1.78212  -2.38278   0.14710
H    -1.01663  -2.50809  -0.57220
H    -3.85548  -1.25168  -3.57567
H    -2.39200  -0.28647  -3.98428
H    -3.58385   0.35440  -2.80691
