31
Generated by autodE on: 2022-07-02. E = -5782.751213 Ha
N    -2.31934  -2.58250   2.94209
C    -1.64109  -1.71269   2.58343
C    -0.75074  -0.62453   2.14052
C    -1.12044   0.67877   2.87269
C    -1.36527   0.63806   4.25264
C    -1.63670   1.81341   4.95475
C    -1.66460   3.04158   4.28528
C    -1.42166   3.08437   2.91067
C    -1.15144   1.90744   2.20453
C    -0.78839  -0.49532   0.68327
C    -0.36634  -0.33013  -0.43997
C     0.62787  -0.13521  -1.45725
Br    0.04683   1.22748  -2.78581
Br    0.91008  -1.85785  -2.42903
C     1.93666   0.31888  -0.78641
C     2.38680  -0.51594   0.43021
C     1.82685  -0.14765   1.83234
C     0.74234  -1.04590   2.45588
H    -1.34566  -0.31657   4.78344
H    -1.82853   1.76849   6.02920
H    -1.87778   3.96139   4.83471
H    -1.44309   4.03779   2.37795
H    -0.96425   1.95089   1.13108
H     1.78387   1.36441  -0.47440
H     2.72101   0.32371  -1.55711
H     3.47814  -0.38421   0.47664
H     2.23074  -1.58803   0.22674
H     1.49943   0.90483   1.84540
H     2.67525  -0.19384   2.53144
H     0.83449  -1.04167   3.55153
H     0.87353  -2.08545   2.11910
