51
Generated by autodE on: 2022-06-02. E = -1187.791809 Ha
C    -2.73703   1.54519  -2.47093
N    -1.84192   0.74629  -1.65662
C    -2.18453   0.37216  -0.41405
O    -3.31244   0.59533   0.05116
C    -1.12346  -0.32102   0.44745
C    -1.76932  -1.45467   1.29858
C    -2.50388  -2.43638   0.36013
C    -1.33902  -3.14696  -0.38793
C    -0.08164  -2.51984   0.25129
C    -0.54479  -2.29457   1.70160
C     0.03808  -1.07838  -0.30360
C     1.33855  -0.30514   0.04806
C     2.50802  -1.30487   0.20104
C     3.11453  -1.82864  -1.06999
O     2.88728  -1.65598   1.30067
C     1.68757   0.69166  -1.08008
O     1.04511   0.86805  -2.09924
O     2.80054   1.35926  -0.79929
C     3.18861   2.40056  -1.71100
N     1.01844   0.35949   1.29285
C     1.96634   1.20097   1.99375
C    -0.38044   0.72490   1.35929
C    -0.63993   2.18557   0.94791
C    -1.74538   2.90641   1.65977
O     0.07024   2.73238   0.11918
H    -2.30330   1.65612  -3.47270
H    -2.89288   2.54809  -2.03827
H    -3.71946   1.05915  -2.56041
H    -0.86036   0.69111  -1.93300
H    -2.39074  -1.05911   2.11117
H    -3.21068  -1.93670  -0.31465
H    -3.08262  -3.15160   0.96323
H    -1.36875  -2.98161  -1.47512
H    -1.35353  -4.23303  -0.21509
H     0.81986  -3.12946   0.11367
H     0.18985  -1.75850   2.31314
H    -0.82861  -3.23007   2.20728
H    -0.08582  -1.09389  -1.38968
H     3.64988  -2.76585  -0.87065
H     2.35654  -1.97202  -1.85396
H     3.83550  -1.08232  -1.44350
H     3.37580   1.98216  -2.70983
H     2.39693   3.16065  -1.76822
H     4.10668   2.83409  -1.29929
H     1.61518   1.33444   3.03023
H     2.09786   2.20389   1.54999
H     2.94704   0.71125   2.03472
H    -0.74047   0.62175   2.39682
H    -2.62565   2.26020   1.78004
H    -1.38159   3.15630   2.67218
H    -2.00623   3.83311   1.13189
