24
Generated by autodE on: 2022-06-02. E = -480.985143 Ha
C     3.67265   0.93254  -0.27314
N     2.22777   1.03273  -0.28382
C     1.43878  -0.06273  -0.27363
O     1.91313  -1.21222  -0.28725
C    -0.02281   0.15664  -0.24163
C    -0.71650   1.20434   0.25381
C    -2.17742   0.80680   0.28420
C    -2.29502  -0.25918   1.42878
C    -1.50226  -1.47058   0.86022
C    -1.02628  -0.95023  -0.53390
C    -2.24717  -0.10866  -0.95817
H     4.03072   0.38641   0.61437
H     4.04714   0.40365  -1.16489
H     4.09947   1.94287  -0.26016
H     1.79580   1.94940  -0.31318
H    -0.30697   2.11400   0.69902
H    -2.90118   1.62834   0.35722
H    -1.88790   0.11691   2.37825
H    -3.35317  -0.51222   1.59346
H    -2.15144  -2.35024   0.73552
H    -0.64932  -1.76586   1.48757
H    -0.67763  -1.73281  -1.21828
H    -3.17970  -0.69115  -1.01628
H    -2.08830   0.43506  -1.90144
