27
Generated by autodE on: 2022-07-27. E = -706.739596 Ha
C     1.02162   2.56808  -1.49696
O     0.91854   1.52881  -0.52118
C     0.71883   0.28081  -0.98650
O     0.82024   0.01503  -2.17336
C     0.48666  -0.69882   0.08406
C     0.79803  -2.11245  -0.08523
C     1.51541  -2.57933  -1.33158
O     0.47361  -2.94866   0.77005
N     0.00203  -0.26357   1.30516
C     0.49820  -0.88448   2.56106
C    -0.87319   0.71792   1.46829
C    -1.81811   1.19439   0.45252
C    -2.87593   2.12911   0.97443
O    -1.79492   0.82555  -0.72027
H     1.08881   3.50670  -0.93389
H     0.13180   2.57965  -2.14319
H     1.92027   2.43685  -2.11760
H     1.83807  -3.61571  -1.16434
H     0.83583  -2.54804  -2.19613
H     2.37891  -1.94632  -1.57873
H    -0.19607  -1.66628   2.88622
H     0.54783  -0.09411   3.31947
H     1.49177  -1.30788   2.39600
H    -1.00965   1.06882   2.49098
H    -3.40010   1.69184   1.83882
H    -2.39289   3.05683   1.32606
H    -3.59203   2.36400   0.17699
