51
Generated by autodE on: 2022-06-02. E = -1187.710690 Ha. Imaginary frequency = -226.6 cm-1
C    -2.44063   1.73863  -2.63872
N    -1.73362   0.75263  -1.84911
C    -2.19869   0.35058  -0.64253
O    -3.35061   0.63441  -0.25801
C    -1.31039  -0.48756   0.19220
C    -1.93319  -1.32795   1.30334
C    -2.61807  -2.51972   0.56306
C    -1.40407  -3.31326  -0.00349
C    -0.17302  -2.50205   0.51713
C    -0.70629  -2.04197   1.88927
C    -0.19856  -1.21200  -0.29262
C     1.62265  -0.04938   0.12969
C     2.59680  -1.17578   0.03702
C     3.11359  -1.52810  -1.33702
O     2.91948  -1.85451   1.00655
C     1.70732   0.87672  -1.06930
O     1.21077   0.67927  -2.16218
O     2.58738   1.84861  -0.82840
C     2.80064   2.79712  -1.88529
N     1.30416   0.50133   1.36415
C     2.03643   0.11243   2.59311
C     0.17102   1.20782   1.57485
C    -0.47806   2.17965   0.71417
C    -1.70026   2.83560   1.31263
O    -0.04226   2.53698  -0.38520
H    -2.03402   1.74360  -3.65896
H    -2.33819   2.75495  -2.21953
H    -3.51073   1.49517  -2.68662
H    -0.73663   0.64796  -2.03132
H    -2.58814  -0.78602   1.99525
H    -3.31284  -2.17430  -0.21493
H    -3.19203  -3.12603   1.28031
H    -1.41088  -3.38377  -1.10102
H    -1.36766  -4.33725   0.39743
H     0.76659  -3.06488   0.50191
H    -0.03383  -1.38104   2.44210
H    -0.97826  -2.88941   2.53605
H     0.05471  -1.23565  -1.35234
H     3.75457  -2.41386  -1.24933
H     2.28566  -1.73525  -2.03035
H     3.69620  -0.69474  -1.76052
H     3.20334   2.29392  -2.77580
H     1.85512   3.29700  -2.13715
H     3.52480   3.52248  -1.49731
H     1.82005  -0.91523   2.89801
H     1.74694   0.81065   3.38483
H     3.11200   0.20701   2.41070
H    -0.11764   1.26748   2.62515
H    -2.25833   2.15653   1.97083
H    -1.36802   3.69905   1.91500
H    -2.35528   3.20205   0.51231
