47
Generated by autodE on: 2022-05-31. E = -3534.604440 Ha
C     3.57983  -2.97601  -0.22851
N     2.63335  -2.19620   0.54390
C     1.52597  -1.68670  -0.02220
O     1.22626  -1.95295  -1.19221
C     0.57834  -0.82485   0.87286
C     1.00057  -0.84745   2.34331
N    -0.79177  -1.34266   0.72277
C    -0.97288  -2.77236   0.90953
C    -1.36407  -0.81953  -0.50190
C    -2.88151  -0.81490  -0.55342
O    -3.49131  -0.71476  -1.60266
O    -3.48577  -0.90730   0.63019
C    -4.92022  -0.86124   0.62972
C    -0.77536   0.62256  -0.69962
C    -0.48362   0.83358  -2.18018
C    -1.69802   1.71656  -0.06993
C    -1.10472   3.12275  -0.28492
C     0.10113   3.14040   0.69377
C     0.06803   1.73295   1.33043
C    -1.45663   1.52488   1.43944
C     0.45590   0.63787   0.30019
Br    2.22211   1.12997  -0.51553
H     4.03551  -2.37276  -1.03150
H     4.37317  -3.33661   0.43762
H     3.08662  -3.84147  -0.69632
H     2.88107  -1.93527   1.48970
H     1.95396  -0.31907   2.49121
H     1.11596  -1.87689   2.70870
H     0.23942  -0.36063   2.96358
H    -0.50674  -3.09529   1.85075
H    -0.54735  -3.37706   0.08402
H    -2.04596  -3.00180   0.97882
H    -1.06817  -1.42410  -1.37545
H    -5.22565  -0.96784   1.67686
H    -5.33146  -1.68311   0.02661
H    -5.27142   0.09970   0.22679
H    -0.01226   1.80296  -2.38192
H     0.18767   0.04815  -2.55096
H    -1.42765   0.78062  -2.74442
H    -2.73660   1.63756  -0.41677
H    -0.81777   3.31847  -1.32601
H    -1.85323   3.88007  -0.00867
H     1.05437   3.36567   0.20255
H    -0.04389   3.88402   1.49116
H     0.64532   1.67344   2.25844
H    -1.93247   2.30947   2.04700
H    -1.74885   0.54161   1.81598
