20
Generated by autodE on: 2022-05-31. E = -2885.785263 Ha
C     2.15634  -1.01202  -0.87535
C     0.84251  -1.05989  -0.18101
C     0.05049  -0.07185   0.27237
Br    0.36406   1.79599   0.13952
C    -1.29119  -0.64236   0.69532
C    -2.00345  -1.07782  -0.62493
C    -1.10444  -2.24400  -1.13032
C     0.00490  -2.33120  -0.03182
C    -0.81835  -2.00963   1.23193
H     2.05888  -1.39123  -1.90820
H     2.89543  -1.65859  -0.37230
H     2.55698   0.01097  -0.92126
H    -1.89184  -0.01061   1.36076
H    -3.02625  -1.42187  -0.40906
H    -2.07190  -0.24424  -1.33861
H    -1.66498  -3.18980  -1.18014
H    -0.67477  -2.05649  -2.12511
H     0.58165  -3.26582  -0.03910
H    -0.20184  -1.92455   2.13876
H    -1.64568  -2.71570   1.40536
