27
Generated by autodE on: 2022-05-31. E = -648.747324 Ha
C    -4.28296   1.06856   0.09554
N    -3.34694   0.01978  -0.25005
C    -2.04059   0.10312   0.11756
O    -1.65469   1.08266   0.78627
C    -1.17270  -1.00611  -0.33373
C    -1.79848  -2.26390  -0.86820
N     0.17262  -0.89048  -0.32604
C     0.92716  -1.99408  -0.96895
C     0.88025   0.13668   0.21909
C     2.29431   0.35956   0.15310
O     3.20164  -0.28164  -0.38458
O     2.58202   1.51234   0.83723
C     3.95340   1.89661   0.88067
H    -5.28635   0.76838  -0.23128
H    -4.30060   1.23815   1.18310
H    -4.02643   2.02724  -0.38699
H    -3.64995  -0.69660  -0.89731
H    -1.23564  -3.16039  -0.57692
H    -1.87652  -2.26956  -1.97091
H    -2.80919  -2.38972  -0.46167
H     0.83176  -2.90003  -0.35724
H     0.51702  -2.18380  -1.96668
H     1.97589  -1.70747  -1.04092
H     0.29108   0.87645   0.74308
H     4.35026   2.07714  -0.13055
H     4.56924   1.12568   1.36969
H     3.99156   2.82531   1.46408
