27
Generated by autodE on: 2022-07-27. E = -648.744610 Ha
C     4.26911  -0.51749  -1.19848
N     3.30908  -0.54105  -0.11419
C     2.04702  -0.08102  -0.28602
O     1.68829   0.36892  -1.38841
C     1.17176  -0.11794   0.91669
C     1.78403  -0.08964   2.28812
N    -0.16508  -0.13656   0.78405
C    -0.95274  -0.06161   2.03873
C    -0.83375  -0.33666  -0.39265
C    -2.18437  -0.01179  -0.72785
O    -2.68353  -0.32455  -1.81509
O    -2.89962   0.71086   0.17970
C    -4.24765   1.01788  -0.17573
H     5.21543  -0.94195  -0.84186
H     4.45181   0.51082  -1.54894
H     3.91744  -1.10691  -2.06102
H     3.58073  -0.96185   0.76598
H     2.85304   0.14199   2.22881
H     1.33156   0.68561   2.92441
H     1.67558  -1.05251   2.81960
H    -0.89658   0.95218   2.45583
H    -0.54133  -0.77524   2.76007
H    -1.98884  -0.31940   1.83123
H    -0.23246  -0.65708  -1.23479
H    -4.66420   1.57860   0.67048
H    -4.83472   0.10181  -0.34142
H    -4.28564   1.63495  -1.08622
