47
Generated by autodE on: 2022-05-31. E = -3534.523813 Ha. Imaginary frequency = -283.2 cm-1
C     3.76351  -2.38152  -0.70476
N     2.73607  -2.07949   0.26861
C     1.45317  -1.87653  -0.11794
O     1.11409  -2.12826  -1.28854
C     0.51863  -1.41415   0.94885
C     1.03026  -1.33544   2.35926
N    -0.82613  -1.62904   0.76916
C    -1.62544  -2.06504   1.93049
C    -1.41195  -1.30770  -0.42398
C    -2.82441  -1.12580  -0.68101
O    -3.28075  -1.07400  -1.82308
O    -3.60029  -0.88605   0.39760
C    -4.97322  -0.57762   0.14561
C    -0.60905   0.92851  -0.69011
C    -0.52213   0.88462  -2.18237
C    -1.66570   1.77612   0.01914
C    -1.14697   3.24870  -0.05449
C     0.07021   3.24113   0.91516
C     0.11591   1.76032   1.40214
C    -1.39275   1.46609   1.50017
C     0.48230   0.91150   0.18923
Br    2.29061   1.13829  -0.47194
H     3.86037  -1.57454  -1.45097
H     4.72209  -2.49915  -0.18415
H     3.53906  -3.31399  -1.24494
H     3.02961  -1.81763   1.20006
H     1.95522  -0.74136   2.37899
H     1.25579  -2.32214   2.80226
H     0.31901  -0.81968   3.01482
H    -1.92745  -1.23403   2.58122
H    -1.03134  -2.77572   2.51472
H    -2.52105  -2.57659   1.57264
H    -0.80682  -1.47594  -1.30288
H    -5.43399  -0.42532   1.12907
H    -5.47187  -1.40530  -0.37979
H    -5.06274   0.33823  -0.45718
H    -0.29507   1.88905  -2.58323
H     0.27847   0.20867  -2.51142
H    -1.47219   0.55433  -2.62857
H    -2.69355   1.64417  -0.34377
H    -0.87769   3.54061  -1.07965
H    -1.93285   3.93732   0.29150
H     1.00966   3.53924   0.43011
H    -0.09375   3.91060   1.77326
H     0.72369   1.59167   2.29979
H    -1.90884   2.15862   2.18224
H    -1.63241   0.44250   1.78567
