34
Generated by autodE on: 2022-06-18. E = -931.877787 Ha
C     3.03804  -2.41774  -1.37196
N     2.01104  -1.61559  -0.73496
C     1.41170  -0.60795  -1.37352
O     1.69060  -0.23740  -2.51488
C     0.28172   0.09598  -0.59134
C     0.55603   1.60802  -0.65447
O     0.33038   2.27721  -1.63774
O     1.07660   2.07291   0.47341
C     1.36458   3.48144   0.51635
O     0.28351  -0.36552   0.76123
C    -1.04068  -0.52550   1.24992
C    -1.23905  -1.95106   1.59850
N    -1.38513  -3.07118   1.85624
C    -1.17724   0.27328   2.48733
N    -1.25965   0.90747   3.45294
C    -2.01766  -0.06842   0.10322
C    -2.56285   1.34428   0.29827
C    -1.12509  -0.23986  -1.14841
C    -1.23119  -1.63079  -1.77121
H     3.47865  -3.08853  -0.62486
H     3.82815  -1.77536  -1.78799
H     2.62183  -3.02344  -2.19330
H     1.68144  -1.84869   0.19667
H     1.76549   3.67493   1.51740
H     2.10630   3.74111  -0.25202
H     0.44460   4.06025   0.35253
H    -2.86008  -0.77081   0.06552
H    -1.76992   2.09024   0.45461
H    -3.13357   1.63254  -0.59579
H    -3.23931   1.38715   1.16382
H    -1.39466   0.51349  -1.89845
H    -0.92428  -2.42504  -1.07534
H    -0.60680  -1.70324  -2.67272
H    -2.27402  -1.82045  -2.06425
