12
Generated by autodE on: 2022-06-18. E = -157.300302 Ha
C     1.95867  -0.06934  -0.12834
C     0.49227  -0.18380  -0.41543
C    -0.49226   0.18387   0.41539
C    -1.95867   0.06929   0.12837
H     2.14727   0.35740   0.86935
H     2.45508  -1.05470  -0.18009
H     2.46424   0.56797  -0.87558
H     0.22099  -0.60512  -1.39363
H    -0.22098   0.60522   1.39358
H    -2.14729  -0.35674  -0.86962
H    -2.45532   1.05448   0.18098
H    -2.46399  -0.56877   0.87516
