22
Generated by autodE on: 2022-07-27. E = -774.466843 Ha
C     2.46930  -2.38824  -2.30653
N     1.56831  -1.78284  -1.34513
C     1.29428  -0.46938  -1.38815
O     1.78225   0.31413  -2.20826
C     0.32704   0.03080  -0.36763
O    -0.36375  -0.86777   0.24395
C    -1.27128  -0.87328   1.21791
C    -1.82534  -2.14143   1.49563
N    -2.30546  -3.17751   1.73344
C    -1.56798   0.24404   2.02170
N    -1.80300   1.13145   2.74211
C    -0.00540   1.47842  -0.23667
O    -1.16014   1.84820  -0.15704
O     1.05791   2.25814  -0.24305
C     0.81774   3.67902  -0.19404
H     2.55675  -3.45763  -2.08279
H     3.46840  -1.92784  -2.25329
H     2.09351  -2.26546  -3.33455
H     1.13002  -2.36509  -0.63837
H     1.80775   4.14695  -0.18853
H     0.24606   3.99280  -1.07858
H     0.26244   3.93435   0.71922
