22
Generated by autodE on: 2022-06-18. E = -774.469162 Ha
C    -3.06083  -2.08461   1.41191
N    -1.72082  -1.84629   0.91360
C    -1.31208  -0.61175   0.59125
O    -2.03307   0.39467   0.61848
C     0.11715  -0.44844   0.22036
O     0.53550   0.64412  -0.33250
C     0.02038   1.69894  -0.92846
C    -1.31456   1.85519  -1.36714
N    -2.34072   2.09095  -1.86969
C     0.97945   2.67067  -1.30863
N     1.74597   3.49264  -1.61757
C     1.20303  -1.37672   0.61678
O     0.98158  -2.49045   1.06462
O     2.41216  -0.87606   0.40885
C     3.52704  -1.72096   0.74435
H    -3.19270  -1.68218   2.43035
H    -3.24542  -3.16520   1.43087
H    -3.80147  -1.60281   0.75764
H    -1.00782  -2.57181   0.98377
H     3.50917  -1.96485   1.81600
H     4.42357  -1.14177   0.49785
H     3.49240  -2.64696   0.15311
