34
Generated by autodE on: 2022-06-18. E = -931.779395 Ha. Imaginary frequency = -120.8 cm-1
C     2.66370  -2.75807  -1.98247
N     1.96962  -1.90113  -1.04210
C     1.58680  -0.65974  -1.38853
O     1.88052  -0.12539  -2.46136
C     0.74530   0.06107  -0.37987
C     0.67906   1.54906  -0.40154
O     0.60191   2.22260  -1.40620
O     0.73328   2.02978   0.83519
C     0.55845   3.44583   1.00679
O     0.45336  -0.64977   0.67895
C    -0.47452  -0.57287   1.63491
C    -0.84908  -1.83493   2.15530
N    -1.18718  -2.87180   2.56959
C    -0.93751   0.58939   2.28532
N    -1.40439   1.47038   2.89336
C    -2.28759   0.12956  -0.46949
C    -2.66078   1.56557  -0.32571
C    -1.47734  -0.36918  -1.44980
C    -1.33203  -1.84037  -1.70654
H     3.01568  -3.65264  -1.45480
H     3.52760  -2.23346  -2.41534
H     2.00274  -3.06834  -2.80963
H     1.61090  -2.30252  -0.18149
H     0.56609   3.61853   2.08808
H     1.38380   3.98648   0.52329
H    -0.40033   3.76246   0.57368
H    -2.80196  -0.58350   0.18451
H    -2.09394   2.21128  -1.01062
H    -3.73727   1.68900  -0.54200
H    -2.52060   1.92275   0.70825
H    -1.09919   0.31961  -2.21248
H    -1.28493  -2.41580  -0.76864
H    -0.44817  -2.07346  -2.31541
H    -2.20914  -2.20391  -2.27056
