49
Generated by autodE on: 2022-06-22. E = -1129.256854 Ha
C    -5.78847   0.92369   1.62955
C    -4.82382   0.01127   1.39579
C    -5.03753  -1.45807   1.64447
C    -3.52504   0.45333   0.87767
C    -2.48248  -0.35161   0.60282
C    -1.18182   0.15820   0.07692
C    -0.76769  -0.42317  -1.33125
C    -1.31682  -1.78619  -1.55572
N    -1.71876  -2.85993  -1.72789
C    -1.32297   0.43773  -2.39994
N    -1.76314   1.10545  -3.23938
N     0.68209  -0.47619  -1.29950
C     1.22932   0.18253  -0.11650
C     1.39934   1.70629  -0.34622
O     1.98196   2.47091   0.39294
O     0.80280   2.10118  -1.46959
C     0.81992   3.50339  -1.77404
C     2.58042  -0.42668   0.27400
C     3.08576  -1.53377  -0.42229
C     4.29544  -2.12679  -0.04799
C     5.02093  -1.62648   1.03498
C     4.52489  -0.52426   1.73757
C     3.31924   0.07180   1.36120
C     0.08354  -0.08774   0.95163
C     0.05914   0.85322   2.15455
C     0.17428  -1.53586   1.45212
H    -5.61756   1.98808   1.44195
H    -6.77014   0.63119   2.01260
H    -6.05033  -1.65483   2.02304
H    -4.31061  -1.84572   2.37747
H    -4.89187  -2.04036   0.71941
H    -3.41783   1.53055   0.70563
H    -2.56576  -1.42914   0.76270
H    -1.26841   1.24314  -0.06692
H     1.12721  -0.21524  -2.17470
H     0.24130   3.61403  -2.69807
H     0.35386   4.07458  -0.95882
H     1.85311   3.84753  -1.92280
H     2.52364  -1.94318  -1.25982
H     4.66777  -2.98766  -0.60865
H     5.96483  -2.09075   1.33037
H     5.07908  -0.12151   2.58882
H     2.95810   0.93387   1.91651
H    -0.03080   1.90821   1.86327
H     0.95965   0.73347   2.77262
H    -0.81055   0.60250   2.78047
H     1.07509  -1.66986   2.06607
H     0.21195  -2.26794   0.63376
H    -0.69575  -1.76746   2.08265
