26
Generated by autodE on: 2022-06-22. E = -777.704495 Ha
C    -1.35525   0.96575  -3.91752
O    -0.66495   0.74615  -2.67611
C    -1.34485   0.14207  -1.71267
O    -2.49766  -0.24745  -1.81403
C    -0.55161  -0.04104  -0.46903
N    -1.22926  -0.68849   0.45811
C    -0.97877  -1.00309   1.76503
C     0.13901  -0.52708   2.48232
N     1.02897  -0.15600   3.14062
C    -1.93075  -1.79259   2.44744
N    -2.70690  -2.44633   3.02562
C     0.84224   0.39850  -0.32319
C     1.19069   1.74433  -0.53569
C     2.51767   2.15063  -0.40312
C     3.50926   1.21891  -0.07571
C     3.17077  -0.12346   0.11945
C     1.84351  -0.53511   0.00076
H    -2.24811   1.58498  -3.75151
H    -0.64293   1.48616  -4.56701
H    -1.64943   0.00463  -4.36252
H    -2.15705  -0.98625   0.11689
H     0.41509   2.46738  -0.79263
H     2.78016   3.19974  -0.55582
H     4.54854   1.54019   0.02419
H     3.94349  -0.85434   0.36700
H     1.57973  -1.58390   0.15178
