49
Generated by autodE on: 2022-06-22. E = -1129.198288 Ha. Imaginary frequency = -377.0 cm-1
C    -6.06329  -0.90392   0.42371
C    -4.79384  -1.08424   0.84978
C    -4.39447  -2.28968   1.66080
C    -3.77005  -0.10221   0.50594
C    -2.47010  -0.16744   0.89118
C    -1.47230   0.79972   0.48980
C    -0.73647  -0.13641  -1.45156
C    -0.75448  -1.48864  -0.99539
N    -0.87406  -2.57575  -0.59504
C    -1.80217   0.20547  -2.33166
N    -2.72408   0.50102  -2.97993
N     0.41567   0.61374  -1.52003
C     1.30250   0.69946  -0.46399
C     1.98057   2.03349  -0.51400
O     1.59187   2.93512  -1.24057
O     3.00443   2.15760   0.31883
C     3.64501   3.44199   0.37508
C     2.11129  -0.50144  -0.11321
C     2.21236  -1.55979  -1.03790
C     2.98783  -2.68641  -0.76261
C     3.69516  -2.77729   0.43862
C     3.63321  -1.71876   1.35048
C     2.85715  -0.59272   1.07782
C    -0.25249   1.02255   1.20415
C     0.03654   2.47212   1.54029
C     0.09918   0.04611   2.29938
H    -6.34123  -0.02696  -0.16876
H    -6.85088  -1.62684   0.65349
H    -3.59770  -2.85774   1.15239
H    -5.24978  -2.95942   1.82711
H    -3.99127  -1.99187   2.64295
H    -4.09306   0.73832  -0.11818
H    -2.14151  -0.99770   1.51779
H    -1.85156   1.65193  -0.08267
H     0.27579   1.52642  -1.96188
H     2.92560   4.21259   0.68600
H     4.44454   3.34398   1.11779
H     4.06407   3.70189  -0.60704
H     1.69996  -1.49163  -1.99758
H     3.04554  -3.49154  -1.49874
H     4.30211  -3.65895   0.65702
H     4.19683  -1.76668   2.28512
H     2.83823   0.22458   1.79287
H    -0.15105   3.14045   0.68888
H     1.06599   2.61932   1.89449
H    -0.63463   2.78593   2.36019
H     1.05457   0.30006   2.77205
H    -0.67061   0.09313   3.09015
H     0.14910  -0.99254   1.94518
