23
Generated by autodE on: 2022-06-29. E = -517.879567 Ha
C     0.02911   2.80494  -0.69807
N    -0.87148   1.89115  -0.48346
C    -0.81847   0.55114  -0.17333
C    -2.12651  -0.02424  -0.09856
C    -2.30404  -1.47326   0.28975
O    -3.14910   0.67193  -0.33774
C     0.46902  -0.12817   0.04696
C     0.76267  -1.34776  -0.59515
C     1.97087  -2.00959  -0.36558
C     2.92380  -1.46024   0.49761
C     2.65317  -0.24400   1.13436
C     1.44113   0.41240   0.91507
H    -0.31121   3.80892  -0.95030
H     1.08992   2.56285  -0.64009
H    -1.86802   2.15851  -0.57053
H    -1.48076  -1.86180   0.90318
H    -3.25451  -1.57347   0.83408
H    -2.37496  -2.09721  -0.61704
H     0.03662  -1.77475  -1.28930
H     2.17314  -2.95553  -0.87418
H     3.87183  -1.97456   0.67193
H     3.38761   0.19233   1.81598
H     1.23812   1.34906   1.43900
