16
Generated by autodE on: 2022-06-29. E = -3218.295015 Ha
F    -2.30467  -0.26253   0.10329
C    -1.44198  -1.22281  -0.25515
F    -1.50947  -2.19778   0.67964
F    -1.89927  -1.76559  -1.40278
C    -0.04979  -0.73731  -0.39859
C     0.53347   0.43878  -0.14142
Br   -0.15097   2.06067   0.47678
C     2.05645   0.19140  -0.32718
C     2.49256  -0.71561   0.84574
C     1.91755  -1.89442   0.59312
C     1.13989  -1.68254  -0.72484
O     2.00723  -0.75657  -1.40035
H     2.66800   1.06860  -0.56090
H     3.09073  -0.39215   1.69639
H     1.91371  -2.81274   1.17851
H     0.90473  -2.56183  -1.33320
