14
Generated by autodE on: 2022-06-16. E = -270.683221 Ha
C    -1.16621   0.95140   0.50812
C    -0.75048  -0.43410   0.10429
C    -1.81474  -1.48413   0.15733
C     0.51224  -0.75227  -0.29262
C     1.63316   0.17077  -0.38833
O     1.61918   1.37315  -0.13420
H    -2.22510   0.97909   0.80064
H    -1.00521   1.66535  -0.31533
H    -0.55367   1.31750   1.34716
H    -2.66265  -1.19128  -0.48669
H    -1.45138  -2.47346  -0.15294
H    -2.22261  -1.55292   1.18125
H     0.73377  -1.78700  -0.56999
H     2.58434  -0.30377  -0.73195
