30
Generated by autodE on: 2022-06-16. E = -708.874535 Ha. Imaginary frequency = -328.8 cm-1
C    -3.33043   0.96479   1.47999
C    -2.48211   1.03513   0.24832
O    -2.85617   1.42674  -0.84281
C    -1.10029   0.51700   0.39420
N    -0.09466   0.97504   0.90789
C     1.20619   0.93685   0.88991
C     1.89586   1.36170  -0.35191
C     3.38643   1.18618  -0.34102
O     1.26779   1.79160  -1.31388
C     0.80651  -1.36894  -0.41340
C     1.62989  -1.89556   0.63937
O     2.85705  -2.05782   0.56415
C    -0.60011  -1.37930  -0.43823
C    -1.25018  -1.22313  -1.79871
C    -1.39121  -2.21341   0.55253
H    -3.40400  -0.08498   1.80818
H    -4.32881   1.36776   1.26421
H    -2.85143   1.52855   2.29657
H     1.75554   0.76855   1.81828
H     3.62202   0.12284  -0.16254
H     3.83014   1.76024   0.48830
H     3.81168   1.51214  -1.29872
H     1.33526  -1.05633  -1.31817
H     1.10351  -2.18414   1.57766
H    -2.31012  -0.94647  -1.72101
H    -1.20318  -2.19092  -2.32781
H    -0.73009  -0.47177  -2.41011
H    -1.32012  -3.27829   0.27165
H    -1.02760  -2.11060   1.58368
H    -2.45532  -1.93746   0.53231
