20
Generated by autodE on: 2022-06-28. E = -457.715326 Ha
C     3.17250  -0.15982   0.13157
N     1.80107   0.31865   0.07451
C     1.54223   1.68714   0.22165
C     0.29877   2.19288   0.23049
C    -0.93829   1.34201   0.08121
C    -0.56138  -0.12562  -0.03955
C    -1.59012  -1.16938  -0.17142
N    -2.87708  -0.73904  -0.16979
O    -1.32903  -2.38504  -0.27982
C     0.74045  -0.52930  -0.03531
H     3.61920   0.02018   1.12377
H     3.79408   0.34630  -0.62386
H     3.18929  -1.23829  -0.06921
H     2.42984   2.31334   0.32817
H     0.17759   3.27222   0.34761
H    -1.52507   1.67387  -0.80026
H    -1.61848   1.50620   0.94167
H    -3.61892  -1.42468  -0.25862
H    -3.12703   0.23800  -0.08663
H     0.98184  -1.58964  -0.12542
