36
Generated by autodE on: 2022-06-28. E = -953.994792 Ha
C     5.22387   0.18296   0.79887
N     3.91693  -0.36771   0.51156
C     2.87012   0.41464   0.21393
O     2.94301   1.66195   0.18987
C     1.57458  -0.24841  -0.09753
N     0.60329   0.68680  -0.25796
C    -0.71954   0.71560  -0.26268
C    -1.24056   2.07264  -0.56296
O    -0.51161   3.01123  -0.84817
O    -2.56348   2.16268  -0.46705
C    -3.14522   3.44634  -0.74035
C    -1.58239  -0.39476   0.16918
C    -1.27263  -1.08638   1.35501
C    -2.09039  -2.12477   1.79764
C    -3.22136  -2.49373   1.06004
C    -3.53511  -1.80993  -0.11837
C    -2.72496  -0.76318  -0.56064
C     1.45457  -1.65860  -0.41870
C     0.35308  -2.14645  -1.32795
O     2.32412  -2.47064  -0.05151
H     5.64246   0.71566  -0.07103
H     5.90233  -0.63611   1.06728
H     5.18139   0.89521   1.63834
H     3.74498  -1.37417   0.48838
H     1.03764   1.63014  -0.32203
H    -2.77145   4.19439  -0.02669
H    -2.90570   3.76421  -1.76519
H    -4.22690   3.31549  -0.62422
H    -0.38833  -0.80958   1.93253
H    -1.84408  -2.64948   2.72345
H    -3.85665  -3.31285   1.40460
H    -4.41555  -2.09386  -0.69918
H    -2.96714  -0.23600  -1.48401
H     0.79895  -2.89222  -2.00221
H    -0.11641  -1.34925  -1.91667
H    -0.43008  -2.65283  -0.74330
