36
Generated by autodE on: 2022-07-28. E = -953.986360 Ha
C    -3.71755  -0.98996  -2.62523
N    -2.60873  -0.72805  -1.72842
C    -2.84046  -0.28365  -0.45447
O    -4.00003  -0.07480  -0.06250
C    -1.64442  -0.05578   0.36702
N    -0.46850   0.14916  -0.33495
C     0.80115   0.07199   0.02563
C     1.22245  -0.73550   1.21271
O     2.17953  -0.46126   1.90668
O     0.51287  -1.85813   1.32071
C     0.78071  -2.67789   2.46696
C     1.81173   0.71943  -0.80681
C     1.47111   1.83740  -1.59971
C     2.41582   2.42347  -2.44034
C     3.71822   1.91722  -2.49650
C     4.07189   0.81944  -1.70341
C     3.13348   0.22457  -0.86406
C    -1.64820   0.18685   1.78640
C    -2.94805   0.18243   2.55489
O    -0.58898   0.43521   2.39712
H    -3.32207  -1.20985  -3.62511
H    -4.37391  -0.11065  -2.69004
H    -4.33110  -1.84491  -2.29177
H    -1.73440  -1.20138  -1.93055
H    -0.61115   0.51621  -1.28231
H     0.61211  -2.10216   3.38803
H     1.81623  -3.04631   2.44495
H     0.07737  -3.51629   2.40860
H     0.47278   2.27592  -1.53549
H     2.13759   3.29173  -3.04147
H     4.45935   2.38229  -3.15032
H     5.08739   0.41961  -1.74393
H     3.42012  -0.63869  -0.26370
H    -3.59468   1.01445   2.24110
H    -3.51323  -0.74277   2.37293
H    -2.71303   0.27769   3.62342
