56
Generated by autodE on: 2022-06-28. E = -1411.672307 Ha. Imaginary frequency = -216.5 cm-1
C    -3.56376   0.94376  -2.09631
N    -2.49341   1.11587  -1.13514
C    -2.69316   0.80128   0.18529
O    -3.85017   0.53770   0.57359
C    -1.52642   0.81313   1.06747
C    -1.63566   0.69705   2.49566
C    -2.86064   0.08405   3.14295
O    -0.71287   1.08399   3.24801
N    -0.31981   1.32159   0.52893
C     0.90919   0.71259   0.56273
C     1.43249   0.37217   1.96833
O     2.15270   1.14070   2.57119
O     1.08398  -0.81825   2.41323
C     1.52494  -1.19002   3.72324
C     1.95069   1.34353  -0.31054
C     1.59370   2.14888  -1.41039
C     2.56280   2.67345  -2.26699
C     3.91583   2.40542  -2.05026
C     4.28938   1.61364  -0.96073
C     3.32251   1.09348  -0.10119
C     0.52393  -1.19409  -0.34113
C     1.67550  -2.10597   0.01487
N     2.84831  -1.88459  -0.61609
O     1.54972  -3.05583   0.80236
C     0.37572  -0.83251  -1.82082
C    -0.71497  -1.60250  -2.50049
C    -1.72404  -2.14059  -1.80471
N    -1.73756  -2.11245  -0.39696
C    -2.92037  -2.64487   0.27864
C    -0.69147  -1.66691   0.29514
H    -3.22753   1.31856  -3.07197
H    -4.45378   1.51182  -1.79057
H    -3.85988  -0.11367  -2.21205
H    -1.55408   1.04423  -1.50396
H    -3.71383   0.77708   3.09499
H    -3.17850  -0.84207   2.64755
H    -2.61843  -0.11534   4.19665
H    -0.42137   2.04300  -0.17649
H     1.07377  -0.52296   4.47054
H     2.62079  -1.13798   3.78720
H     1.18352  -2.22057   3.87148
H     0.55212   2.38616  -1.63063
H     2.25164   3.29431  -3.10975
H     4.67404   2.81448  -2.72167
H     5.34357   1.39856  -0.77309
H     3.64730   0.48262   0.73831
H     3.63497  -2.48250  -0.38399
H     3.02345  -1.05872  -1.17496
H     1.32269  -0.96502  -2.35968
H     0.15606   0.24574  -1.93802
H    -0.71656  -1.67713  -3.58966
H    -2.56894  -2.65853  -2.25765
H    -3.79017  -2.00994   0.06727
H    -2.74090  -2.66916   1.35889
H    -3.11887  -3.66476  -0.08127
H    -0.68511  -1.90628   1.35431
