45
Generated by autodE on: 2022-06-21. E = -1013.958912 Ha
C     4.31814  -0.78140  -2.51637
C     3.56456  -0.98154  -1.41639
C     4.15694  -1.48140  -0.12512
C     2.12730  -0.69130  -1.45362
C     1.27617  -0.87118  -0.42832
C    -0.17816  -0.54409  -0.49634
C    -0.69884   0.49160   0.57587
C     0.28099   0.66982   1.77086
O     1.36965   1.23215   1.62062
N    -0.16565   0.17912   2.93156
C     0.61411   0.17534   4.15057
C    -0.86796   1.87821  -0.06005
O    -1.86413   2.55612   0.09485
O     0.17428   2.24515  -0.79175
C     0.11110   3.53763  -1.41806
N    -1.99293  -0.03062   1.01541
C    -2.45026  -1.04179   0.06448
C    -3.15472  -0.43622  -1.08557
N    -3.70390   0.07640  -1.94932
C    -1.14104  -1.76446  -0.35431
C    -0.72834  -2.73217   0.76209
C    -1.25664  -2.52940  -1.67105
H     5.39366  -0.97972  -2.51614
H     3.87442  -0.41254  -3.44625
H     3.70229  -2.44016   0.17553
H     5.24299  -1.62567  -0.21214
H     3.96043  -0.77012   0.69451
H     1.74194  -0.27916  -2.39347
H     1.64320  -1.27946   0.51590
H    -0.38063  -0.10371  -1.48234
H    -1.06514  -0.29655   2.88191
H    -0.03961   0.35959   5.01456
H     1.37186   0.96758   4.09904
H     1.12765  -0.78902   4.30081
H     0.01340   4.32469  -0.65703
H    -0.74249   3.58335  -2.10908
H     1.05296   3.65123  -1.96621
H    -2.66264   0.72776   1.14401
H    -3.15719  -1.73974   0.53859
H    -1.50205  -3.50389   0.89258
H     0.21149  -3.23829   0.49898
H    -0.58345  -2.22581   1.72487
H    -0.28329  -2.97470  -1.92665
H    -1.99264  -3.34407  -1.58596
H    -1.55624  -1.87527  -2.50319
