23
Generated by autodE on: 2022-06-21. E = -351.521380 Ha
C     3.26346  -0.19402   1.89989
C     2.43380   0.08398   0.87017
C     2.94618   0.70704  -0.40312
C     1.00845  -0.22039   0.97891
C     0.07520   0.00770   0.02081
C    -1.32799  -0.31524   0.18107
C    -2.31879  -0.12390  -0.72633
C    -2.11642   0.47357  -2.08982
C    -3.73613  -0.51010  -0.41059
H     2.88778  -0.64656   2.82282
H     4.33400   0.02249   1.84548
H     2.73869   0.06161  -1.27280
H     4.03019   0.88172  -0.35332
H     2.44871   1.67092  -0.60187
H     0.68645  -0.67297   1.92455
H     0.38799   0.45956  -0.92449
H    -1.60394  -0.76186   1.14400
H    -2.72566   1.38819  -2.20030
H    -2.47010  -0.22457  -2.86889
H    -1.07197   0.72987  -2.30902
H    -4.40598   0.36556  -0.48444
H    -4.11443  -1.24528  -1.14351
H    -3.83580  -0.94000   0.59691
