22
Generated by autodE on: 2022-06-21. E = -662.390162 Ha
C     2.68538  -2.75259   0.17114
N     1.43832  -2.04151  -0.02335
C     1.34139  -0.72639   0.21299
O     2.31256  -0.04661   0.60858
C     0.04180  -0.03838   0.00012
N     0.15286   1.27736   0.28603
C    -0.69118   2.29218   0.25979
C    -0.24399   3.57659   0.63362
N     0.09263   4.65264   0.93642
C    -1.23008  -0.57645  -0.44144
O    -2.24710   0.09196  -0.58983
O    -1.20326  -1.90249  -0.67927
C    -2.42631  -2.50919  -1.11758
H     3.48051  -2.35560  -0.48013
H     2.52855  -3.81092  -0.06954
H     3.03375  -2.67416   1.21332
H     0.60865  -2.53228  -0.34315
H     1.13453   1.45636   0.58252
H    -1.72201   2.12897  -0.04747
H    -2.75790  -2.06545  -2.06730
H    -2.20003  -3.57277  -1.25444
H    -3.21249  -2.38187  -0.35964
