45
Generated by autodE on: 2022-06-21. E = -1013.895782 Ha. Imaginary frequency = -337.1 cm-1
C     4.44691   0.10636  -0.97203
C     3.48059  -0.65581  -0.40869
C     3.77163  -1.53154   0.78323
C     2.12797  -0.63163  -0.94686
C     1.05510  -1.26333  -0.39178
C    -0.26890  -1.22055  -0.93476
C    -0.77879   0.81475   0.72204
C     0.25812   0.79505   1.78919
O     0.01775   0.16808   2.84394
N     1.42478   1.41756   1.56712
C     2.53769   1.35573   2.48953
C    -0.77278   1.59501  -0.50148
O    -1.76302   1.83895  -1.17954
O     0.45454   2.03800  -0.85027
C     0.56909   2.73033  -2.09791
N    -1.89792   0.14591   1.11550
C    -2.72511  -0.62854   0.35953
C    -3.48233  -0.15917  -0.76390
N    -4.21421   0.03918  -1.64735
C    -1.35129  -2.02926  -0.50981
C    -1.15290  -2.91035   0.70650
C    -2.22706  -2.63023  -1.59156
H     5.46745   0.11597  -0.57978
H     4.23357   0.73834  -1.83965
H     3.58432  -2.59205   0.54586
H     3.12012  -1.28017   1.63420
H     4.81672  -1.42822   1.10716
H     1.97558  -0.03890  -1.85491
H     1.20130  -1.83505   0.52711
H    -0.38795  -0.70343  -1.89306
H     1.55153   1.85559   0.65895
H     2.47077   0.44564   3.09885
H     2.55331   2.22414   3.17029
H     3.47790   1.34399   1.92134
H    -0.03923   3.64600  -2.09198
H     0.24762   2.08282  -2.92631
H     1.63098   2.98026  -2.20416
H    -1.73105  -0.23209   2.05677
H    -3.33113  -1.30927   0.96593
H    -0.74183  -2.34983   1.55847
H    -0.44819  -3.72723   0.47444
H    -2.10214  -3.36947   1.01831
H    -1.74177  -3.54710  -1.96918
H    -3.21864  -2.91843  -1.21047
H    -2.35886  -1.94810  -2.44285
