58
Generated by autodE on: 2022-06-11. E = -1363.316367 Ha
C    -0.42994   4.41759   1.14917
N    -0.10647   3.33893   0.23573
C     0.93955   2.52830   0.45285
O     1.79089   2.72421   1.32090
C     1.03755   1.33800  -0.53920
C     1.85560   1.85180  -1.74184
C     1.31657   1.58339  -3.11114
O     2.90423   2.43529  -1.53517
O    -0.24248   0.92747  -0.98316
C    -0.76177  -0.09479  -0.09748
C    -1.70782  -0.97874  -0.89308
C    -1.75588  -0.93404  -2.29016
C    -2.59177  -1.80744  -2.99575
C    -3.37846  -2.73789  -2.31313
C    -3.32980  -2.78835  -0.91496
C    -2.50356  -1.91145  -0.21097
C    -1.50794   0.62386   1.03806
C    -2.71867   1.26396   0.72193
C    -3.39416   2.03137   1.66973
C    -2.87282   2.16867   2.96180
C    -1.67190   1.53743   3.28684
C    -0.99235   0.77223   2.33049
C     0.49878  -0.86617   0.37784
C     0.94280  -2.08299  -0.49550
O     1.60716  -1.44425  -1.59610
C     2.59101  -0.76919  -0.79631
C     3.14206  -1.89256   0.07567
C     4.50528  -1.86874   0.67195
C     2.10162  -2.72636   0.26130
C     1.94127  -3.92140   1.13335
C     1.69268   0.10596   0.13329
H    -1.38473   4.86424   0.84740
H    -0.52053   4.04759   2.18264
H     0.34797   5.19629   1.13102
H    -0.82779   2.98921  -0.38773
H     1.15385   0.50220  -3.23457
H     2.01820   1.96172  -3.86529
H     0.33419   2.06783  -3.22446
H    -1.13830  -0.21571  -2.82730
H    -2.62410  -1.75849  -4.08693
H    -4.02846  -3.42063  -2.86547
H    -3.94089  -3.51231  -0.37059
H    -2.47128  -1.95323   0.88003
H    -3.12888   1.16674  -0.28526
H    -4.33207   2.52348   1.40148
H    -3.39990   2.76815   3.70761
H    -1.25064   1.64142   4.28942
H    -0.04567   0.31056   2.60961
H     0.38808  -1.18431   1.41755
H     0.14255  -2.74522  -0.83908
H     3.31435  -0.23054  -1.41822
H     5.28511  -1.83812  -0.10848
H     4.68813  -2.74364   1.31276
H     4.64207  -0.96088   1.28653
H     1.59386  -4.79579   0.55643
H     1.17575  -3.73414   1.90782
H     2.87951  -4.18917   1.64098
H     2.22817   0.41883   1.03494
