19
Generated by autodE on: 2022-06-11. E = -386.192008 Ha
C    -1.62112   1.88879  -0.15258
C    -0.73140   0.72502   0.10236
C    -0.83076  -0.57110  -0.23406
C    -1.86833  -1.32585  -0.98565
C     0.52163  -1.19178   0.20674
C     1.61065  -0.62583  -0.73403
C     1.70934   0.66520  -0.39948
C     0.67849   0.85470   0.73759
O     0.78756  -0.42266   1.39679
H    -1.87036   2.42067   0.78219
H    -2.56013   1.58790  -0.64066
H    -1.11726   2.62517  -0.80533
H    -2.73605  -0.69578  -1.23180
H    -2.22525  -2.20103  -0.41513
H    -1.45206  -1.71902  -1.93133
H     0.53228  -2.27119   0.39960
H     2.11162  -1.18099  -1.52683
H     2.31337   1.45637  -0.84325
H     0.83611   1.69229   1.42754
