39
Generated by autodE on: 2022-06-11. E = -977.006402 Ha
C     1.95627  -2.37593   2.01065
N     1.90628  -1.23221   1.12100
C     1.98485  -1.38674  -0.22420
O     2.37764  -2.45515  -0.72112
C     1.63351  -0.22120  -1.05420
O     0.62114   0.64651  -0.72095
C    -0.46481   0.53334  -0.02268
C    -0.93505  -0.75448   0.49818
C    -0.95981  -1.88862  -0.33719
C    -1.43150  -3.10299   0.15378
C    -1.85618  -3.20839   1.48424
C    -1.82603  -2.08823   2.31983
C    -1.37872  -0.86176   1.82912
C    -1.18377   1.78206   0.17098
C    -0.52718   3.01743  -0.03625
C    -1.21776   4.21401   0.12301
C    -2.56879   4.20431   0.49409
C    -3.22842   2.98786   0.70131
C    -2.54692   1.78364   0.54254
C     2.38069   0.18902  -2.20000
C     1.92563   1.45092  -2.91333
O     3.36973  -0.44464  -2.62261
H     2.97103  -2.80084   2.07276
H     1.27642  -3.17135   1.66588
H     1.64861  -2.05857   3.01448
H     1.58399  -0.35120   1.50480
H    -0.61867  -1.81478  -1.37085
H    -1.46233  -3.97540  -0.50209
H    -2.20970  -4.16757   1.86885
H    -2.15131  -2.16922   3.35902
H    -1.34552   0.01108   2.48268
H     0.52985   3.02457  -0.30362
H    -0.69980   5.16280  -0.03222
H    -3.10638   5.14636   0.62312
H    -4.28388   2.97759   0.98095
H    -3.07614   0.84085   0.68038
H     0.90689   1.33369  -3.31562
H     2.62130   1.65548  -3.73790
H     1.90376   2.31451  -2.22970
