20
Generated by autodE on: 2022-06-04. E = -3089.223550 Ha
C     3.70580  -1.18510  -0.01792
N     2.38007  -0.67269   0.26352
C     1.27437  -1.44340   0.30454
O     1.28124  -2.67327   0.14677
C    -0.01338  -0.76573   0.55374
C    -0.53936   0.41828   0.19999
Br    0.20675   1.86663  -0.72218
C    -2.05394   0.32439   0.51682
C    -2.64748  -0.67875  -0.50030
C    -2.13884  -1.86117  -0.14301
C    -1.24226  -1.55680   1.07731
O    -1.98687  -0.48967   1.69332
H     4.10712  -0.75413  -0.94898
H     4.39995  -0.94671   0.80262
H     3.64767  -2.27387  -0.12868
H     2.27793   0.32351   0.42376
H    -2.58308   1.26871   0.68144
H    -3.28778  -0.41175  -1.33987
H    -2.24649  -2.84025  -0.60772
H    -1.02469  -2.37481   1.77067
