43
Generated by autodE on: 2022-06-05. E = -1849.068712 Ha
C    -4.06135   2.47284  -2.08172
O    -2.97767   1.92714  -1.31060
C    -2.34257   0.88124  -1.82490
O    -2.61370   0.38158  -2.89507
C    -1.26292   0.33618  -0.85900
C    -2.04839  -0.40299   0.22124
C    -2.66568  -1.62021  -0.10053
C    -3.39104  -2.31869   0.86603
C    -3.51505  -1.80147   2.15931
C    -2.91907  -0.57735   2.47491
C    -2.19307   0.12374   1.50896
N    -0.52083   1.49379  -0.32416
C     0.65003   1.52550  -0.83685
C     1.62957   2.62516  -0.53569
C     1.20774   3.72746   0.38402
O     2.73421   2.56381  -1.05390
C     1.00769   0.39667  -1.76106
C     2.14332  -0.58116  -1.29880
O     1.63489  -1.82404  -1.80693
C     0.40369  -1.82011  -1.06672
C     0.93757  -1.58264   0.34652
Cl    0.24349  -2.24066   1.76581
C     2.02562  -0.80720   0.20818
C     2.88536  -0.19462   1.25756
F     2.36558   0.96471   1.73360
F     4.10601   0.10366   0.77964
F     3.04920  -1.00041   2.31751
C    -0.23760  -0.51494  -1.65514
H    -4.84662   1.71609  -2.22096
H    -4.44569   3.31910  -1.50139
H    -3.69954   2.81383  -3.06199
H    -2.57671  -2.02587  -1.11035
H    -3.85969  -3.27108   0.60765
H    -4.07821  -2.35003   2.91796
H    -3.01478  -0.16526   3.48229
H    -1.72144   1.07361   1.75721
H     2.02417   4.45186   0.49587
H     0.30727   4.22435  -0.00878
H     0.93911   3.30668   1.36541
H     1.22591   0.75409  -2.77627
H     3.14390  -0.36045  -1.67962
H    -0.16549  -2.74137  -1.21647
H    -0.64445  -0.78214  -2.63415
