27
Generated by autodE on: 2022-06-05. E = -744.617469 Ha
C     1.13590   3.81551   0.84814
O     1.02844   2.40043   0.64959
C    -0.20892   1.91421   0.45853
O    -1.20390   2.61829   0.45203
C    -0.19760   0.45150   0.25686
N     0.97184  -0.12177   0.24484
C     2.00142  -0.72262   0.28829
C     3.05311  -1.28892  -0.54050
C     4.30815  -0.47616  -0.65145
O     2.88285  -2.39678  -1.03569
C    -1.39039  -0.38802   0.03743
C    -1.23042  -1.70651  -0.44249
C    -2.33541  -2.53281  -0.63780
C    -3.62589  -2.06523  -0.36618
C    -3.79518  -0.76114   0.10699
C    -2.69421   0.07294   0.31006
H     2.20403   4.01952   0.98618
H     0.57226   4.12498   1.74039
H     0.75638   4.35940  -0.02919
H     4.89982  -0.60910   0.27023
H     4.07770   0.59573  -0.75008
H     4.89431  -0.83112  -1.51004
H    -0.23322  -2.08689  -0.67320
H    -2.18664  -3.54839  -1.01204
H    -4.49158  -2.71236  -0.52429
H    -4.79709  -0.38453   0.32666
H    -2.84099   1.08332   0.68415
