43
Generated by autodE on: 2022-06-05. E = -1848.958189 Ha. Imaginary frequency = -307.4 cm-1
C    -2.29052   2.14492  -3.55012
O    -1.78108   1.90571  -2.23317
C    -2.32663   0.88394  -1.55448
O    -3.28081   0.24931  -1.97234
C    -1.66901   0.67142  -0.24047
C    -2.26167  -0.09514   0.86472
C    -3.28408  -1.04412   0.66658
C    -3.75929  -1.80195   1.73785
C    -3.23407  -1.63131   3.02178
C    -2.22257  -0.68656   3.22920
C    -1.74142   0.07206   2.16587
N    -0.57968   1.36940  -0.01621
C     0.54334   1.67390  -0.37601
C     1.38018   2.87460  -0.17277
C     1.51201   3.35119   1.24497
O     1.91606   3.40414  -1.13261
C     1.17412   0.50011  -2.02298
C     2.35436  -0.33391  -1.43682
O     2.23735  -1.54975  -2.20344
C     0.85215  -1.78140  -1.87196
C     0.95060  -1.74325  -0.33478
Cl   -0.05823  -2.65476   0.70233
C     1.90565  -0.84415  -0.05045
C     2.45281  -0.41633   1.26074
F     1.49412  -0.13701   2.17025
F     3.21292   0.69228   1.13142
F     3.23683  -1.35960   1.82196
C     0.23097  -0.45244  -2.31884
H    -1.71543   2.99041  -3.94489
H    -2.14750   1.25938  -4.18678
H    -3.35984   2.39793  -3.51206
H    -3.68879  -1.19697  -0.33069
H    -4.54678  -2.53892   1.56284
H    -3.60934  -2.22919   3.85549
H    -1.80411  -0.54030   4.22778
H    -0.95104   0.80349   2.33817
H     0.61045   3.94184   1.48339
H     2.39930   3.99198   1.33553
H     1.55739   2.51490   1.95459
H     1.32051   1.45804  -2.52674
H     3.35351   0.10641  -1.50033
H     0.45361  -2.70168  -2.30912
H    -0.67512  -0.37776  -2.91160
