27
Generated by autodE on: 2022-12-31. E = -628.649080 Ha
C     5.02905   0.79175  -0.30992
N     3.91058   0.12609   0.32411
C     2.62694   0.30646  -0.05122
O     2.29329   1.05824  -0.99093
C     1.59651  -0.43239   0.70509
C     1.78819  -1.33313   1.87164
N     0.37739  -0.24271   0.22565
N    -0.71149  -0.82692   0.63812
C    -1.89365  -0.33891   0.09468
C    -2.04457   0.91472  -0.54453
C    -3.28312   1.30067  -1.05997
C    -4.40204   0.46952  -0.93993
C    -4.26851  -0.76173  -0.28400
C    -3.03665  -1.15993   0.22821
H     4.65814   1.39102  -1.14901
H     5.75663   0.05822  -0.69111
H     5.54946   1.45760   0.39747
H     4.11205  -0.51877   1.07983
H     2.75797  -1.18397   2.36316
H     1.70828  -2.39526   1.57702
H     0.99253  -1.15176   2.61208
H     0.36583   0.42470  -0.56798
H    -1.20656   1.61194  -0.61528
H    -3.37623   2.27400  -1.54870
H    -5.36865   0.78180  -1.34107
H    -5.13463  -1.41932  -0.17381
H    -2.92482  -2.12102   0.73474
