43
Generated by autodE on: 2022-12-31. E = -1090.802231 Ha
C    -3.84762  -3.30030   2.51083
N    -3.00535  -2.12363   2.44704
C    -2.27816  -1.77947   1.37577
O    -2.24027  -2.40625   0.31312
C    -1.51134  -0.44296   1.52315
O    -1.29153  -0.10668   2.88498
C    -0.24165  -0.81241   3.53498
C    -0.27300  -0.43853   0.73254
C     0.57779   0.00437  -0.00594
C     1.24109   0.95278  -0.89401
C     1.09122   0.60151  -2.38403
O     1.76035   1.14092  -3.23973
O     0.14388  -0.29247  -2.62134
C    -0.10049  -0.63284  -3.99848
C     2.75516   1.02461  -0.62541
O     3.35109   2.01868  -0.28238
O     3.32042  -0.16305  -0.82479
C     4.74378  -0.24925  -0.63706
C     0.56676   2.33878  -0.64052
C    -0.97446   2.33975  -0.61887
C    -1.69105   2.04902   0.73011
C    -2.38919   0.68742   0.91520
H    -4.90130  -3.02229   2.67008
H    -3.53493  -3.96233   3.33297
H    -3.76523  -3.84668   1.56360
H    -2.93157  -1.51768   3.25955
H     0.74188  -0.53757   3.11845
H    -0.36876  -1.90546   3.45425
H    -0.27588  -0.52596   4.59481
H    -0.90951  -1.37142  -3.98330
H    -0.40563   0.26098  -4.56033
H     0.80539  -1.06304  -4.44783
H     5.00753   0.01585   0.39647
H     5.25911   0.42509  -1.33565
H     5.01133  -1.29130  -0.84431
H     0.93468   3.01864  -1.42327
H     0.95601   2.71463   0.31683
H    -1.27071   3.35345  -0.92852
H    -1.36555   1.67031  -1.40306
H    -1.00021   2.21896   1.57214
H    -2.48120   2.80684   0.84389
H    -3.24605   0.79732   1.59806
H    -2.78198   0.32501  -0.04674
