35
Generated by autodE on: 2022-06-07. E = -824.512226 Ha
C    -1.47497   3.17357   1.13730
O    -1.10953   2.09582   0.27366
C    -0.03184   1.37710   0.63242
O     0.71557   1.73435   1.53055
C     0.22558   0.21763  -0.23778
C     1.59331  -0.31355  -0.30323
C     1.81170  -1.70745  -0.33876
C     3.10383  -2.22918  -0.39042
C     4.20979  -1.37264  -0.39745
C     4.00910   0.01182  -0.35254
C     2.71857   0.53741  -0.30653
N    -0.76824  -0.34314  -0.97429
C    -0.43658  -0.90787  -2.30046
C    -2.07361  -0.44186  -0.57239
C    -3.13166  -0.69668  -1.60477
C    -2.36521  -0.54876   0.83790
C    -3.71499  -1.11900   1.22753
O    -1.55080  -0.26366   1.73853
H    -1.64642   2.80561   2.15965
H    -2.40350   3.58945   0.72794
H    -0.69300   3.94729   1.15608
H     0.95706  -2.38628  -0.30966
H     3.24840  -3.31196  -0.41329
H     5.22235  -1.78099  -0.43417
H     4.86652   0.68905  -0.36131
H     2.57690   1.61851  -0.28498
H    -1.00869  -0.36220  -3.06152
H     0.62719  -0.77161  -2.50322
H    -0.70070  -1.97149  -2.34686
H    -3.14422  -1.74105  -1.96537
H    -4.12552  -0.47621  -1.19851
H    -2.99240  -0.05095  -2.48459
H    -4.50714  -0.37443   1.04100
H    -3.97655  -2.02538   0.66174
H    -3.69797  -1.34557   2.30165
