48
Generated by autodE on: 2022-06-07. E = -3705.596855 Ha. Imaginary frequency = -193.9 cm-1
C     1.77381  -0.36313   4.67087
O     1.49125  -0.95538   3.39896
C     1.11168  -0.11067   2.41913
O     1.21266   1.09823   2.51661
C     0.93290  -0.87368   1.12963
C     2.13477  -0.77316   0.26289
C     2.12220  -1.17394  -1.09345
C     3.24740  -1.03315  -1.90322
C     4.42692  -0.48314  -1.39231
C     4.46306  -0.08067  -0.05470
C     3.34006  -0.22515   0.75957
C    -0.72416   0.67690   0.10334
C    -0.46091   0.48795  -1.40056
O    -1.01483  -0.82399  -1.60024
C    -2.32367  -0.50095  -1.07925
C    -2.69353   0.70547  -1.97464
C    -1.52203   1.31972  -2.16089
Br   -1.12800   2.94684  -3.00788
C    -1.93959   0.07220   0.29530
C    -1.17667  -2.07177   1.51296
C    -2.00478  -3.21497   0.99098
C    -1.70958  -1.25108   2.57990
C    -3.13702  -1.49227   3.03216
O    -1.05507  -0.37080   3.16811
N     0.13117  -1.99100   1.08488
C     0.63803  -3.20208   0.39849
H     2.02364  -1.19195   5.34419
H     0.89163   0.17515   5.04663
H     2.62277   0.33285   4.59983
H     1.21626  -1.58753  -1.52794
H     3.19599  -1.35011  -2.94750
H     5.30702  -0.36992  -2.02927
H     5.37706   0.34442   0.36660
H     3.41773   0.08892   1.79982
H    -0.27097   1.46143   0.70265
H     0.56587   0.57297  -1.76471
H    -2.99832  -1.36310  -1.10517
H    -3.69751   0.99679  -2.27767
H    -2.67311   0.30871   1.05982
H    -1.80942  -4.16438   1.52072
H    -3.06974  -2.99301   1.11118
H    -1.83125  -3.38861  -0.07885
H    -3.86103  -1.38545   2.21093
H    -3.25148  -2.50825   3.44263
H    -3.37298  -0.76110   3.81608
H     1.72894  -3.17202   0.37495
H     0.33367  -4.07767   0.98205
H     0.24847  -3.30120  -0.62078
