33
Generated by autodE on: 2022-06-17. E = -910.810590 Ha
C     2.92150  -1.70368   1.16680
N     2.26914  -0.79890   0.22306
C     2.99251   0.33888  -0.11237
C     2.46475   1.45573  -0.64555
C     1.00676   1.52089  -0.96502
C     0.16191   0.66336   0.01660
C    -0.21617   1.52334   1.21836
N     0.80324   1.88274   2.01616
O    -1.38300   1.87265   1.41165
C     0.83250  -0.69781   0.42114
C    -0.03754  -1.71355  -0.38328
C     0.46285  -3.09896  -0.65214
N    -0.47081  -0.95360  -1.53027
C    -1.10241   0.12499  -0.74938
C    -1.84374   1.12144  -1.50295
N    -2.44569   1.91085  -2.10074
C    -1.98428  -0.69564   0.22880
O    -3.07464  -0.46318   0.67807
O    -1.28384  -1.81534   0.45594
H     2.42844  -2.68292   1.16618
H     2.90071  -1.30650   2.19964
H     3.96829  -1.85285   0.86890
H     4.06456   0.25850   0.08293
H     3.11469   2.29397  -0.89867
H     0.63275   2.55555  -0.94604
H     0.82744   1.14092  -1.98394
H     1.76674   1.68206   1.76181
H     0.62142   2.52442   2.78278
H     0.62376  -0.88934   1.48430
H     1.41524  -3.05009  -1.19548
H    -0.27120  -3.64627  -1.26152
H     0.61281  -3.64035   0.29080
H    -1.16411  -1.47360  -2.07541
