20
Generated by autodE on: 2022-06-17. E = -457.715320 Ha
C    -2.93168  -1.18940   0.30952
N    -1.80339  -0.31065   0.04844
C    -2.02389   0.93266  -0.55729
C    -1.02429   1.76659  -0.88502
C     0.42964   1.44969  -0.63511
C     0.57154   0.07927   0.00703
C     1.89289  -0.47304   0.34580
N     2.95992   0.31031   0.04756
O     2.05661  -1.59085   0.87633
C    -0.51778  -0.68772   0.29529
H    -3.41658  -1.50839  -0.62830
H    -2.58127  -2.08189   0.84273
H    -3.68525  -0.68245   0.93266
H    -3.07237   1.17393  -0.74155
H    -1.27633   2.72196  -1.35097
H     0.88543   2.23471   0.00282
H     0.99911   1.50309  -1.58563
H     3.89000  -0.03509   0.25731
H     2.86725   1.22027  -0.38545
H    -0.38661  -1.66829   0.75549
