33
Generated by autodE on: 2022-06-17. E = -910.762475 Ha. Imaginary frequency = -461.8 cm-1
C     3.25375  -1.70153   0.45945
N     2.35089  -0.64163   0.04756
C     2.55557  -0.01730  -1.17608
C     1.90630   1.10885  -1.52454
C     1.03099   1.81722  -0.52387
C     0.47891   0.85774   0.51279
C    -0.36335   1.49511   1.55194
N    -0.67563   0.79425   2.67191
O    -0.72830   2.67457   1.41720
C     1.11907  -0.41248   0.72069
C    -0.10904  -1.69581   0.08557
C     0.40494  -3.08486   0.29282
N    -0.36930  -1.24246  -1.20488
C    -1.23055  -0.18930  -1.05872
C    -1.52482   0.76354  -2.04774
N    -1.75169   1.58983  -2.83749
C    -1.96952  -0.40196   0.16683
O    -2.95592   0.11748   0.63819
O    -1.27961  -1.42475   0.80463
H     2.96663  -2.06622   1.45340
H     4.28549  -1.31953   0.52428
H     3.25381  -2.55754  -0.23719
H     3.27035  -0.51189  -1.84023
H     2.06171   1.54368  -2.51280
H     1.61273   2.59892   0.00935
H     0.21641   2.37307  -1.01255
H    -1.36576   1.21050   3.28933
H    -0.57664  -0.21308   2.71595
H     1.15401  -0.76739   1.75481
H     1.21745  -3.29834  -0.41114
H    -0.41344  -3.79858   0.11516
H     0.77070  -3.21007   1.31957
H     0.37228  -1.22861  -1.90532
