31
Generated by autodE on: 2022-05-29. E = -1541.582864 Ha
C     4.50263   0.46454   0.25829
O     3.24074   1.01545  -0.15177
C     2.33687   0.16003  -0.62178
O     2.54315  -1.01736  -0.81215
C     1.02171   0.88753  -0.91242
O     0.33587   0.35309  -2.02597
N    -0.67354  -0.60351  -1.61923
C    -0.22202  -1.93924  -2.00232
C    -1.03003  -0.26504  -0.23501
C    -1.18358  -1.49129   0.67761
F    -0.04382  -2.17762   0.83983
F    -2.09517  -2.34336   0.16637
F    -1.62664  -1.15022   1.89260
C    -2.37164   0.58995  -0.15066
C    -2.34694   1.56263  -1.31691
C    -1.44500   2.48957  -0.97537
C    -0.94269   2.07386   0.39716
O    -2.08684   1.43367   0.96500
C     0.00521   0.82760   0.23873
Cl    0.81637   0.54979   1.83496
H     5.10330   1.31212   0.60684
H     4.35052  -0.25694   1.07416
H     4.99705  -0.03329  -0.58766
H     1.26614   1.93170  -1.15370
H     0.03661  -1.89013  -3.06827
H    -1.06328  -2.63413  -1.89687
H     0.64587  -2.30644  -1.43979
H    -3.27652  -0.00611   0.00461
H    -2.89759   1.44747  -2.24877
H    -1.06110   3.32686  -1.55650
H    -0.52947   2.84834   1.05048
