15
Generated by autodE on: 2022-07-26. E = -437.128327 Ha
C    -1.53369  -1.63601   0.40868
N    -2.06945  -1.03084  -0.76359
O    -1.61295   0.17650  -1.01363
C    -0.63046   0.85950  -0.46180
C     0.61658   0.31379   0.03683
O     1.06155  -0.80369  -0.19603
O     1.29859   1.25418   0.72094
C     2.63016   0.90872   1.12014
H    -1.44493  -0.87945   1.22140
H    -2.22818  -2.43690   0.69348
H    -0.51834  -2.05812   0.29143
H    -0.71100   1.92683  -0.67111
H     3.03622   1.79631   1.61941
H     3.24533   0.65247   0.24455
H     2.61821   0.05685   1.81613
