16
Generated by autodE on: 2022-05-29. E = -1104.339457 Ha
F     2.18494   0.11461   0.89597
C     1.59620  -0.40906  -0.18857
F     2.34838  -0.06997  -1.25708
F     1.67912  -1.75543  -0.08090
C     0.18925   0.02160  -0.35057
C    -0.64534   0.67293   0.46823
Cl   -0.41677   1.34502   2.02447
C    -2.03441   0.61202  -0.22006
C    -2.49483  -0.86082  -0.13526
C    -1.67185  -1.51997  -0.95524
C    -0.72360  -0.43871  -1.52024
O    -1.61611   0.68655  -1.58930
H    -2.74488   1.39723   0.05609
H    -3.28620  -1.23102   0.51479
H    -1.60092  -2.58528  -1.17026
H    -0.22275  -0.63884  -2.47301
