49
Generated by autodE on: 2022-06-21. E = -1020.935898 Ha
C    -3.35844   2.17914   1.52046
C    -2.26357   2.79995   0.71338
O    -1.78871   3.89364   0.93139
C    -1.73239   1.97625  -0.50561
C    -2.41800   2.52800  -1.69287
N    -2.97764   2.95674  -2.61470
C    -0.19422   2.05188  -0.65442
C     0.28906   0.67864  -0.13646
C     0.38956   0.71208   1.39338
C     1.58399   0.29004  -0.79832
C     2.67656  -0.21263  -0.19034
C     3.88476  -0.58827  -0.90627
C     5.01003  -1.12506  -0.37577
C     6.18390  -1.47151  -1.24844
C     5.20062  -1.42535   1.08455
C    -0.92181  -0.23664  -0.59685
C    -0.89502  -0.59290  -2.08608
C    -1.06832  -1.48673   0.25207
C    -2.10623  -1.62834   1.18305
C    -2.19765  -2.77442   1.97967
C    -1.25049  -3.79443   1.86138
C    -0.21232  -3.66173   0.93348
C    -0.12484  -2.52118   0.13228
O    -2.07232   0.61115  -0.36169
H    -4.14215   1.77822   0.85999
H    -3.77171   2.92094   2.21536
H    -2.95136   1.32667   2.08710
H     0.07761   2.19268  -1.70712
H     0.21088   2.89375  -0.08088
H    -0.57461   0.96894   1.85406
H     0.69588  -0.25818   1.80488
H     1.12621   1.46763   1.70238
H     1.61621   0.43356  -1.88369
H     2.66530  -0.36202   0.89170
H     3.86491  -0.41888  -1.98962
H     7.08846  -0.92732  -0.92245
H     5.99903  -1.23620  -2.30690
H     6.42845  -2.54590  -1.16726
H     4.33435  -1.16382   1.70578
H     5.41458  -2.49916   1.22871
H     6.08012  -0.88340   1.47477
H    -1.85603  -1.05629  -2.35302
H    -0.09229  -1.30444  -2.31694
H    -0.75264   0.29739  -2.71497
H    -2.84681  -0.83693   1.28760
H    -3.01621  -2.86691   2.69780
H    -1.32055  -4.68824   2.48585
H     0.53527  -4.45195   0.82986
H     0.69435  -2.43244  -0.58204
