31
Generated by autodE on: 2022-10-23. E = -618.602857 Ha
C    -2.30553   2.67896  -0.46152
O    -1.13048   1.88978  -0.29070
C    -1.23416   0.54597  -0.38535
C    -0.19676  -0.33755  -0.30565
C     1.22516  -0.08770  -0.08805
C     2.08344  -1.14036   0.30537
C     3.44554  -0.92414   0.52228
C     3.99862   0.34853   0.34989
C     3.16573   1.40327  -0.04291
C     1.80380   1.19361  -0.25672
C    -0.85822  -1.71562  -0.22360
C    -1.51344  -1.81965   1.18960
C    -2.66789  -0.77772   1.10711
C    -2.53957  -0.23022  -0.35467
C    -2.10481  -1.50307  -1.10200
H    -1.98793   3.72599  -0.37362
H    -2.75422   2.51928  -1.45493
H    -3.05254   2.46239   0.31812
H     1.67605  -2.14219   0.44957
H     4.08000  -1.75961   0.82965
H     5.06483   0.51736   0.51824
H     3.58290   2.40375  -0.18530
H     1.17324   2.02689  -0.56373
H    -0.21314  -2.56278  -0.48693
H    -0.78961  -1.59721   1.98669
H    -1.90470  -2.83394   1.36331
H    -2.57774   0.02877   1.84883
H    -3.65152  -1.25187   1.24368
H    -3.42782   0.29477  -0.72257
H    -1.86290  -1.32024  -2.15920
H    -2.84049  -2.31866  -1.02172
