27
Generated by autodE on: 2022-10-23. E = -687.350711 Ha
N    -0.54325   4.69772  -1.24922
C    -0.38491   3.54305  -1.35090
C    -0.19198   2.19281  -1.69587
N    -0.08663   1.24403  -0.91618
C     0.00990   0.15513  -0.24852
C    -1.24340  -0.55561   0.09858
C    -1.26692  -1.95691   0.22328
C    -2.46343  -2.61596   0.50921
C    -3.64776  -1.89091   0.67456
C    -3.63249  -0.49773   0.54624
C    -2.44073   0.16672   0.25898
C     1.35919  -0.32150   0.13713
C     2.46961  -0.01639  -0.67152
C     3.74561  -0.44449  -0.30785
C     3.93336  -1.17494   0.87096
C     2.83606  -1.47244   1.68499
C     1.55541  -1.05057   1.32405
H    -0.35336  -2.53402   0.07711
H    -2.47018  -3.70470   0.59746
H    -4.58132  -2.41045   0.90227
H    -4.55320   0.07537   0.67655
H    -2.43169   1.25529   0.17015
H     2.32785   0.55252  -1.59288
H     4.59824  -0.20845  -0.94855
H     4.93381  -1.50860   1.15566
H     2.97703  -2.03277   2.61200
H     0.70895  -1.27470   1.97408
