58
Generated by autodE on: 2022-10-23. E = -1305.948201 Ha. Imaginary frequency = -325.9 cm-1
C    -0.64666   2.25889  -1.46527
O     0.37622   1.62871  -0.70271
C     0.52008   0.28821  -0.80359
C     0.15042  -0.49788  -2.04694
C     1.35973  -0.30573  -3.02238
C     2.49913  -1.10278  -2.31927
C     1.80740  -1.63108  -1.02532
C     0.40110  -1.93337  -1.56225
C     1.55895  -0.40085  -0.13806
C     2.67920   0.23229   0.59916
C     3.88378  -0.48120   0.78090
C     4.95361   0.06673   1.49084
C     4.85370   1.34516   2.04721
C     3.66775   2.06645   1.87947
C     2.59746   1.52248   1.16674
C     0.59972  -1.30846   1.60887
C     1.43528  -2.01758   2.48582
N     2.27098  -2.57082   3.08728
N    -0.60260  -1.05975   1.64291
C    -1.54009  -0.42126   0.91561
C    -2.44144  -1.29726   0.14181
C    -3.09737  -0.84194  -1.02118
C    -3.88439  -1.70652  -1.78157
C    -4.03613  -3.04621  -1.40782
C    -3.39115  -3.51164  -0.25757
C    -2.60643  -2.65003   0.50862
C    -1.88131   0.95050   1.31991
C    -0.93078   1.74159   2.00080
C    -1.20474   3.06574   2.33716
C    -2.44167   3.63568   2.01740
C    -3.41051   2.85127   1.38056
C    -3.14116   1.52578   1.04420
H    -0.39592   2.26077  -2.53803
H    -0.71182   3.29336  -1.10440
H    -1.61509   1.76400  -1.31813
H    -0.82958  -0.28009  -2.48505
H     1.11693  -0.72667  -4.00999
H     1.60279   0.75763  -3.15989
H     3.37772  -0.48315  -2.09189
H     2.83667  -1.94749  -2.93851
H     2.32690  -2.46317  -0.53399
H     0.41274  -2.65857  -2.38934
H    -0.30146  -2.27415  -0.79561
H     3.98671  -1.48385   0.36640
H     5.87174  -0.51378   1.61144
H     5.68956   1.77383   2.60508
H     3.57096   3.06773   2.30708
H     1.68848   2.10485   1.04673
H    -2.96532   0.18696  -1.35239
H    -4.37370  -1.33030  -2.68313
H    -4.65059  -3.72065  -2.00841
H    -3.50432  -4.55371   0.05113
H    -2.11707  -3.02257   1.41009
H     0.03614   1.31575   2.26480
H    -0.44382   3.65684   2.85251
H    -2.65523   4.67516   2.27639
H    -4.39162   3.27347   1.14998
H    -3.91935   0.93295   0.56566
