20
Generated by autodE on: 2022-06-17. E = -457.715333 Ha
C    -3.10491   0.60996  -0.30236
N    -1.83078  -0.00690   0.02815
C    -1.80761  -1.31360   0.53155
C    -0.66595  -1.96964   0.79282
C     0.69979  -1.36790   0.57134
C     0.57547   0.03332  -0.00428
C     1.76708   0.83181  -0.33270
N     2.96446   0.24256  -0.08700
O     1.71488   1.98331  -0.81118
C    -0.64115   0.60344  -0.23365
H    -3.78532   0.58177   0.56290
H    -3.59570   0.09512  -1.14554
H    -2.93955   1.65826  -0.58098
H    -2.79011  -1.75905   0.69786
H    -0.72957  -2.98599   1.18822
H     1.29794  -2.01890  -0.09853
H     1.26980  -1.35562   1.52320
H     3.81157   0.75859  -0.29775
H     3.04777  -0.68623   0.30596
H    -0.70093   1.61104  -0.64822
