15
Generated by autodE on: 2022-06-17. E = -400.137224 Ha
C     2.68612  -0.68893   0.38219
C     1.26307  -0.34803   0.19708
N     0.20626  -0.97708   0.66468
C    -0.97455  -0.34234   0.26800
C    -2.33512  -0.81335   0.63673
C    -0.60074   0.75499  -0.49850
O    -1.15922   1.67153  -1.10906
O     0.86776   0.69884  -0.50890
H     2.78008  -1.59285   0.99811
H     3.16707  -0.86347  -0.59387
H     3.21702   0.14199   0.87416
H     0.25638  -1.81688   1.23913
H    -2.54974  -1.82811   0.25770
H    -3.07596  -0.12911   0.19836
H    -2.49680  -0.82796   1.72899
