20
Generated by autodE on: 2022-06-24. E = -457.715335 Ha
C    -3.11946  -0.54239   0.27874
N    -1.82787   0.08812   0.06088
C    -1.77336   1.37735  -0.48334
C    -0.61680   1.99091  -0.77972
C     0.73358   1.35514  -0.55930
C     0.57446  -0.04734   0.00487
C     1.74508  -0.89013   0.29602
N     2.95558  -0.34406   0.01716
O     1.66462  -2.04093   0.77227
C    -0.65502  -0.57396   0.26726
H    -3.63599  -0.74485  -0.67479
H    -3.76704   0.10305   0.89227
H    -2.97438  -1.49310   0.80700
H    -2.74446   1.84839  -0.64596
H    -0.65584   3.00005  -1.19621
H     1.30491   1.33730  -1.50989
H     1.34614   1.98624   0.11717
H     3.06101   0.58168  -0.37761
H     3.78893  -0.89294   0.19752
H    -0.74038  -1.58405   0.67123
