51
Generated by autodE on: 2022-06-24. E = -1258.906527 Ha. Imaginary frequency = -387.5 cm-1
C    -4.24511  -2.44874  -1.21225
O    -2.99223  -1.97670  -1.71157
C    -2.09948  -1.55356  -0.79120
O    -2.32417  -1.66274   0.40876
C    -0.89046  -0.97859  -1.38020
C    -0.83062  -0.60548  -2.80599
C     0.45423  -0.81664  -3.58169
O    -1.81424  -0.15430  -3.40076
C    -1.28107   1.49922  -0.59424
C     0.06636   1.69622  -0.23116
C     0.41689   1.80957   1.24348
C    -0.68099   1.27088   2.13637
C    -0.45443   1.00472   3.56945
N     0.77134   1.32259   4.05160
O    -1.32502   0.51180   4.31136
C    -1.93950   1.09461   1.65503
N    -2.26593   1.29482   0.34090
C    -3.64380   1.17485  -0.11934
N     1.02220   0.11129  -0.94648
C     2.40435   0.06466  -0.74924
C     3.13606   1.24490  -0.49765
C     4.52883   1.20892  -0.40771
C     5.23007   0.01090  -0.56694
C     4.51309  -1.16142  -0.83133
C     3.12285  -1.14246  -0.92056
N     0.29151  -0.96698  -0.66313
C     0.43717  -1.61466   0.64324
H    -4.83110  -2.73721  -2.09322
H    -4.10470  -3.31720  -0.55197
H    -4.76791  -1.65432  -0.65833
H     1.19261  -1.43670  -3.06127
H     0.91233   0.15582  -3.81822
H     0.17939  -1.29096  -4.53693
H    -1.62923   1.72188  -1.60097
H     0.61656   2.34985  -0.90665
H     1.36932   1.29256   1.44699
H     0.61732   2.87320   1.48240
H     1.48443   1.76632   3.48697
H     0.96162   1.16369   5.03518
H    -2.75257   0.77502   2.30620
H    -4.25278   0.70121   0.65869
H    -3.67987   0.56612  -1.03309
H    -4.06353   2.16712  -0.35060
H     2.62584   2.19794  -0.37554
H     5.06923   2.13747  -0.20795
H     6.31930  -0.00942  -0.49226
H     5.04117  -2.10729  -0.97574
H     2.58127  -2.06106  -1.14788
H     0.06323  -2.64268   0.59398
H     1.49708  -1.62844   0.91479
H    -0.12236  -1.05633   1.41081
