46
Generated by autodE on: 2022-06-22. E = -1143.391893 Ha
C     4.51516  -0.38051  -0.33525
O     3.37011  -0.45179   0.52776
C     2.19673  -0.12736  -0.00953
O     2.07273   0.15935  -1.18568
C     1.00127  -0.28060   0.96501
C     1.48622  -0.43962   2.40532
N     0.18695  -1.43355   0.54550
C     0.78341  -2.75725   0.55022
C    -0.66606  -1.09849  -0.57443
C    -0.12032  -1.55910  -1.87626
N     0.32631  -1.98205  -2.86024
C    -2.10546  -1.70784  -0.47431
C    -2.70788  -1.88841   0.88230
O    -2.68415  -2.00720  -1.50065
C    -0.75658   0.48510  -0.55099
N    -2.10499   0.98650  -0.70871
C    -2.51845   1.25504  -2.07590
C    -2.75050   1.61463   0.33825
C    -2.26842   1.67746   1.59567
C    -0.97041   1.02687   1.96161
C    -0.00315   0.89741   0.75154
C     0.74107   2.22712   0.58820
N     0.01042   3.27444   0.17012
O     1.94593   2.32653   0.84687
H     4.64926   0.64775  -0.70087
H     4.39562  -1.06115  -1.19008
H     5.37328  -0.68251   0.27594
H     2.22333  -1.24679   2.48380
H     1.96518   0.48823   2.74200
H     0.64944  -0.67530   3.07205
H     1.19534  -2.98150   1.54277
H     0.00622  -3.50575   0.33513
H     1.58922  -2.88011  -0.19998
H    -3.64811  -2.44572   0.78506
H    -2.91727  -0.90302   1.32830
H    -2.01123  -2.40884   1.55330
H    -0.16606   0.84176  -1.40113
H    -2.34506   0.36959  -2.70523
H    -3.59296   1.48202  -2.09696
H    -1.96690   2.10777  -2.51442
H    -3.70633   2.06996   0.06838
H    -2.85177   2.18231   2.36656
H    -1.15435   0.01454   2.35384
H    -0.46754   1.57988   2.76861
H     0.45205   4.18917   0.13810
H    -1.00216   3.22164   0.11702
