26
Generated by autodE on: 2022-06-22. E = -685.646827 Ha
C     3.46651   0.93626   0.93934
O     2.63689   0.38166  -0.09346
C     1.52398  -0.22364   0.30459
O     1.22998  -0.42520   1.46445
C     0.74695  -0.78030  -0.85611
C     1.49734  -1.37964  -1.99597
N    -0.56148  -0.85919  -0.78439
C    -1.28200  -1.67973  -1.77786
C    -1.33936  -0.05005   0.07428
C    -2.57322  -0.55355   0.52385
N    -3.60074  -0.94774   0.92309
C    -0.96763   1.31513   0.31249
C    -1.95637   2.18426   1.05695
O     0.11779   1.78846  -0.07454
H     2.90212   1.68854   1.50872
H     3.81705   0.14509   1.61708
H     4.31452   1.40271   0.42588
H     2.52822  -1.01152  -2.00264
H     1.52663  -2.47935  -1.89816
H     1.02033  -1.14535  -2.95872
H    -1.30011  -1.15039  -2.74091
H    -0.78656  -2.64970  -1.89451
H    -2.30858  -1.83322  -1.43278
H    -1.60910   3.22508   1.02718
H    -2.97024   2.11745   0.63602
H    -2.01306   1.85839   2.10884
