46
Generated by autodE on: 2022-06-22. E = -1143.339821 Ha. Imaginary frequency = -281.7 cm-1
C     4.19213   0.30854  -0.72770
O     3.18344   0.02762   0.25487
C     1.98330  -0.32856  -0.20732
O     1.75855  -0.47598  -1.38975
C     0.97714  -0.48103   0.93106
C     1.57219  -0.29838   2.30824
N     0.05227  -1.49804   0.83457
C    -0.33753  -2.26635   2.02915
C    -0.59497  -1.86771  -0.38728
C     0.12137  -2.64615  -1.32042
N     0.68987  -3.31992  -2.09404
C    -2.01259  -1.78697  -0.48391
C    -2.66710  -2.39073  -1.71735
O    -2.73505  -1.25795   0.39352
C    -0.64645   1.12030  -0.71202
N    -1.92562   1.34314  -0.92653
C    -2.52673   1.10344  -2.23801
C    -2.75416   1.90728   0.07549
C    -2.32704   1.98813   1.33916
C    -1.04212   1.32653   1.73812
C    -0.03487   1.29589   0.59105
C     1.07474   2.31163   0.51488
N     1.42077   2.94639   1.65151
O     1.65627   2.54569  -0.55676
H     5.08952   0.58645  -0.16346
H     3.86924   1.14039  -1.36850
H     4.38689  -0.58101  -1.34305
H     2.17724  -1.18210   2.56545
H     2.22400   0.57699   2.34485
H     0.79149  -0.19084   3.06854
H    -0.70551  -1.63351   2.84640
H    -1.14025  -2.95223   1.74308
H     0.51078  -2.86180   2.40376
H    -3.71122  -2.05359  -1.76818
H    -2.65882  -3.49157  -1.65106
H    -2.14696  -2.11598  -2.64652
H    -0.03793   0.89453  -1.58549
H    -1.77599   0.67304  -2.90900
H    -2.89810   2.05244  -2.65096
H    -3.36921   0.40851  -2.12706
H    -3.71025   2.28400  -0.28659
H    -2.95287   2.46970   2.09282
H    -1.29358   0.28329   1.99991
H    -0.63322   1.78276   2.64654
H     2.19990   3.59634   1.61677
H     1.01637   2.72451   2.55254
