38
Generated by autodE on: 2022-10-07. E = -1250.352565 Ha
C     4.71902   0.28960  -0.92534
N     3.41683   0.46228  -0.31274
C     2.30164   0.54407  -1.04405
O     2.24910   0.55627  -2.27469
C     1.00198   0.58837  -0.19716
C     1.06614   1.76774   0.69669
N     1.07457   2.73380   1.34007
N    -0.16739   0.73287  -1.05072
C    -1.24977  -0.03412  -0.43466
C    -2.29327  -0.40245  -1.51812
C    -3.62117  -0.93902  -1.05376
O    -2.10954  -0.04661  -2.67354
C    -1.99530   0.85573   0.60181
O    -2.54932   0.37793   1.59479
N    -2.01698   2.15894   0.28070
C    -2.49004   3.18392   1.18546
C    -0.58815  -1.23352   0.28119
C    -0.57475  -2.52539  -0.56389
O     0.23590  -3.42053  -0.22558
O    -1.39564  -2.59840  -1.51886
C     0.83759  -0.76277   0.60027
C     1.26168  -0.65254   2.07854
O     0.49198  -1.06297   2.97091
O     2.41547  -0.15446   2.26123
H     5.49588   0.44666  -0.16631
H     4.84206  -0.72104  -1.35084
H     4.86256   1.01890  -1.73565
H     3.27822   0.27686   0.69814
H     0.04172   0.37781  -1.98537
H    -3.54137  -1.53220  -0.13614
H    -4.07325  -1.53339  -1.85827
H    -4.28195  -0.07836  -0.85068
H    -1.39082   2.41603  -0.48011
H    -1.69447   3.49855   1.88293
H    -2.82024   4.06141   0.61320
H    -3.33595   2.80065   1.77071
H    -1.11448  -1.46460   1.21634
H     1.53832  -1.48869   0.16709
