10
Generated by autodE on: 2022-10-07. E = -455.051692 Ha
O     2.75515  -0.89542  -0.66253
C     1.96993  -0.05889  -0.13505
O     2.30971   1.00254   0.45694
C     0.49355  -0.38543  -0.23854
C    -0.49351   0.38539   0.23859
C    -1.96994   0.05887   0.13509
O    -2.30973  -1.00262  -0.45678
O    -2.75515   0.89554   0.66231
H     0.24148  -1.32185  -0.74774
H    -0.24141   1.32181   0.74777
