38
Generated by autodE on: 2022-10-07. E = -1250.297491 Ha. Imaginary frequency = -360.4 cm-1
C     4.64764   0.34392  -0.97028
N     3.33502   0.73184  -0.48914
C     2.24479   0.54284  -1.25734
O     2.26195   0.12807  -2.42079
C     0.93999   0.83044  -0.57772
C     0.86438   1.95330   0.29172
N     0.83992   2.88658   0.98932
N    -0.16658   0.40531  -1.24885
C    -1.33248   0.07297  -0.64274
C    -2.24436  -0.73485  -1.50928
C    -3.61000  -1.05715  -0.97966
O    -1.84408  -1.13545  -2.59567
C    -2.01792   1.10988   0.24054
O    -2.76499   1.90707  -0.34576
N    -1.80798   1.13519   1.55709
C    -2.31072   2.24569   2.34272
C    -0.37984  -1.45879   0.70847
C    -0.51204  -2.61289  -0.26364
O     0.38397  -2.73433  -1.14348
O    -1.52780  -3.35011  -0.13351
C     0.88305  -0.90914   0.93858
C     1.26491  -0.15058   2.17720
O     0.34847   0.15059   2.99769
O     2.48027   0.17443   2.29849
H     5.40924   0.72765  -0.27944
H     4.75544  -0.75223  -1.04204
H     4.82822   0.76946  -1.96708
H     3.17672   0.71707   0.52939
H     0.05417  -0.18902  -2.05823
H    -3.59510  -1.20062   0.10924
H    -3.99347  -1.95533  -1.47945
H    -4.27838  -0.20827  -1.19723
H    -1.05255   0.58417   2.00150
H    -2.03905   2.08163   3.39288
H    -1.87203   3.20059   2.00712
H    -3.40503   2.32495   2.26258
H    -1.14281  -1.39658   1.48563
H     1.70899  -1.34654   0.37841
