43
Generated by autodE on: 2022-06-18. E = -904.390397 Ha
C     5.57330   0.58639   0.36265
C     4.45743   0.12749  -0.23955
C     4.51352  -0.65089  -1.52769
C     3.14585   0.38083   0.36716
C     1.96363  -0.01214  -0.14242
C     0.64845   0.24997   0.51249
C    -0.36138   1.11402  -0.31833
C    -0.23274   2.59122   0.07579
C    -0.20678   0.96691  -1.84332
C    -1.66694   0.48513   0.14960
C    -2.99954   1.10518  -0.16507
O    -3.14294   2.00716  -0.96854
O    -4.00348   0.56645   0.52278
C    -5.31324   1.09612   0.26663
N    -1.59450  -0.60962   0.80256
C    -0.18947  -1.01757   0.92931
C     0.10274  -1.42840   2.37133
C     0.05849  -2.17938  -0.05859
C     1.16239  -3.15011   0.25398
O    -0.61533  -2.28641  -1.06867
H     6.56535   0.41202  -0.06337
H     5.51994   1.14964   1.29941
H     4.05899  -1.64843  -1.40648
H     3.94510  -0.14182  -2.32381
H     5.54960  -0.78043  -1.87081
H     3.15267   0.93289   1.31439
H     1.94362  -0.55991  -1.08846
H     0.83510   0.79200   1.45156
H    -0.89762   3.22875  -0.52295
H     0.80455   2.92176  -0.09354
H    -0.46901   2.74221   1.14064
H    -0.25005  -0.08458  -2.15641
H    -1.00925   1.51385  -2.35724
H     0.75643   1.38991  -2.16627
H    -5.99623   0.53782   0.91686
H    -5.34724   2.16840   0.50797
H    -5.58591   0.95078  -0.78865
H    -0.45303  -2.33544   2.65120
H    -0.19442  -0.61416   3.04826
H     1.17664  -1.61264   2.51355
H     2.06617  -2.63612   0.61023
H     1.38670  -3.74859  -0.63846
H     0.83054  -3.81999   1.06455
