23
Generated by autodE on: 2022-06-18. E = -351.521383 Ha
C     2.53423   2.64800   0.93090
C     2.04719   1.40469   0.72408
C     2.89785   0.18187   0.95510
C     0.67023   1.22651   0.26762
C     0.06583   0.03663   0.02321
C    -1.30528  -0.08408  -0.42873
C    -1.98015  -1.23088  -0.69553
C    -1.39833  -2.60964  -0.56208
C    -3.40887  -1.19197  -1.15936
H     3.56045   2.80975   1.27237
H     1.91437   3.53400   0.76213
H     3.90613   0.45695   1.29535
H     2.99429  -0.41520   0.03302
H     2.44517  -0.48007   1.71198
H     0.09336   2.14671   0.11548
H     0.63511  -0.88480   0.17235
H    -1.84315   0.86189  -0.56581
H    -0.35528  -2.61869  -0.22070
H    -1.44808  -3.14013  -1.52945
H    -1.99700  -3.20963   0.14592
H    -3.51509  -1.68553  -2.14218
H    -3.79164  -0.16420  -1.24289
H    -4.06088  -1.75247  -0.46538
