20
Generated by autodE on: 2022-06-18. E = -552.786711 Ha
C     3.95945  -0.62242  -1.13368
O     2.66005  -0.98367  -0.62927
C     2.00350  -0.04131   0.04638
O     2.41082   1.07947   0.27900
C     0.74199  -0.54840   0.57873
N    -0.40183  -0.52586   0.19859
C    -1.66332  -0.42436  -0.04785
C    -2.39787  -1.50072  -0.79230
C    -2.31050   0.80791   0.46843
C    -3.78470   0.95228   0.20797
O    -1.66164   1.65274   1.08012
H     3.87618   0.20829  -1.84872
H     4.34310  -1.51792  -1.63512
H     4.62270  -0.33368  -0.30595
H    -2.84740  -1.10200  -1.71559
H    -1.71649  -2.31873  -1.06069
H    -3.21550  -1.91169  -0.17861
H    -3.98607   0.93102  -0.87527
H    -4.33725   0.10841   0.65171
H    -4.14357   1.89747   0.63477
