38
Generated by autodE on: 2022-05-30. E = -1088.092983 Ha
C     1.42379  -3.64150   0.49042
C     1.99388  -2.32156   0.03079
O     3.21124  -2.15729  -0.02277
C     1.01930  -1.28869  -0.35619
C     1.10375   0.07627  -0.45119
C     2.16419   1.06188  -0.26234
C     3.53423   0.76338  -0.42271
C     4.50137   1.75179  -0.24444
C     4.13004   3.05370   0.10599
C     2.77614   3.36681   0.26661
C     1.80345   2.38809   0.07379
C    -0.34709   0.52447  -0.70309
O    -0.87058  -0.57580  -1.44800
C    -0.47595  -1.60637  -0.53536
C    -1.14641  -1.16423   0.78709
C    -1.09093   0.37944   0.64889
C    -2.60108   0.69158   0.69074
C    -3.03818   2.08209   1.03964
O    -3.04827  -0.31334   1.65309
N    -2.60711  -1.47064   0.97054
O    -3.25761  -1.27049  -0.33803
C    -3.25312   0.08020  -0.55476
O    -3.72783   0.59418  -1.52882
H     2.23606  -4.28477   0.85202
H     0.67239  -3.50330   1.28328
H     0.91480  -4.13814  -0.35211
H     3.82358  -0.25031  -0.68689
H     5.55616   1.50261  -0.38190
H     4.89194   3.82367   0.24809
H     2.47533   4.38097   0.53856
H     0.75455   2.65751   0.20350
H    -0.49172   1.46601  -1.24151
H    -0.74434  -2.59800  -0.91032
H    -0.65117  -1.56979   1.67421
H    -0.59018   0.89257   1.47733
H    -2.73298   2.76200   0.23080
H    -4.13083   2.13240   1.14773
H    -2.55952   2.40735   1.97376
