28
Generated by autodE on: 2022-05-30. E = -691.408519 Ha
C    -2.55174   2.57441   0.21209
C    -1.26064   1.96168  -0.27767
O    -0.31800   2.67979  -0.61412
C    -1.22282   0.49743  -0.31756
C    -0.19541  -0.39752  -0.22433
C     1.25549  -0.29348  -0.13925
C     1.98421   0.77418  -0.70653
C     3.37356   0.82048  -0.59835
C     4.06648  -0.18688   0.08131
C     3.35907  -1.25347   0.64650
C     1.97198  -1.31438   0.52749
C    -0.91534  -1.76983  -0.04712
C    -1.54663  -1.76944   1.35924
C    -2.55254  -0.89372   1.27531
C    -2.50392  -0.37625  -0.17844
O    -2.06840  -1.55554  -0.86872
H    -3.34773   2.40498  -0.53209
H    -2.88492   2.10609   1.15199
H    -2.41711   3.65428   0.35566
H     1.44387   1.56128  -1.22675
H     3.92125   1.65059  -1.05072
H     5.15493  -0.14460   0.16568
H     3.89165  -2.04520   1.17818
H     1.43791  -2.15412   0.97511
H    -0.34988  -2.65526  -0.35302
H    -1.17159  -2.33006   2.21455
H    -3.23856  -0.53992   2.04409
H    -3.42696   0.03117  -0.60202
