10
Generated by autodE on: 2022-05-30. E = -396.601695 Ha
C    -2.22162  -0.25279   0.03043
C    -0.74936  -0.23900  -0.02009
O    -0.05342  -1.35151  -0.19920
N     1.25818  -1.16501  -0.20411
O     1.41763   0.14411  -0.01610
C     0.18400   0.82554   0.11488
O     0.11811   2.02402   0.29115
H    -2.58022  -0.71071   0.96763
H    -2.63984  -0.82239  -0.81340
H    -2.58368   0.78306  -0.01400
