38
Generated by autodE on: 2022-05-30. E = -1088.010093 Ha. Imaginary frequency = -282.5 cm-1
C     1.61955  -3.65454   0.65146
C     2.16618  -2.36490   0.08713
O     3.38023  -2.20610  -0.04249
C     1.17076  -1.35475  -0.28661
C     1.23248   0.00713  -0.40029
C     2.28308   1.00783  -0.27410
C     3.64593   0.72990  -0.51627
C     4.60765   1.72999  -0.38077
C     4.23785   3.02266   0.00544
C     2.89107   3.31500   0.24652
C     1.92262   2.32454   0.09700
C    -0.25654   0.43258  -0.58193
O    -0.75158  -0.67871  -1.32762
C    -0.34748  -1.68248  -0.39196
C    -0.99164  -1.16138   0.90094
C    -0.94215   0.21044   0.77754
C    -3.26658   0.72893   0.75015
C    -3.43337   2.07001   1.34257
O    -3.50662  -0.36929   1.46463
N    -3.30561  -1.47796   0.71038
O    -3.40316  -1.03545  -0.57876
C    -3.32405   0.35218  -0.63877
O    -3.31408   0.97254  -1.67996
H     2.44575  -4.27464   1.02228
H     0.89819  -3.46257   1.46139
H     1.07921  -4.20396  -0.13723
H     3.93264  -0.27762  -0.80724
H     5.65664   1.49858  -0.57996
H     4.99583   3.80211   0.11289
H     2.59301   4.32185   0.54730
H     0.87768   2.57305   0.28929
H    -0.43842   1.37938  -1.09857
H    -0.61879  -2.68794  -0.72658
H    -1.05714  -1.74087   1.81865
H    -0.90641   0.93461   1.58941
H    -2.90097   2.80078   0.71792
H    -4.50018   2.34994   1.36597
H    -3.03504   2.09933   2.36580
