49
Generated by autodE on: 2022-06-03. E = -1390.007441 Ha
C    -3.65583   2.73362   0.42907
N    -2.49611   1.87974   0.58081
C    -2.50176   0.59486   0.21621
O    -3.49844  -0.01779  -0.17363
C    -1.11132  -0.10552   0.30342
C    -1.33674  -1.35007   1.20457
O    -0.89398  -1.39382   2.33624
O    -2.09152  -2.29451   0.67887
C    -2.36203  -3.44672   1.49688
N    -0.13220   0.76340   0.93867
C     1.20272   0.44956   0.45771
C     2.22203   1.59589   0.63081
C     1.73510   2.89879   1.17144
O     3.37206   1.38082   0.29512
C     1.73185  -0.77982   1.22858
O     1.70058  -1.92319   0.83140
O     2.13241  -0.41520   2.44136
C     2.48293  -1.46730   3.35856
C     0.97321   0.14493  -1.04900
C     1.98861  -0.74262  -1.60025
N     2.80424  -1.38715  -2.11580
C     0.89295   1.45750  -1.96756
C     0.80030   0.96072  -3.40264
C    -0.44566   0.48873  -3.52125
C    -1.09369   0.71301  -2.16583
O    -0.42976   1.89940  -1.70953
C    -0.53377  -0.36882  -1.15621
C    -0.70002  -1.78520  -1.68613
H    -3.55472   3.60533   1.08838
H    -4.56548   2.18158   0.70085
H    -3.76388   3.08759  -0.61038
H    -1.57688   2.28245   0.75312
H    -1.42131  -3.94688   1.76622
H    -2.98574  -4.10702   0.88444
H    -2.89757  -3.14722   2.40845
H    -0.18953   0.70673   1.95585
H     1.33695   2.74498   2.18786
H     0.89755   3.26737   0.55898
H     2.55520   3.62741   1.19155
H     2.78278  -0.96800   4.28640
H     1.61051  -2.11243   3.53254
H     3.31422  -2.06198   2.95552
H     1.63946   2.22475  -1.74496
H     1.62431   0.93059  -4.11385
H    -0.90891  -0.02334  -4.36345
H    -2.18080   0.82314  -2.15554
H    -0.23597  -2.52418  -1.02283
H    -0.22628  -1.87127  -2.67274
H    -1.76574  -2.02563  -1.79031
