32
Generated by autodE on: 2022-07-27. E = -950.809512 Ha
C    -4.19681   1.78941  -1.62094
N    -3.20167   0.89393  -1.06609
C    -1.93930   1.29025  -0.86880
O    -1.54356   2.44013  -1.15057
C    -0.95348   0.33212  -0.29079
N     0.25404   0.91176  -0.19112
C     1.47593   0.51003   0.13824
C     2.57042   1.49146   0.18965
C     2.24557   2.95514   0.01650
O     3.72604   1.10554   0.35794
C     1.81038  -0.94337   0.20337
O     1.56182  -1.70784  -0.70782
O     2.46149  -1.27868   1.30963
C     2.85959  -2.65437   1.42533
C    -1.22700  -0.95018   0.35157
O    -0.49856  -1.46765   1.18517
O    -2.39004  -1.49944  -0.03057
C    -2.78762  -2.70933   0.63392
H    -3.89436   2.15393  -2.61537
H    -4.35313   2.66642  -0.97291
H    -5.14465   1.24647  -1.71573
H    -3.44742  -0.06075  -0.82026
H     0.14165   1.90389  -0.48854
H     1.49148   3.29201   0.74455
H     1.84668   3.14757  -0.99424
H     3.16737   3.53532   0.14620
H     3.38101  -2.73718   2.38552
H     1.97345  -3.30484   1.41343
H     3.53152  -2.93064   0.60030
H    -3.74779  -2.99210   0.18828
H    -2.04047  -3.49756   0.46643
H    -2.90296  -2.53363   1.71292
