43
Generated by autodE on: 2022-05-29. E = -959.374075 Ha
C    -4.48032  -1.76916  -0.10530
N    -3.19459  -1.11034  -0.21172
C    -2.03897  -1.80966  -0.19277
O    -2.04546  -3.04724  -0.09087
C    -0.78268  -1.01864  -0.29795
C     0.45589  -1.41181   0.10085
C     0.88765  -2.69527   0.73030
C     1.36984  -0.28833  -0.24997
C     2.83288  -0.27096  -0.02384
C     3.67828   0.28004  -1.00376
C     5.05790   0.33082  -0.80372
C     5.61377  -0.15987   0.38299
C     4.78107  -0.69995   1.36739
C     3.40016  -0.76134   1.16519
N     0.76652   0.69665  -0.83203
C    -0.66212   0.36407  -0.93212
C    -1.02389   0.30290  -2.42372
C    -1.45312   1.42644  -0.15136
C    -2.39805   2.26207  -0.75983
C    -3.10692   3.20496  -0.00340
C    -2.87626   3.32687   1.36688
C    -1.92986   2.49767   1.98223
C    -1.22870   1.55695   1.22981
H    -4.58598  -2.29525   0.85765
H    -5.27173  -1.01368  -0.18431
H    -4.61373  -2.51034  -0.90877
H    -3.16708  -0.09657  -0.24850
H     1.84286  -3.03553   0.30246
H     1.05267  -2.56435   1.81274
H     0.12882  -3.47142   0.59112
H     3.24133   0.66120  -1.92800
H     5.70331   0.75347  -1.57735
H     6.69424  -0.12020   0.54021
H     5.20746  -1.07491   2.30068
H     2.76171  -1.16775   1.94964
H    -2.08225   0.04559  -2.56472
H    -0.41118  -0.46638  -2.91509
H    -0.82588   1.26883  -2.90805
H    -2.59828   2.18513  -1.82836
H    -3.84240   3.84555  -0.49584
H    -3.43009   4.06155   1.95602
H    -1.74128   2.58298   3.05508
H    -0.49956   0.90878   1.72088
