29
Generated by autodE on: 2022-05-29. E = -634.411622 Ha
C    -1.09687  -2.95253  -0.07666
C    -0.95239  -1.47297  -0.31526
N     0.16590  -1.00500  -0.73826
C     1.15883  -0.48282  -1.24896
C     2.25663   0.10928  -0.46826
C     2.12244   0.38630   0.90839
C     3.17048   0.97711   1.61142
C     4.36898   1.28658   0.95423
C     4.51343   1.01305  -0.40969
C     3.45816   0.43731  -1.12008
C    -2.07559  -0.54554  -0.09074
C    -3.32813  -1.02772   0.34053
C    -4.39521  -0.15106   0.54917
C    -4.23891   1.22109   0.33268
C    -2.99844   1.71170  -0.09468
C    -1.92894   0.84281  -0.30092
H    -0.15344  -3.46978  -0.29510
H    -1.88708  -3.37951  -0.71646
H    -1.37574  -3.16061   0.96913
H     1.18663   0.13942   1.41616
H     3.05885   1.19602   2.67606
H     5.19058   1.74671   1.50841
H     5.44711   1.25725  -0.92143
H     3.55138   0.23164  -2.18875
H    -3.47435  -2.09465   0.51300
H    -5.35762  -0.54637   0.88327
H    -5.07481   1.90472   0.49765
H    -2.86290   2.78267  -0.26454
H    -0.96496   1.24054  -0.62434
