43
Generated by autodE on: 2022-05-29. E = -959.249772 Ha. Imaginary frequency = -244.1 cm-1
C    -4.49080  -0.80166   0.00978
N    -3.11362  -1.15172   0.29188
C    -2.28846  -1.58987  -0.69910
O    -2.72737  -1.82844  -1.84511
C    -0.92097  -1.80069  -0.33794
C     0.23414  -2.11254  -0.00822
C     1.22850  -3.04333   0.55403
C     1.55165  -0.33356  -0.44753
C     2.94187  -0.18222  -0.05123
C     3.89534  -1.15346  -0.40937
C     5.22126  -1.01571   0.00211
C     5.60176   0.06588   0.80393
C     4.65347   1.02465   1.18032
C     3.33271   0.91263   0.74846
N     0.74753   0.46995  -0.90246
C    -0.46193   0.85557  -1.19137
C    -0.88921   0.88368  -2.63005
C    -1.29517   1.43065  -0.12717
C    -2.55084   1.98888  -0.43459
C    -3.38676   2.46337   0.57822
C    -2.99064   2.38979   1.91568
C    -1.73718   1.84758   2.23257
C    -0.89484   1.38202   1.22616
H    -5.07715  -1.69125  -0.27112
H    -4.93456  -0.36348   0.91207
H    -4.57295  -0.07107  -0.81040
H    -2.68381  -0.77930   1.13239
H     1.93286  -3.38762  -0.21871
H     1.82445  -2.56920   1.34820
H     0.72329  -3.92696   0.97695
H     3.59324  -2.00324  -1.02307
H     5.96012  -1.76307  -0.29565
H     6.63754   0.16145   1.13762
H     4.94806   1.87065   1.80564
H     2.59117   1.66320   1.02934
H    -1.83906   0.34010  -2.75208
H    -0.13113   0.40272  -3.26183
H    -1.04430   1.91505  -2.98806
H    -2.88883   2.03741  -1.46982
H    -4.36071   2.88402   0.31753
H    -3.64827   2.75554   2.70742
H    -1.41387   1.79055   3.27469
H     0.07672   0.96149   1.49018
