32
Generated by autodE on: 2022-05-28. E = -1228.106387 Ha
C     4.61021  -1.05061   0.93627
N     3.34749  -0.34782   0.84667
C     2.30119  -0.85497   0.16667
O     2.35715  -1.93215  -0.44962
C     1.05250  -0.07284   0.19231
N     0.87364   0.98078   0.93044
N    -0.37058   1.45259   0.80035
C    -0.76267   2.70655   1.39903
C    -1.14134   0.74846  -0.18223
Cl   -1.52996   1.85101  -1.59804
C    -2.42230   0.01513   0.28141
C    -2.14110  -0.64702   1.64522
C    -1.14181  -1.78842   1.29023
C    -0.99734  -1.67500  -0.24063
C    -2.40653  -1.20547  -0.66334
C    -0.17229  -0.42652  -0.59914
F     0.10274  -0.44766  -1.95810
H     5.04015  -1.22786  -0.06240
H     4.49431  -2.02938   1.43014
H     5.31413  -0.44428   1.51903
H     3.22080   0.52851   1.34189
H    -1.82762   2.66459   1.66846
H    -0.60451   3.55607   0.71292
H    -0.17070   2.86174   2.30991
H    -3.30975   0.65785   0.25790
H    -3.08268  -1.05106   2.04292
H    -1.74373   0.06079   2.38407
H    -0.17822  -1.69238   1.80996
H    -1.55540  -2.77430   1.54429
H    -0.58885  -2.56690  -0.73099
H    -2.47490  -0.93740  -1.72652
H    -3.19215  -1.93497  -0.42016
