15
Generated by autodE on: 2022-05-28. E = -396.224883 Ha
C     2.30960   1.90685  -1.01966
N     1.01167   2.16830  -0.38915
N     0.26676   1.19566  -0.32020
C    -0.54679   0.31441  -0.31901
C    -1.06255  -0.68186   0.63435
O    -1.84445  -0.33751   1.52565
N    -0.67161  -1.95099   0.41139
C     0.32192  -2.35879  -0.56494
H     2.87645   2.84419  -1.04082
H     2.88318   1.15395  -0.45464
H     2.17860   1.54171  -2.05214
H    -1.00629  -2.63311   1.08775
H     0.19169  -1.79419  -1.49978
H     0.18901  -3.42536  -0.78729
H     1.35207  -2.20107  -0.20499
