50
Generated by autodE on: 2022-06-26. E = -1356.923944 Ha
C    -2.82458  -0.65418  -3.00372
N    -1.89249  -1.05312  -1.96963
C    -2.15287  -0.96415  -0.66280
O    -3.23438  -0.62087  -0.17402
C    -0.98573  -1.28614   0.27222
O     0.15521  -1.73016  -0.45807
C     1.32464  -1.02542  -0.07396
C     1.99558  -1.79098   1.11640
C     3.13176  -1.15313   1.85050
O     1.61079  -2.92087   1.34204
C     2.34046  -1.06996  -1.24095
C     1.98760  -1.93294  -2.41598
O     3.42453  -0.52811  -1.12880
C     0.72850   0.38337   0.29673
O     1.48449   1.25360   1.07817
C     2.46425   2.09280   0.46016
C     0.26575   1.08155  -1.00666
O     0.91865   0.93899  -2.02860
C    -0.92581   1.95145  -0.96063
C    -1.21083   2.78692  -2.16975
C    -1.77204   1.93971   0.10981
C    -3.00084   2.78854   0.13983
C    -1.55396   1.03391   1.26636
O    -2.18806   1.14317   2.30037
C    -0.50711  -0.07352   1.12396
O    -0.12362  -0.61461   2.36066
C     0.20443   0.22863   3.47097
H    -2.31115  -0.01701  -3.73783
H    -3.64711  -0.09053  -2.54670
H    -3.24347  -1.52745  -3.52893
H    -0.95548  -1.35014  -2.22768
H    -1.32685  -2.06244   0.97206
H     2.81836  -0.19299   2.27984
H     3.48655  -1.83515   2.63382
H     3.94392  -0.93001   1.14308
H     2.83917  -1.95941  -3.10754
H     1.09941  -1.54191  -2.93195
H     1.74494  -2.94873  -2.06721
H     3.16355   1.51197  -0.15331
H     1.98953   2.87712  -0.15132
H     3.00683   2.56993   1.28640
H    -1.27924   3.85290  -1.89996
H    -2.18447   2.50603  -2.60417
H    -0.43347   2.66101  -2.93169
H    -3.70487   2.45333  -0.64048
H    -3.50020   2.72631   1.11341
H    -2.75938   3.84003  -0.07940
H     1.13509  -0.15819   3.91119
H    -0.59939   0.17660   4.21995
H     0.36255   1.27168   3.17816
