24
Generated by autodE on: 2022-07-27. E = -667.395801 Ha
C    -4.52534  -0.46551   1.40479
N    -3.08048  -0.51102   1.47390
C    -2.27523  -0.13576   0.46102
O    -2.65290   0.28788  -0.63586
C    -0.83319  -0.27936   0.78586
O    -0.04978   0.06041  -0.15568
C     1.28974   0.10140  -0.32082
C     2.15433  -0.31198   0.76232
C     3.64793  -0.26482   0.57375
O     1.66667  -0.70031   1.83646
C     1.65143   0.58578  -1.64563
C     0.51780   0.94693  -2.58166
O     2.82843   0.69808  -1.99928
H    -4.82131  -0.08251   0.42153
H    -4.93288   0.19567   2.18545
H    -4.95483  -1.47007   1.54302
H    -2.64768  -0.84871   2.32990
H    -0.43264  -0.64051   1.73344
H     3.98100   0.75635   0.33662
H     3.95659  -0.90035  -0.26938
H     4.12336  -0.61158   1.50102
H    -0.12247   1.72711  -2.14221
H     0.94319   1.30191  -3.52879
H    -0.12944   0.07550  -2.76609
