24
Generated by autodE on: 2022-06-26. E = -667.395714 Ha
C     3.84000   1.71155   0.37743
N     2.56303   1.03944   0.25876
C     2.41004  -0.28787   0.41820
O     3.31696  -1.08802   0.67991
C     1.03521  -0.82361   0.26699
O     0.09356  -0.00560   0.01118
C    -1.24165  -0.11951  -0.18443
C    -1.86048  -1.42545  -0.10668
C    -3.34550  -1.55405  -0.32359
O    -1.17242  -2.42912   0.13926
C    -1.86837   1.16778  -0.44843
C    -0.97770   2.39160  -0.46141
O    -3.08119   1.26846  -0.65441
H     4.60587   0.97462   0.64521
H     4.12222   2.19057  -0.57336
H     3.80085   2.48739   1.15771
H     1.74235   1.59617   0.03833
H     0.83750  -1.88889   0.37555
H    -3.61483  -2.61457  -0.22931
H    -3.90282  -0.95619   0.41265
H    -3.63158  -1.17761  -1.31662
H    -0.46701   2.51657   0.50640
H    -0.19736   2.30042  -1.23340
H    -1.59667   3.27365  -0.66760
