50
Generated by autodE on: 2022-06-26. E = -1356.872166 Ha. Imaginary frequency = -181.1 cm-1
C    -4.37604  -2.07767   0.70049
N    -2.92975  -2.05586   0.79599
C    -2.16200  -1.69962  -0.24676
O    -2.56744  -1.51716  -1.39740
C    -0.71398  -1.52019   0.10382
O     0.03097  -1.32433  -0.94869
C     1.35964  -1.03702  -0.96264
C     2.25447  -1.56826   0.05327
C     3.73356  -1.31114  -0.07623
O     1.81830  -2.22859   1.00783
C     1.75644  -0.45240  -2.24523
C     0.70710  -0.38499  -3.32996
O     2.89476  -0.01680  -2.43101
C     0.66182   0.73838   1.20211
O     1.34808   0.35717   2.25744
C     2.65579   0.83290   2.63098
C     1.20040   1.60609   0.11943
O     2.36668   1.99463   0.12977
C     0.25691   2.06840  -0.94842
C     0.91486   2.86510  -2.03194
C    -1.07509   1.80207  -0.87990
C    -2.10333   2.20284  -1.89089
C    -1.62981   1.09719   0.30531
O    -2.83352   1.09098   0.53952
C    -0.69806   0.35958   1.20168
O    -1.22450  -0.18349   2.34536
C    -1.50706   0.74523   3.40250
H    -4.68032  -2.54448  -0.24534
H    -4.79224  -1.05689   0.73577
H    -4.78578  -2.65858   1.53619
H    -2.50942  -1.98249   1.71994
H    -0.27026  -1.98051   0.98616
H     4.23322  -1.74530   0.79961
H     4.12693  -1.76704  -0.99743
H     3.94268  -0.23546  -0.14637
H    -0.19052   0.15135  -2.99263
H     0.38149  -1.40231  -3.60031
H     1.13717   0.11287  -4.20773
H     3.41558   0.50550   1.91575
H     2.65336   1.92720   2.70831
H     2.83949   0.38242   3.61343
H     1.23456   3.84218  -1.63198
H     0.25047   3.04204  -2.88378
H     1.82572   2.36149  -2.38444
H    -1.66360   2.63925  -2.79350
H    -2.69968   1.32025  -2.17241
H    -2.80661   2.93130  -1.45543
H    -1.88151   0.14868   4.24416
H    -0.59548   1.28038   3.70931
H    -2.27721   1.46696   3.09192
