32
Generated by autodE on: 2022-05-30. E = -635.809799 Ha
C     3.05216   0.77769   0.26301
C     2.22243   0.17210  -0.82697
O     2.38008   0.40416  -2.00302
C     1.07399  -0.81452  -0.37544
C     1.73956  -2.06585   0.01863
N     2.27429  -3.05568   0.30366
C     0.30363  -0.22577   0.72458
C    -0.63408   0.37455   1.20601
C    -1.93759   1.02367   1.37244
C    -1.83312   2.34796   2.14456
C    -2.91259   0.07338   2.09231
C    -2.40824   1.29720  -0.09413
C    -2.23242   0.15592  -1.11819
C    -0.88077   0.06210  -1.88331
C     0.07706  -1.09754  -1.54388
H     3.96773   1.21008  -0.16022
H     3.29056   0.03730   1.04118
H     2.46340   1.57577   0.74453
H    -1.10542   3.02555   1.67273
H    -2.81350   2.84934   2.15940
H    -1.52077   2.17262   3.18555
H    -2.54846  -0.16853   3.10243
H    -3.89766   0.55663   2.18582
H    -3.03834  -0.86906   1.53917
H    -3.47474   1.57087  -0.03262
H    -1.87706   2.19019  -0.46321
H    -2.46209  -0.81376  -0.64558
H    -3.01902   0.29978  -1.87520
H    -0.34299   1.02167  -1.81689
H    -1.11764  -0.06241  -2.95126
H    -0.50247  -1.99430  -1.27804
H     0.68742  -1.35024  -2.42221
