16
Generated by autodE on: 2022-05-30. E = -417.352628 Ha
C     2.85322  -0.13308  -0.26487
N     1.40679  -0.13977  -0.29872
C     0.67720   0.28503   0.74709
O     1.17240   0.70099   1.80785
C    -0.79573   0.24819   0.60991
N    -1.45880  -0.15952  -0.44643
C    -2.93386  -0.13891  -0.44336
O    -0.93781  -0.59193  -1.52782
H     3.23348  -0.52071  -1.21778
H     3.23825  -0.76369   0.55299
H     3.24730   0.88535  -0.11430
H     0.87819  -0.45171  -1.11650
H    -1.37897   0.59126   1.46176
H    -3.31439   0.24096   0.51035
H    -3.27672  -1.16664  -0.62092
H    -3.25461   0.50026  -1.27646
