48
Generated by autodE on: 2022-05-30. E = -1053.157666 Ha. Imaginary frequency = -335.2 cm-1
C     0.37328  -0.64945   3.74929
N    -0.54269  -0.92717   2.66145
C    -0.19198  -1.73925   1.65103
O     0.82845  -2.44532   1.66223
C    -1.07572  -1.79025   0.44723
C    -0.05692  -0.00662  -0.41867
C    -0.77314   0.93950  -0.02949
O    -2.41648  -0.04419   0.88675
N    -2.27542  -1.21421   0.34690
C    -3.08308  -1.45131  -0.84779
C    -1.09505   2.35593   0.22951
C    -1.29985   2.58544   1.74018
C    -2.36232   2.77894  -0.53402
C     0.13573   3.19123  -0.22439
C     0.61402   3.03124  -1.67919
C     1.81750   2.10519  -1.93987
C     1.56667   0.62749  -2.25424
C     1.24583  -0.33707  -1.05828
C     2.28835  -0.19380  -0.03016
N     3.09943  -0.02831   0.78326
C     1.24382  -1.75492  -1.70667
C     2.46075  -2.60849  -1.55087
O     0.26433  -2.08859  -2.34053
H    -0.12576   0.00177   4.47741
H     1.28646  -0.14600   3.38759
H     0.67652  -1.57788   4.25495
H    -1.30106  -0.27724   2.45344
H    -0.92083  -2.67110  -0.17383
H    -2.71644  -0.79293  -1.65223
H    -2.99982  -2.50055  -1.15438
H    -4.12621  -1.20633  -0.61442
H    -1.41296   3.66325   1.93552
H    -0.43649   2.21986   2.31732
H    -2.20161   2.07372   2.10235
H    -2.24681   2.64031  -1.61903
H    -3.22530   2.18270  -0.20639
H    -2.57610   3.84209  -0.34173
H    -0.13294   4.24540  -0.04639
H     0.97157   2.96692   0.45919
H     0.91551   4.03150  -2.02745
H    -0.22358   2.73756  -2.33363
H     2.33775   2.49462  -2.82960
H     2.54465   2.19547  -1.11457
H     0.72846   0.51830  -2.95817
H     2.46390   0.22349  -2.75002
H     2.49730  -2.95138  -0.50342
H     3.37813  -2.02930  -1.73641
H     2.40480  -3.47468  -2.22189
