63
Generated by autodE on: 2022-06-10. E = -1723.315453 Ha
F    -2.78786   4.93702  -0.52078
C    -1.96566   4.30240  -1.38303
F    -2.74044   3.42421  -2.06463
F    -1.53089   5.21695  -2.26471
C    -0.85692   3.60797  -0.68726
C     0.45925   3.68531  -0.91085
C     1.06286   2.60297  -0.02756
O     0.15875   2.58579   1.08821
C    -1.04157   2.47445   0.31648
C    -0.80197   1.15814  -0.48592
C     0.73330   1.24836  -0.73575
C     1.32204  -0.01792  -0.05225
C     2.58409   0.29890   0.73887
C     2.55456   0.49819   2.12310
C     3.72093   0.84945   2.81237
C     4.92479   1.01701   2.12446
C     4.95746   0.82832   0.73786
C     3.79645   0.46771   0.05258
C     1.57992  -1.18349  -1.02323
C     1.13660  -1.20681  -2.34985
C     1.28750  -2.35626  -3.13407
C     1.89077  -3.49797  -2.60396
C     2.34793  -3.48177  -1.28125
C     2.19238  -2.33545  -0.50323
O     0.29698  -0.42663   0.87131
C    -0.99830  -0.15252   0.33034
C    -1.97594   0.00804   1.49307
C    -1.54266  -0.02185   2.82283
C    -2.45443   0.15842   3.86985
C    -3.80629   0.37856   3.59935
C    -4.24486   0.41219   2.27022
C    -3.33765   0.22346   1.22712
C    -1.46913  -1.33949  -0.53232
C    -2.26128  -1.19249  -1.67689
C    -2.65857  -2.31060  -2.41941
C    -2.27088  -3.59224  -2.02531
C    -1.50020  -3.74961  -0.86737
C    -1.11379  -2.63422  -0.12526
H     0.99687   4.29831  -1.63340
H     2.09745   2.74233   0.29489
H    -1.93393   2.50856   0.94613
H    -1.39577   1.16075  -1.40160
H     1.01658   1.30203  -1.78953
H     1.61607   0.38995   2.66353
H     3.68346   0.99604   3.89459
H     5.83405   1.29314   2.66368
H     5.89288   0.95877   0.18840
H     3.82939   0.31745  -1.02865
H     0.63838  -0.34253  -2.78724
H     0.92164  -2.35612  -4.16346
H     2.00403  -4.39614  -3.21559
H     2.82196  -4.36843  -0.85338
H     2.53603  -2.33779   0.53299
H    -0.48990  -0.19109   3.04218
H    -2.10002   0.12760   4.90310
H    -4.51657   0.52214   4.41701
H    -5.29990   0.58519   2.04474
H    -3.69102   0.25342   0.19462
H    -2.57513  -0.20419  -2.01365
H    -3.26798  -2.17192  -3.31567
H    -2.56883  -4.46424  -2.61221
H    -1.19351  -4.74725  -0.54399
H    -0.50369  -2.76088   0.76896
