16
Generated by autodE on: 2022-06-10. E = -644.713706 Ha
F     1.50982  -0.56454   1.50374
C     1.50132  -0.00364   0.27241
F     2.17641   1.15472   0.35673
F     2.22103  -0.82674  -0.52107
C     0.11792   0.17523  -0.21947
C    -0.54733   1.29608  -0.50561
C    -1.98670   0.81720  -0.80788
C    -2.58774   0.33533   0.53366
C    -1.92075  -0.78435   0.82656
C    -0.92385  -0.96693  -0.34051
O    -1.70292  -0.45092  -1.43258
H    -0.21031   2.33088  -0.47049
H    -2.60465   1.46328  -1.43978
H    -3.34576   0.86844   1.10616
H    -1.98103  -1.42710   1.70382
H    -0.53846  -1.97307  -0.53568
