47
Generated by autodE on: 2022-06-10. E = -1078.479735 Ha
C     4.43959   2.97297  -0.84541
C     4.72067   1.62555  -0.58467
C     3.69185   0.71475  -0.35800
C     2.33485   1.12464  -0.39540
C     1.25500   0.19576  -0.13676
O     0.10013   0.80177   0.13127
C    -1.17688   0.44028   0.23820
C    -2.00914   1.46895   0.82560
C    -1.42922   2.56774   1.51214
C    -2.22484   3.57758   2.04770
C    -3.61981   3.52414   1.93495
C    -4.20816   2.44351   1.26513
C    -3.42234   1.43446   0.71403
C    -1.65381  -0.85366  -0.24262
C    -1.21196  -1.37656  -1.47773
C    -1.62457  -2.63546  -1.90658
C    -2.48730  -3.40413  -1.11576
C    -2.94908  -2.89120   0.10127
C    -2.53914  -1.63041   0.53394
C     1.38599  -1.25872  -0.11261
C     0.78327  -2.02507   0.90907
C     0.86467  -3.41513   0.89866
C     1.54770  -4.07565  -0.12980
C     2.16585  -3.32904  -1.13876
C     2.08795  -1.93667  -1.13134
C     2.06702   2.49195  -0.66698
C     3.10489   3.39614  -0.87886
H     5.25030   3.68345  -1.02133
H     5.75736   1.28175  -0.54531
H     3.93728  -0.32203  -0.12605
H    -0.34602   2.61108   1.63118
H    -1.75116   4.41149   2.57203
H    -4.24080   4.31321   2.36478
H    -5.29483   2.39247   1.15999
H    -3.90225   0.61992   0.17076
H    -0.53764  -0.78919  -2.10196
H    -1.26638  -3.02365  -2.86277
H    -2.79886  -4.39700  -1.44799
H    -3.62021  -3.48483   0.72652
H    -2.87669  -1.25321   1.50072
H     0.24600  -1.52249   1.71418
H     0.38674  -3.98935   1.69563
H     1.59870  -5.16674  -0.14307
H     2.69838  -3.83580  -1.94704
H     2.54352  -1.36403  -1.94094
H     1.03239   2.83242  -0.72172
H     2.86943   4.44316  -1.08621
