47
Generated by autodE on: 2022-07-27. E = -1078.479733 Ha
C     4.34227   1.53278   2.84155
C     3.02576   1.39007   3.29769
C     2.01884   0.95702   2.43849
C     2.29685   0.66554   1.07734
C     1.24089   0.25044   0.17842
O     0.02263   0.48790   0.66093
C    -1.22315   0.13664   0.34759
C    -2.22393   0.91077   1.05092
C    -1.87649   2.11894   1.71030
C    -2.82971   2.84851   2.41651
C    -4.15985   2.41453   2.47918
C    -4.52030   1.22693   1.82931
C    -3.57320   0.48178   1.13137
C    -1.50492  -0.95331  -0.58292
C    -2.49034  -0.81189  -1.58240
C    -2.71893  -1.82990  -2.50775
C    -1.97198  -3.01176  -2.45532
C    -1.00508  -3.17436  -1.45560
C    -0.77286  -2.15981  -0.53047
C     1.44524  -0.33018  -1.14614
C     0.67555   0.09443  -2.25149
C     0.83355  -0.50120  -3.50019
C     1.76236  -1.53378  -3.67855
C     2.54622  -1.95158  -2.59757
C     2.39154  -1.35729  -1.34546
C     3.63330   0.82325   0.63021
C     4.63425   1.24416   1.50213
H     5.13102   1.86332   3.52096
H     2.78337   1.60644   4.34130
H     1.00395   0.82600   2.81562
H    -0.85088   2.48465   1.64890
H    -2.53427   3.77581   2.91407
H    -4.90648   2.99475   3.02589
H    -5.55210   0.86981   1.87735
H    -3.87173  -0.45505   0.65996
H    -3.05319   0.12041  -1.65233
H    -3.47368  -1.69302  -3.28580
H    -2.14264  -3.80355  -3.18823
H    -0.42369  -4.09756  -1.40121
H    -0.01503  -2.29781   0.24167
H    -0.05302   0.89605  -2.12475
H     0.22381  -0.16193  -4.34068
H     1.87521  -2.00849  -4.65586
H     3.27166  -2.75835  -2.72640
H     2.98217  -1.71368  -0.49986
H     3.87930   0.63501  -0.41526
H     5.65474   1.36036   1.12849
