63
Generated by autodE on: 2022-06-10. E = -1723.199574 Ha. Imaginary frequency = -175.3 cm-1
F    -2.60280   5.29181  -0.18925
C    -1.76047   4.84915  -1.14910
F    -2.53403   4.21891  -2.06490
F    -1.23886   5.93320  -1.74818
C    -0.72852   3.93958  -0.60851
C     0.60206   3.99271  -0.72226
C     1.09145   2.66923  -0.09107
O     0.10758   2.50879   0.94655
C    -1.03405   2.58346   0.07569
C    -0.68649   1.49030  -0.95188
C     0.66897   1.54269  -1.05446
C     1.34333  -0.57521   0.20011
C     2.48594  -0.04116   0.93228
C     2.39336   0.33422   2.29146
C     3.47166   0.93152   2.94230
C     4.67322   1.16634   2.26375
C     4.78217   0.79066   0.91908
C     3.70792   0.19570   0.26069
C     1.54294  -1.49110  -0.95511
C     0.84422  -1.40227  -2.17376
C     1.04002  -2.34594  -3.18171
C     1.93948  -3.40061  -3.00049
C     2.65169  -3.49707  -1.80146
C     2.45907  -2.55008  -0.79449
O     0.20782  -0.52426   0.89335
C    -1.07686  -0.68636   0.57792
C    -2.00881  -0.15996   1.56902
C    -1.56513   0.63492   2.65399
C    -2.46516   1.14637   3.58529
C    -3.83784   0.89473   3.46854
C    -4.29253   0.10548   2.40664
C    -3.39696  -0.42280   1.47773
C    -1.47043  -1.76359  -0.35547
C    -2.40116  -1.56103  -1.38834
C    -2.74396  -2.60405  -2.25123
C    -2.16718  -3.86822  -2.09395
C    -1.25693  -4.08801  -1.05423
C    -0.91623  -3.04841  -0.19079
H     1.22501   4.74179  -1.20904
H     2.11240   2.64846   0.30217
H    -1.97877   2.50305   0.62148
H    -1.40570   1.04288  -1.63274
H     1.31000   1.16823  -1.84730
H     1.47098   0.14113   2.83816
H     3.37514   1.20970   3.99478
H     5.51647   1.63355   2.77726
H     5.71248   0.97052   0.37462
H     3.80137  -0.06702  -0.79402
H     0.12330  -0.60671  -2.33555
H     0.47623  -2.25895  -4.11313
H     2.08486  -4.14249  -3.78914
H     3.35636  -4.31713  -1.64444
H     3.00848  -2.64342   0.14392
H    -0.50737   0.86497   2.74918
H    -2.08980   1.75607   4.41117
H    -4.54139   1.30465   4.19660
H    -5.35866  -0.11168   2.30319
H    -3.77932  -1.05142   0.67431
H    -2.84143  -0.57337  -1.53170
H    -3.45856  -2.42456  -3.05793
H    -2.42894  -4.68028  -2.77618
H    -0.80688  -5.07402  -0.91756
H    -0.20497  -3.22397   0.61770
