25
Generated by autodE on: 2022-06-05. E = -796.836360 Ha
C    -2.56492   3.66720   0.53637
N    -2.29372   2.24739   0.46001
C    -1.05480   1.78314   0.21506
O    -0.07474   2.52318   0.03892
C    -0.90377   0.30631   0.16254
N     0.31833  -0.12982  -0.07473
C     1.41980  -0.45799  -0.28993
C     2.73119  -1.01555  -0.51328
O     2.90980  -2.21519  -0.55076
O     3.63908  -0.06304  -0.66172
C     4.99435  -0.50040  -0.89330
C    -1.96555  -0.67582   0.34620
O    -3.13725  -0.39511   0.57544
O    -1.52559  -1.93799   0.23739
C    -2.49860  -2.97759   0.40477
H    -3.63233   3.81270   0.74298
H    -2.31619   4.17777  -0.40820
H    -1.98222   4.14737   1.33930
H    -3.03620   1.56239   0.59123
H     5.34757  -1.09929  -0.04242
H     5.04548  -1.09490  -1.81599
H     5.58588   0.41588  -0.99164
H    -3.29096  -2.89221  -0.35304
H    -2.94640  -2.93055   1.40809
H    -1.95460  -3.92067   0.27766
