38
Generated by autodE on: 2022-06-05. E = -2462.440453 Ha. Imaginary frequency = -468.6 cm-1
C    -3.20604   0.14065   3.09084
N    -2.30361  -0.51440   2.16425
C    -2.42008  -0.32512   0.83813
O    -3.33446   0.32682   0.32746
C    -1.32708  -0.91564   0.00257
C    -1.53577  -1.27093  -1.42887
O    -2.51610  -0.97136  -2.07734
O    -0.48240  -1.92526  -1.91192
C    -0.46385  -2.17242  -3.32545
N    -0.22039  -1.33755   0.57554
C     0.94792  -1.09091   0.77083
C     2.10510  -1.81653   1.35358
O     2.91753  -2.38249   0.66267
O     2.11742  -1.68760   2.66672
C     3.23846  -2.27464   3.36452
C     1.37189   0.71407  -0.15390
Cl    2.20343   0.09011  -1.56790
Cl    2.53300   1.32712   1.04848
C     0.12450   1.35270  -0.27719
Cl   -0.43461   2.16027   1.18107
C    -0.63977   1.61101  -1.53936
O    -0.25292   1.18853  -2.63317
N    -1.76381   2.35253  -1.41073
C    -2.68527   2.49730  -2.52107
H    -3.13709   1.23666   3.00168
H    -4.24973  -0.15249   2.89922
H    -2.93628  -0.15252   4.11218
H    -1.52893  -1.05462   2.53507
H     0.49648  -2.65852  -3.53010
H    -1.29556  -2.83222  -3.61068
H    -0.53705  -1.22192  -3.87083
H     3.06687  -2.06553   4.42551
H     4.17201  -1.80704   3.02218
H     3.26961  -3.35730   3.18196
H    -2.14439   2.48571  -0.48020
H    -3.26406   1.57494  -2.69252
H    -2.13471   2.73652  -3.44030
H    -3.38153   3.31702  -2.30173
