43
Generated by autodE on: 2022-06-21. E = -1066.915078 Ha
C    -3.41634   3.51477  -0.17306
N    -2.25883   2.64850  -0.27133
C    -2.36759   1.38324  -0.70303
O    -3.44364   0.86234  -1.04386
N    -1.17915   0.66245  -0.84594
O    -0.02653   1.36857  -0.37661
C     0.61377   0.53739   0.60106
C     2.05646   0.93259   0.73134
C     2.66416   0.93260   1.99304
C     4.02715   1.21632   2.12093
C     4.78918   1.51520   0.98789
C     4.18371   1.52645  -0.27422
C     2.82535   1.23152  -0.40376
C     0.37740  -0.86216   0.00928
N     0.70916  -1.97458   0.87182
C     1.97017  -2.63377   0.56284
C    -0.31236  -2.74216   1.40376
C    -1.61477  -2.39957   1.37616
C    -2.05216  -1.12300   0.72521
C    -1.09760  -0.76611  -0.44081
C    -1.34997  -1.70203  -1.64216
N    -2.48260  -1.46931  -2.31506
O    -0.56213  -2.61260  -1.91554
H    -3.07449   4.54237   0.00152
H    -4.08286   3.22075   0.65462
H    -4.00000   3.49047  -1.10507
H    -1.34654   2.96436   0.04065
H     0.10284   0.62660   1.57413
H     2.06531   0.70402   2.87795
H     4.49287   1.20942   3.10920
H     5.85333   1.74231   1.08697
H     4.77474   1.76297  -1.16224
H     2.35409   1.23370  -1.38857
H     0.99283  -0.93138  -0.89856
H     2.21443  -3.35314   1.35690
H     2.78212  -1.89480   0.51399
H     1.92897  -3.17398  -0.40173
H     0.02296  -3.66876   1.87681
H    -2.35393  -3.05127   1.84370
H    -2.03798  -0.27738   1.43794
H    -3.08252  -1.19374   0.35760
H    -2.71502  -2.05655  -3.10994
H    -3.07608  -0.67770  -2.04687
