23
Generated by autodE on: 2022-07-27. E = -609.139383 Ha
C    -4.99048   0.76744  -1.16952
N    -3.99449   0.10427  -0.36320
C    -2.65046   0.30672  -0.50924
O    -2.17567   1.09799  -1.34631
N    -1.93989  -0.46983   0.37887
O    -0.60307  -0.18493   0.15869
C     0.29229  -0.77038   0.84308
C     1.67230  -0.46300   0.60908
C     2.64997  -1.12599   1.38164
C     3.99952  -0.84887   1.17798
C     4.38170   0.08568   0.20890
C     3.41379   0.74848  -0.56226
C     2.06490   0.48088  -0.36919
H    -4.48337   1.45144  -1.86095
H    -5.69082   1.35522  -0.55220
H    -5.58278   0.05071  -1.76390
H    -4.29299  -0.56441   0.33802
H    -0.02646  -1.49802   1.59913
H     2.33732  -1.85284   2.13463
H     4.75736  -1.36085   1.77427
H     5.44077   0.30170   0.05086
H     3.72203   1.47603  -1.31587
H     1.29985   0.98730  -0.96040
