52
Generated by autodE on: 2022-06-25. E = -1280.128897 Ha
C    -3.68460   3.16888  -0.80897
N    -2.91958   1.93780  -0.89205
C    -1.99625   1.63237   0.02136
O    -1.73841   2.33681   1.00388
C    -1.25893   0.28088  -0.17504
C    -2.22719  -0.84946   0.23968
O    -2.80278  -1.53594  -0.60999
N    -2.40124  -0.98416   1.55749
C    -3.24181  -2.02309   2.12418
O    -0.13499   0.26710   0.69255
C     1.09617   0.03515  -0.00882
C     1.76500   1.40928  -0.28861
O     2.81072   1.50477  -0.94089
N     1.15384   2.46713   0.26026
C     1.66334   3.81199   0.08607
C     2.01706  -0.78089   0.89216
C     1.53998  -1.31496   2.09731
C     2.36954  -2.09681   2.90657
C     3.68717  -2.35825   2.52334
C     4.16982  -1.82701   1.32346
C     3.34409  -1.04305   0.51441
C     0.62879  -0.72358  -1.31532
C     1.55593  -0.63950  -2.52722
C     0.38830  -2.20439  -0.97560
C    -0.68628   0.04873  -1.58653
C    -1.64323  -0.54218  -2.60436
O    -2.56378   0.09687  -3.08628
H    -4.17389   3.25567   0.17227
H    -4.45302   3.16094  -1.59146
H    -3.04231   4.05356  -0.94930
H    -2.98283   1.36674  -1.74163
H    -1.81218  -0.42745   2.17078
H    -4.22822  -2.02344   1.63898
H    -3.37004  -1.83041   3.19607
H    -2.79204  -3.02075   1.99227
H     0.28412   2.32220   0.77326
H     2.62315   3.95244   0.60967
H     1.82509   4.03767  -0.97935
H     0.93108   4.52043   0.49271
H     0.51192  -1.12460   2.40004
H     1.97874  -2.50381   3.84230
H     4.33467  -2.97074   3.15525
H     5.19870  -2.02206   1.01162
H     3.73555  -0.62324  -0.41027
H     1.10042  -1.19814  -3.36032
H     1.71944   0.39398  -2.85560
H     2.53086  -1.10019  -2.31466
H     1.35167  -2.72184  -0.87139
H    -0.16245  -2.34654  -0.03699
H    -0.17034  -2.70166  -1.78013
H    -0.41749   1.03395  -1.99999
H    -1.41147  -1.55690  -2.98759
