14
Generated by autodE on: 2022-06-25. E = -270.683212 Ha
C    -2.16583  -0.68103   0.60428
C    -0.83630  -0.10911   0.22548
C    -0.76836   1.38644   0.10467
C     0.22920  -0.92821   0.00869
C     1.56937  -0.50141  -0.36464
O     1.94584   0.65247  -0.55724
H    -2.48789  -0.26882   1.57687
H    -2.93152  -0.36569  -0.12626
H    -2.15464  -1.77804   0.66404
H     0.02262   1.80056   0.74892
H    -1.72861   1.85024   0.37018
H    -0.50437   1.68307  -0.92343
H     0.09620  -2.00839   0.11940
H     2.29876  -1.33998  -0.47765
