38
Generated by autodE on: 2022-07-27. E = -1009.357578 Ha
C     2.52733   3.04764  -1.45819
N     2.18035   1.91723  -0.61758
C     1.22845   1.04930  -0.98647
O     0.68709   1.04597  -2.09610
C     0.89307  -0.05526  -0.01931
O    -0.33575  -0.44901   0.08978
C    -1.51934   0.10578  -0.24492
C    -1.65301   1.55800  -0.23623
O    -0.71011   2.29114   0.13081
N    -2.85477   2.05704  -0.60808
C    -3.16983   3.45705  -0.42579
C    -2.62760  -0.84193  -0.18932
O    -3.81085  -0.49261  -0.41483
N    -2.32776  -2.13336   0.09006
C    -3.35696  -3.14784   0.16914
C     1.86458  -0.91134   0.63216
C     1.42680  -1.84339   1.60559
C     2.33527  -2.69299   2.22632
C     3.69680  -2.63154   1.90073
C     4.14194  -1.71444   0.94268
C     3.24115  -0.86052   0.31074
H     3.37757   3.57621  -1.01080
H     2.80690   2.70853  -2.46611
H     1.67797   3.74477  -1.55163
H     2.50401   1.90013   0.34491
H    -3.59915   1.36127  -0.70359
H    -3.27699   3.73223   0.63879
H    -2.37825   4.08850  -0.85501
H    -4.11415   3.68135  -0.93854
H    -1.36173  -2.39132   0.25471
H    -3.91113  -3.23556  -0.77950
H    -4.08848  -2.92740   0.96386
H    -2.88372  -4.11297   0.38824
H     0.37063  -1.87989   1.87466
H     1.98372  -3.40308   2.97795
H     4.40865  -3.29604   2.39532
H     5.20073  -1.66793   0.67940
H     3.60264  -0.16729  -0.44744
