61
Generated by autodE on: 2022-06-09. E = -1543.257005 Ha
C    -3.31395  25.29248  23.63482
N    -4.75125  25.41451  23.51250
C    -5.47072  26.28043  24.24082
O    -4.98134  27.16755  24.94723
C    -6.99773  26.12512  24.09127
O    -7.34612  24.89696  23.47608
C    -7.79167  23.97574  24.49180
C    -6.69277  22.97433  24.80892
C    -5.67490  23.26340  25.72857
C    -4.62704  22.36230  25.93117
C    -4.58675  21.15997  25.21739
C    -5.60105  20.86258  24.30151
C    -6.64743  21.76638  24.10110
C    -8.22083  24.87424  25.64710
C    -7.75217  26.11197  25.41419
C    -7.94514  27.41544  26.15779
F    -7.70521  28.43419  25.25422
F    -9.27709  27.56992  26.49018
C    -7.05978  27.66900  27.36805
C    -7.44320  26.98585  28.68102
C    -7.67045  25.47267  28.61964
C    -9.06606  25.08799  28.08579
C    -9.14687  24.33190  26.73021
C    -8.74782  22.84870  27.01254
O    -7.95859  22.55964  27.91601
N    -9.28146  21.90955  26.21436
C    -8.89461  20.51623  26.30901
C   -10.61080  24.40393  26.24524
C   -11.61569  23.81358  27.03278
C   -12.95823  23.89233  26.66211
C   -13.32698  24.56348  25.49090
C   -12.33845  25.15180  24.70068
C   -10.99214  25.07384  25.07515
H    -2.87222  26.27974  23.82214
H    -2.89644  24.88519  22.70435
H    -3.03692  24.62195  24.46681
H    -5.27515  24.66431  23.07056
H    -7.33930  26.95183  23.44825
H    -8.65040  23.43613  24.06728
H    -5.69944  24.19751  26.29216
H    -3.84120  22.59870  26.65227
H    -3.76834  20.45412  25.37769
H    -5.57946  19.92279  23.74479
H    -7.44561  21.53157  23.39234
H    -7.06022  28.76128  27.51095
H    -6.04400  27.38392  27.06388
H    -8.34473  27.46644  29.09640
H    -6.62847  27.20306  29.39014
H    -7.56525  25.06828  29.63733
H    -6.87427  24.99502  28.03032
H    -9.57547  24.45245  28.82172
H    -9.68238  25.98863  27.99606
H    -9.95632  22.18512  25.50938
H    -9.24936  19.98736  25.41591
H    -7.80061  20.42536  26.36623
H    -9.32774  20.03518  27.20174
H   -11.34680  23.28036  27.94707
H   -13.72020  23.42583  27.29113
H   -14.37769  24.62477  25.19799
H   -12.61013  25.67877  23.78285
H   -10.23972  25.54792  24.44552
