37
Generated by autodE on: 2022-06-09. E = -949.997447 Ha
C    -1.28392   2.57325   1.18220
N    -2.24100   1.58769   0.70817
C    -2.04691   0.28208   0.43959
O    -2.98928  -0.47632   0.20273
C    -0.58179  -0.25013   0.45096
C    -0.03249  -0.18243   1.87825
C     1.26300   0.27451   2.14624
C     1.75264   0.28664   3.45542
C     0.95035  -0.15581   4.51113
C    -0.34478  -0.61382   4.24866
C    -0.83252  -0.62887   2.93983
C     0.21223   0.46194  -0.54415
C     0.79054   0.75408  -1.56909
C     1.32091   0.41628  -2.89051
F     2.65840   0.10286  -2.77938
F     1.26836   1.47415  -3.76130
C     0.55773  -0.76939  -3.46738
C     0.40021  -1.97379  -2.52050
C    -0.81142  -1.98368  -1.54650
C    -0.54744  -1.73662  -0.04629
H    -0.32825   2.49423   0.65047
H    -1.69322   3.57298   0.98615
H    -1.09272   2.47924   2.26305
H    -3.22332   1.85147   0.74275
H     1.89244   0.62798   1.32703
H     2.76537   0.64775   3.64970
H     1.33153  -0.14200   5.53481
H    -0.98075  -0.96082   5.06643
H    -1.84559  -0.98869   2.74568
H    -0.42857  -0.39516  -3.78280
H     1.10669  -1.06405  -4.37620
H     1.34025  -2.12230  -1.96288
H     0.30557  -2.85581  -3.17116
H    -1.59019  -1.29368  -1.90719
H    -1.26255  -2.98602  -1.60654
H    -1.29194  -2.27750   0.55361
H     0.44087  -2.13771   0.22480
