61
Generated by autodE on: 2022-06-09. E = -1543.104209 Ha. Imaginary frequency = -147.3 cm-1
C    -3.57270  25.43899  22.46301
N    -4.97932  25.36920  22.79778
C    -5.64103  26.44346  23.29876
O    -5.08559  27.55712  23.38804
C    -7.04605  26.30718  23.66759
O    -7.79304  25.20242  23.50771
C    -7.72970  23.97848  23.95590
C    -6.62619  23.21121  24.48753
C    -5.48859  23.72585  25.15663
C    -4.55678  22.85869  25.72110
C    -4.71716  21.47218  25.62322
C    -5.83474  20.94808  24.96294
C    -6.77954  21.80508  24.41035
C    -8.31292  25.21175  26.32163
C    -7.46950  26.08376  26.14224
C    -6.63392  27.16011  26.68592
F    -5.32784  27.04462  26.25684
F    -7.06849  28.37269  26.19328
C    -6.62477  27.19104  28.20838
C    -7.98674  27.00115  28.89127
C    -8.39954  25.53849  29.20225
C    -9.58022  24.95289  28.41489
C    -9.30304  24.35055  26.98005
C    -8.61590  22.95895  27.16498
O    -7.51226  22.89364  27.71414
N    -9.27997  21.88051  26.72234
C    -8.78814  20.52445  26.86157
C   -10.63591  24.29545  26.22379
C   -11.74731  23.65805  26.80616
C   -12.97444  23.60684  26.14160
C   -13.12248  24.20656  24.88720
C   -12.03298  24.86275  24.31072
C   -10.80247  24.90800  24.97383
H    -2.97964  25.78941  23.32279
H    -3.38293  26.12618  21.62156
H    -3.22644  24.43651  22.18193
H    -5.45956  24.48896  22.66362
H    -7.64159  27.20420  23.49063
H    -8.63616  23.43017  23.69204
H    -5.35394  24.79446  25.28412
H    -3.69533  23.27298  26.24950
H    -3.97598  20.80206  26.06457
H    -5.97306  19.86757  24.88742
H    -7.65908  21.39524  23.90963
H    -6.17753  28.15963  28.48260
H    -5.92718  26.40494  28.53518
H    -8.76913  27.50899  28.30264
H    -7.93681  27.54833  29.84452
H    -8.70012  25.49684  30.26099
H    -7.53000  24.87209  29.11396
H   -10.04731  24.15322  29.00909
H   -10.34564  25.73315  28.28575
H   -10.17941  22.01933  26.27473
H    -8.79522  20.01129  25.88908
H    -7.76169  20.55285  27.24236
H    -9.41346  19.94940  27.56374
H   -11.65708  23.19044  27.78775
H   -13.82014  23.09928  26.61146
H   -14.08252  24.16823  24.36734
H   -12.13627  25.34806  23.33727
H    -9.96965  25.43756  24.51352
