29
Generated by autodE on: 2022-07-01. E = -634.411597 Ha
C    -1.21935  -2.51111  -1.41241
C    -1.06441  -1.12457  -0.84574
N    -0.02725  -0.43033  -1.14775
C     0.87526   0.33969  -1.48240
C     2.13947   0.48420  -0.74257
C     2.34187  -0.12152   0.51513
C     3.54484   0.05603   1.19521
C     4.56372   0.83229   0.62622
C     4.37467   1.43537  -0.62120
C     3.16543   1.26765  -1.29908
C    -2.09094  -0.53573   0.03242
C    -1.94082   0.76398   0.56285
C    -2.92189   1.31671   1.38337
C    -4.07448   0.58705   1.70159
C    -4.23282  -0.70265   1.18612
C    -3.25479  -1.26090   0.36003
H    -0.35409  -2.76800  -2.03743
H    -2.13127  -2.58569  -2.02802
H    -1.30529  -3.26128  -0.60956
H     1.54505  -0.72804   0.95291
H     3.69480  -0.41186   2.17112
H     5.50713   0.96819   1.16047
H     5.16905   2.04131  -1.06275
H     2.99946   1.74039  -2.26965
H    -1.04354   1.34101   0.33043
H    -2.78546   2.32496   1.78217
H    -4.84048   1.02083   2.34843
H    -5.12714  -1.28250   1.42725
H    -3.40140  -2.26760  -0.03306
