67
Generated by autodE on: 2022-07-01. E = -1631.336793 Ha. Imaginary frequency = -109.1 cm-1
C     3.28981  -0.72603   2.38660
O     2.38700  -0.60529   1.27975
C     1.41791  -1.50861   1.18920
O     1.28234  -2.40843   1.99724
C     0.54247  -1.39607  -0.05112
C     1.19848  -2.06860  -1.23323
C     2.04256  -3.17101  -1.01412
C     2.72466  -3.78143  -2.07277
C     2.57613  -3.30315  -3.37456
C     1.72958  -2.21219  -3.60807
C     1.05266  -1.60524  -2.55356
C     1.04421   0.71847  -0.77886
C     2.35539   1.30672  -1.04891
C     2.49717   2.70913  -1.07881
C     3.74600   3.28511  -1.30744
C     4.86256   2.47060  -1.52718
C     4.72726   1.07793  -1.50782
C     3.48517   0.49514  -1.25835
N    -0.05741   1.22106  -0.97091
C    -1.34525   1.34546  -0.99832
C    -2.09377   0.98587  -2.25100
C    -1.99296   2.07082   0.10871
C    -1.26178   2.99837   0.87688
C    -1.84693   3.63278   1.97043
C    -3.16876   3.34384   2.32668
C    -3.90509   2.42886   1.56670
C    -3.33038   1.80582   0.45854
C    -0.84040  -1.35688   0.20126
C    -1.81181  -1.82859  -0.79470
O    -1.57729  -2.50660  -1.78820
O    -3.08234  -1.44744  -0.52026
C    -4.10442  -1.94228  -1.38379
C    -1.32686  -0.91679   1.53718
C    -2.39899  -1.56324   2.18881
C    -2.82535  -1.16293   3.45475
C    -2.18879  -0.10855   4.11979
C    -1.11218   0.52962   3.50062
C    -0.69085   0.13209   2.23057
H     2.74503  -0.61548   3.33532
H     4.01752   0.08496   2.26764
H     3.79729  -1.70097   2.36476
H     2.16989  -3.56886  -0.00667
H     3.37605  -4.63483  -1.86980
H     3.11362  -3.77241  -4.20180
H     1.60152  -1.82479  -4.62165
H     0.40890  -0.75338  -2.76039
H     1.62087   3.33892  -0.91142
H     3.84842   4.37258  -1.31979
H     5.84003   2.92224  -1.71212
H     5.59758   0.44117  -1.68092
H     3.38387  -0.58825  -1.23147
H    -3.11605   0.66747  -2.01677
H    -1.59034   0.18328  -2.80450
H    -2.16595   1.87032  -2.90730
H    -0.22707   3.21954   0.60810
H    -1.26675   4.35225   2.55272
H    -3.62464   3.83191   3.19105
H    -4.93592   2.19375   1.84137
H    -3.91013   1.07887  -0.10996
H    -4.13832  -3.04202  -1.36019
H    -3.94316  -1.61200  -2.42011
H    -5.04731  -1.53096  -1.00318
H    -2.90103  -2.39829   1.70089
H    -3.65916  -1.68571   3.93028
H    -2.52655   0.20689   5.10971
H    -0.60366   1.35878   3.99782
H     0.13567   0.66712   1.76657
