40
Generated by autodE on: 2022-06-19. E = -919.281792 Ha
C     3.92352  -1.10250   2.43339
N     2.89834  -0.63247   1.52509
C     3.18080   0.09083   0.43059
O     4.33060   0.41904   0.11145
C     1.99475   0.43271  -0.46545
C     1.76831  -0.66463  -1.51270
C     0.32337  -0.42652  -1.94737
C    -0.38627   0.16755  -0.69253
C    -1.05123   1.50978  -1.08216
O    -0.57195   2.29047  -1.88088
O    -2.14696   1.78047  -0.37531
C    -2.74971   3.06768  -0.57647
C    -1.39449  -0.80676  -0.08615
C    -1.22208  -1.35693   1.18761
C    -2.14928  -2.27314   1.69983
C    -3.25915  -2.65129   0.94213
C    -3.43855  -2.10570  -0.33533
C    -2.51411  -1.19246  -0.84189
N     0.72220   0.47925   0.23738
C     0.54561   1.58641   1.16130
H     4.56756  -0.27175   2.76117
H     4.56792  -1.86261   1.96099
H     3.44526  -1.54745   3.31481
H     1.91878  -0.84820   1.68977
H     2.24483   1.39286  -0.96004
H     1.87604  -1.64885  -1.03238
H     2.48591  -0.60305  -2.34130
H     0.29364   0.31085  -2.75839
H    -0.17320  -1.34069  -2.29408
H    -2.04687   3.86542  -0.29614
H    -3.04578   3.19227  -1.62767
H    -3.63186   3.09194   0.07338
H    -0.35491  -1.06814   1.78160
H    -1.99837  -2.69230   2.69775
H    -3.98198  -3.36696   1.34114
H    -4.30286  -2.39432  -0.93852
H    -2.66328  -0.76965  -1.83913
H     0.57779   2.57763   0.66490
H    -0.41457   1.49257   1.68636
H     1.34365   1.56816   1.91709
