39
Generated by autodE on: 2022-10-21. E = -1013.401679 Ha
C     4.60048  -0.24251   0.26872
O     3.21853  -0.22090  -0.12929
C     2.34956   0.27511   0.74343
O     2.64381   0.70992   1.83578
C     0.93799   0.23081   0.21700
N    -0.04453   0.85884   1.10340
C    -1.13835   0.74333   0.19262
C    -2.41093   1.49241   0.56594
C    -3.35955   1.80422  -0.54523
O    -2.60915   1.76725   1.73353
O    -0.62514   1.26750  -1.09734
C     0.69218   0.97144  -1.10790
O     1.43417   1.24951  -2.01339
C    -1.26272  -0.81047   0.01893
C    -2.07856  -1.39908   1.16468
O    -1.87472  -1.02397  -1.23787
C    -2.47714  -2.28570  -1.48322
C     0.29732  -1.21294   0.02361
C     0.70705  -2.09020   1.20977
C     0.74056  -1.88297  -1.27786
H     4.95392   0.77909   0.46653
H     5.14746  -0.68063  -0.57322
H     4.72532  -0.85861   1.17023
H     0.18351   1.83615   1.30109
H    -3.54542   0.89367  -1.13553
H    -4.29408   2.21316  -0.14146
H    -2.89085   2.53171  -1.22734
H    -1.71173  -1.03034   2.12867
H    -3.13354  -1.10620   1.06167
H    -2.02598  -2.49454   1.17347
H    -1.82169  -3.12629  -1.20743
H    -2.66984  -2.33230  -2.56429
H    -3.43660  -2.39426  -0.95112
H     0.52912  -1.59756   2.17361
H     0.15303  -3.03870   1.19480
H     1.77812  -2.33448   1.13874
H     1.83731  -1.92817  -1.31726
H     0.35994  -2.91301  -1.31706
H     0.38148  -1.35912  -2.17209
