19
Generated by autodE on: 2022-10-21. E = -311.210319 Ha
C     2.37784  -0.24348   0.67356
O     1.27743  -0.53702  -0.17465
C     0.18899   0.32701  -0.12742
C     0.53494   1.78631  -0.19736
C    -1.04798  -0.21402  -0.08892
C    -1.26300  -1.70321  -0.01430
C    -2.31765   0.59225  -0.14496
H     3.06833  -1.09589   0.60256
H     2.91741   0.66776   0.36485
H     2.06032  -0.13110   1.72552
H    -0.34864   2.41139  -0.36827
H     1.25021   1.96664  -1.01763
H     1.01546   2.13747   0.73125
H    -1.94093  -1.95431   0.82064
H    -0.32563  -2.25705   0.11834
H    -1.75556  -2.07516  -0.93133
H    -2.15623   1.67358  -0.23787
H    -2.92429   0.41932   0.76205
H    -2.94335   0.26908  -0.99660
