39
Generated by autodE on: 2022-10-21. E = -1013.356441 Ha. Imaginary frequency = -475.6 cm-1
C     4.62796  -0.23402   0.43568
O     3.33281   0.10491  -0.08153
C     2.40961   0.47066   0.81454
O     2.60905   0.53565   2.01722
C     1.11249   0.71913   0.20839
N     0.03417   1.13532   0.95607
C    -1.04845   0.96482   0.12969
C    -2.37752   1.52589   0.52361
C    -3.35905   1.78349  -0.57128
O    -2.60041   1.69875   1.71119
O    -0.60285   1.19663  -1.15959
C     0.77126   0.92862  -1.17712
O     1.39709   0.90737  -2.21503
C    -1.27203  -1.04144   0.03119
C    -2.06863  -1.36333   1.28028
O    -2.00658  -1.09344  -1.16294
C    -2.63669  -2.34003  -1.43556
C     0.08525  -1.50163  -0.05528
C     0.74541  -2.03735   1.18250
C     0.64494  -1.99280  -1.35701
H     5.07314   0.62799   0.95282
H     5.23501  -0.51005  -0.43391
H     4.55314  -1.08121   1.13253
H    -0.03768   0.95142   1.95577
H    -3.49217   0.85969  -1.15569
H    -4.31319   2.12360  -0.15016
H    -2.95191   2.54081  -1.26061
H    -1.61537  -0.90811   2.17138
H    -3.09727  -0.98889   1.19063
H    -2.11164  -2.45107   1.45039
H    -1.92343  -3.17937  -1.38091
H    -3.03591  -2.27665  -2.45741
H    -3.47046  -2.53688  -0.74092
H     0.61629  -1.39209   2.06304
H     0.28661  -3.01114   1.43711
H     1.81886  -2.20938   1.02182
H     1.72806  -1.81047  -1.41436
H     0.49924  -3.08721  -1.41750
H     0.15460  -1.54111  -2.22672
