53
Generated by autodE on: 2022-06-05. E = -1227.621517 Ha
C    -2.57683   3.63483   1.33035
O    -1.82223   2.46342   1.68598
C    -0.68093   2.26198   1.04367
O    -0.18008   3.03320   0.26046
C    -0.05770   0.89121   1.41004
C    -0.22732   0.72532   2.86307
N    -0.33481   0.61625   4.01270
N     1.35941   0.96077   1.09351
C     1.66916   0.11207   0.18052
C     3.04034   0.13958  -0.38912
C     3.79115   1.32621  -0.26592
C     5.08203   1.41419  -0.78201
C     5.65386   0.31508  -1.43277
C     4.92033  -0.86638  -1.56563
C     3.62347  -0.95435  -1.05417
C     0.57230  -0.84505  -0.26891
C     0.46443  -0.91056  -1.79907
C     0.81348  -2.26777   0.35949
C    -0.27455  -3.23750  -0.13340
C    -1.54368  -2.71809   0.59603
C    -1.00947  -1.55359   1.46787
C     0.39442  -2.07401   1.81822
C    -0.70628  -0.32337   0.56024
C    -1.92843   0.18663  -0.19546
C    -3.21940  -0.04099   0.31480
C    -4.34951   0.50672  -0.29467
C    -4.21996   1.30247  -1.43631
C    -2.94515   1.55425  -1.94677
C    -1.81625   1.00801  -1.32968
H    -2.00774   4.54195   1.57710
H    -3.49815   3.58756   1.92079
H    -2.80737   3.61824   0.25626
H     3.33747   2.18370   0.23076
H     5.64368   2.34576  -0.68137
H     6.66606   0.38201  -1.83844
H     5.35775  -1.72994  -2.07147
H     3.08183  -1.89052  -1.17057
H     1.18079  -1.64083  -2.19887
H     0.68422   0.05545  -2.27148
H    -0.53804  -1.22247  -2.11611
H     1.83414  -2.63163   0.19956
H    -0.01938  -4.25888   0.18568
H    -0.38178  -3.25584  -1.22497
H    -1.97763  -3.48987   1.24829
H    -2.32757  -2.40274  -0.10239
H    -1.65607  -1.31209   2.31896
H     0.35759  -3.02115   2.37627
H     1.02752  -1.37532   2.37912
H    -3.35277  -0.63898   1.21542
H    -5.33708   0.31195   0.13026
H    -5.10320   1.73098  -1.91568
H    -2.82038   2.18871  -2.82741
H    -0.83562   1.26343  -1.72237
