9
Generated by autodE on: 2022-05-28. E = -689.705307 Ha
C    -2.71853  -0.44226   0.16089
C    -1.67113   0.56692  -0.20908
O    -1.92991   1.68883  -0.61977
C    -0.28775   0.13929  -0.05258
C     0.86284  -0.22742   0.08324
Cl    2.41617  -0.71452   0.26372
H    -2.58732  -1.35202  -0.44776
H    -2.58995  -0.73878   1.21490
H    -3.71953  -0.01937   0.00360
