31
Generated by autodE on: 2022-05-28. E = -1186.467077 Ha. Imaginary frequency = -198.8 cm-1
C    -3.94065  -0.11222   1.34093
C    -3.38906  -0.84711   0.14082
O    -4.11785  -1.22493  -0.78216
C    -1.98401  -1.13331   0.16771
C    -0.76877  -1.35706   0.22356
Cl    0.56090  -2.30787   0.57843
C     0.29844   0.62052  -0.74288
C     0.38555  -0.02402  -2.00439
N     0.47517  -0.56656  -3.03520
C     1.56169   0.80334   0.00673
C     1.60689   0.78916   1.41525
C     2.81908   0.92682   2.09042
C     4.01658   1.05500   1.37865
C     3.98967   1.04269  -0.01883
C     2.77624   0.91971  -0.69722
N    -0.83215   1.40270  -0.53793
C    -0.85682   2.37712   0.56774
C    -1.97328   1.14918  -1.14366
H    -4.11238  -0.84339   2.14954
H    -4.90192   0.35142   1.07852
H    -3.23728   0.64454   1.71608
H     0.69169   0.64190   1.98795
H     2.82946   0.91459   3.18284
H     4.96542   1.15386   1.91084
H     4.91795   1.13572  -0.58730
H     2.76766   0.91950  -1.78926
H    -1.04130   1.85677   1.51561
H     0.09857   2.90887   0.61554
H    -1.66673   3.08887   0.37820
H    -2.00000   0.45149  -1.97768
H    -2.83251   1.77983  -0.92653
