36
Generated by autodE on: 2022-06-17. E = -692.462696 Ha
C    -1.73732  -0.61526  -4.88707
C    -1.93905  -0.63336  -3.55403
C    -3.20506  -1.18073  -2.94986
C    -0.90248  -0.10961  -2.65728
C    -0.97663  -0.06880  -1.31460
C     0.11424   0.47350  -0.44463
C    -0.31483   1.54381   0.53816
C    -1.23945   2.65176   0.18613
N     0.24792   1.44072   1.68691
N     1.04279   0.30500   1.69913
C     1.71623  -0.05242   2.82758
C     1.68314   0.92867   3.97441
O     2.32844  -1.12401   2.90085
C     0.82293  -0.55781   0.49426
C    -0.08525  -1.72803   0.88487
C     2.12241  -1.04868  -0.13548
H    -0.81259  -0.21522  -5.31410
H    -2.48796  -0.99920  -5.58362
H    -2.98752  -2.01612  -2.26366
H    -3.89410  -1.54084  -3.72675
H    -3.72445  -0.41185  -2.35392
H     0.00132   0.27569  -3.14404
H    -1.86872  -0.44054  -0.80381
H     0.87687   0.93741  -1.09622
H    -2.23440   2.25337  -0.07304
H    -0.87109   3.18383  -0.70717
H    -1.34132   3.36212   1.01756
H     2.02352   1.92510   3.65866
H     2.33165   0.54567   4.77224
H     0.65671   1.04093   4.35495
H     0.41341  -2.34966   1.64074
H    -1.03947  -1.36932   1.29891
H    -0.30135  -2.35412   0.00715
H     1.89128  -1.49626  -1.11492
H     2.61491  -1.80561   0.48706
H     2.81957  -0.21274  -0.29623
