36
Generated by autodE on: 2022-06-17. E = -692.367144 Ha. Imaginary frequency = -394.3 cm-1
C    -2.53046   0.47347  -4.56543
C    -2.25967  -0.17991  -3.41455
C    -3.23209  -1.17115  -2.82851
C    -1.00336   0.07094  -2.70879
C    -0.61901  -0.51830  -1.55163
C     0.63392  -0.22269  -0.86631
C     0.00257   1.56904   0.34620
C    -0.39279   2.66157  -0.53674
N     0.06769   1.17278   1.47999
N     0.28992   0.04092   2.09049
C     1.09583   0.06103   3.19106
C     1.61180   1.38307   3.71132
O     1.41838  -1.01342   3.71906
C     1.22049  -1.05336   0.08566
C     0.65134  -2.38511   0.48375
C     2.65262  -0.81126   0.46889
H    -1.82205   1.19291  -4.98773
H    -3.46332   0.30633  -5.11107
H    -2.77269  -2.16898  -2.73205
H    -4.13162  -1.26380  -3.45324
H    -3.54373  -0.86984  -1.81453
H    -0.33121   0.80257  -3.17238
H    -1.28239  -1.24818  -1.08068
H     1.29939   0.48978  -1.36645
H    -1.24186   2.34675  -1.16237
H     0.43831   2.94050  -1.20141
H    -0.69287   3.53170   0.06719
H     2.28867   1.83078   2.96463
H     2.16174   1.22065   4.64672
H     0.78987   2.09580   3.87578
H     0.94040  -2.63846   1.51287
H    -0.44293  -2.42474   0.41075
H     1.06109  -3.16842  -0.18161
H     3.31278  -1.42167  -0.17554
H     2.85400  -1.11489   1.50628
H     2.93839   0.24305   0.33828
