65
Generated by autodE on: 2022-10-23. E = -1645.530303 Ha
C    11.11323   1.10579   9.33403
O    10.40117  -0.13679   9.43684
C     9.10994  -0.09623   9.10757
O     8.51197   0.89786   8.72873
N     8.53278  -1.34167   9.15818
O     9.29495  -2.42602   9.61164
N     8.48431  -3.04014  10.65324
C     8.92728  -2.53971  11.93789
C     9.73640  -3.37733  12.71045
C    10.22328  -2.93188  13.94083
C     9.90551  -1.64688  14.39440
C     9.09950  -0.80982  13.61577
C     8.60416  -1.25281  12.38700
C     7.13576  -2.70236  10.25855
C     7.15534  -1.70112   9.35085
C     6.12193  -0.93642   8.54775
C     5.99778   0.43540   9.26300
O     6.14936   0.55869  10.46296
O     5.60467   1.43539   8.48879
C     5.45900   2.71923   9.11501
C     6.50481  -0.89178   7.05124
C     7.45585  -1.78119   6.52140
C     7.73164  -1.81805   5.15118
C     7.05281  -0.97523   4.27005
C     6.07624  -0.11384   4.77642
C     5.79895  -0.08123   6.14494
C     4.69162  -1.55333   8.64712
C     4.52793  -2.94195   7.99817
C     4.27235  -4.09442   8.96882
C     5.45274  -4.57134   9.81370
C     6.03317  -3.59541  10.85920
O     6.71533  -4.31255  11.87578
C     5.95758  -5.20480  12.67860
O     4.95462  -2.88534  11.41238
C     5.24548  -1.96917  12.46450
H    12.14574   0.88026   9.62409
H    10.68245   1.85303  10.01556
H    11.08193   1.48376   8.30230
H     9.96834  -4.37684  12.33890
H    10.85015  -3.58900  14.54780
H    10.28535  -1.29793  15.35741
H     8.84978   0.19358  13.96805
H     7.96457  -0.60264  11.79006
H     5.13863   3.40424   8.32185
H     6.42220   3.04263   9.53456
H     4.70421   2.67580   9.91265
H     7.98465  -2.47765   7.16945
H     8.47978  -2.52033   4.77580
H     7.26975  -1.00044   3.19957
H     5.51415   0.53660   4.10181
H     5.01534   0.58121   6.50347
H     4.39818  -1.58367   9.70236
H     4.02413  -0.83416   8.15432
H     3.67807  -2.89446   7.30016
H     5.40424  -3.18344   7.37735
H     3.94011  -4.96537   8.38001
H     3.43260  -3.83949   9.63466
H     5.11687  -5.45902  10.36804
H     6.28577  -4.89918   9.17285
H     5.85667  -6.19728  12.20851
H     6.51039  -5.32058  13.62184
H     4.95490  -4.80932  12.90110
H     5.70439  -1.05247  12.07197
H     5.90441  -2.41733  13.22281
H     4.28237  -1.71908  12.93044
