44
Generated by autodE on: 2022-10-23. E = -1000.441154 Ha
C     3.27033   2.41559  -1.58586
O     2.04865   2.15364  -0.87479
C     1.81629   0.89279  -0.52425
O     2.55832  -0.02845  -0.79163
C     0.52140   0.73152   0.29919
C     0.91258   0.83142   1.78126
C     0.64123  -0.21567   2.67056
C     0.97817  -0.10390   4.02292
C     1.59485   1.05517   4.50071
C     1.87315   2.10257   3.61645
C     1.53507   1.99263   2.26584
C    -0.07700  -0.54929  -0.07495
C    -0.79759  -1.35792  -0.61777
C    -1.92896  -1.77437  -1.48277
O    -3.08063  -2.04916  -0.72991
C    -2.94054  -3.05284   0.26727
O    -1.66613  -2.92939  -2.25861
C    -0.35606  -3.06947  -2.78110
C    -2.25885  -0.56664  -2.38411
C    -2.42489   0.79199  -1.67688
C    -1.16831   1.68617  -1.47939
C    -0.56497   1.79466  -0.06351
H     4.13608   2.13717  -0.96845
H     3.29038   1.84909  -2.52734
H     3.27501   3.49255  -1.78750
H     0.16038  -1.12465   2.30376
H     0.75719  -0.92934   4.70378
H     1.85954   1.14226   5.55706
H     2.35796   3.01219   3.97866
H     1.76223   2.81467   1.58528
H    -3.92377  -3.16789   0.74282
H    -2.20336  -2.75488   1.03360
H    -2.63255  -4.01594  -0.16923
H     0.39488  -3.16597  -1.97756
H    -0.35239  -3.98720  -3.38534
H    -0.07035  -2.22021  -3.42602
H    -1.47468  -0.49692  -3.15343
H    -3.19469  -0.84124  -2.89631
H    -2.93227   0.63601  -0.71048
H    -3.13580   1.36703  -2.28971
H    -0.38444   1.39509  -2.19951
H    -1.45383   2.71085  -1.76286
H    -0.11167   2.78550   0.07223
H    -1.36285   1.70371   0.68945
