49
Generated by autodE on: 2022-06-03. E = -1290.969551 Ha
C     1.88044   1.67724  -4.54857
N     0.88441   1.08140  -3.68090
C     0.70605   1.50817  -2.42277
O     1.30131   2.45335  -1.90319
N    -0.32454   0.86069  -1.69704
C    -0.20189   0.69588  -0.26829
C    -0.25846  -0.62192  -0.01493
O    -0.45178  -1.33637  -1.18428
N    -0.80184  -0.36335  -2.21622
C    -2.25870  -0.37744  -2.33370
C    -0.29391  -1.44895   1.24080
C     0.90407  -1.13086   2.17290
C     0.84143  -1.64916   3.58045
O     1.88033  -0.54020   1.74727
C    -0.02546  -2.95821   0.84379
O    -0.86983  -3.83313   1.00601
N     1.20177  -3.20617   0.36155
C     1.57942  -4.52486  -0.11254
C    -1.70160  -1.35458   1.91649
C    -2.54176  -0.09934   1.66659
C    -2.08947   1.21573   2.30715
C    -0.64093   1.65932   2.12600
C    -0.12325   1.89654   0.66074
C     1.27594   2.36613   0.82051
N     2.34866   2.71599   1.08512
C    -0.92103   2.99233   0.06972
N    -1.59544   3.84157  -0.33768
H     1.65921   1.40208  -5.58758
H     1.85316   2.77210  -4.45965
H     2.90132   1.33803  -4.30473
H     0.41091   0.22370  -3.95049
H    -2.51998   0.33530  -3.12755
H    -2.56366  -1.38585  -2.64137
H    -2.76834  -0.09663  -1.39874
H     0.23111  -0.96111   4.18869
H     1.85597  -1.68139   3.99716
H     0.36729  -2.63993   3.63271
H     1.82680  -2.42780   0.17617
H     1.36022  -5.28375   0.65231
H     1.03276  -4.79401  -1.03136
H     2.65548  -4.53026  -0.32421
H    -2.26945  -2.21412   1.54003
H    -1.58742  -1.51743   2.99667
H    -3.54625  -0.31844   2.06326
H    -2.68574   0.04067   0.58719
H    -2.75859   2.01927   1.95817
H    -2.23571   1.14979   3.39813
H     0.05458   0.96577   2.60761
H    -0.49873   2.61706   2.64702
