49
Generated by autodE on: 2022-06-03. E = -1290.889947 Ha. Imaginary frequency = -359.9 cm-1
C     3.81364   1.92576  -2.36632
N     2.45793   1.45977  -2.59433
C     1.48247   1.73574  -1.71111
O     1.63066   2.48226  -0.74917
N     0.19083   1.20220  -2.05341
C    -0.46673   0.85152  -0.04394
C     0.01624  -0.26636   0.21000
O     0.81424  -0.86153  -1.61724
N     0.15340  -0.05662  -2.35176
C    -1.09633  -0.55989  -2.92413
C     0.33273  -1.38680   1.10299
C     1.85823  -1.55650   1.30955
C     2.75432  -0.43161   0.89379
O     2.29396  -2.55976   1.85044
C    -0.40809  -2.65260   0.59204
O    -1.41353  -2.53663  -0.11797
N     0.04739  -3.83487   1.01571
C    -0.60658  -5.07611   0.65030
C    -0.23337  -1.01525   2.52867
C    -1.70585  -0.56135   2.51152
C    -1.96740   0.91848   2.83342
C    -1.25986   2.01424   2.02764
C    -1.37856   1.91287   0.46037
C    -1.12099   3.24862  -0.12137
N    -0.99617   4.32711  -0.52503
C    -2.75664   1.54091   0.06192
N    -3.83122   1.22272  -0.23306
H     3.83575   3.01879  -2.24596
H     4.42861   1.65245  -3.23226
H     4.24871   1.47062  -1.46115
H     2.28791   0.79244  -3.33957
H    -1.43889   0.13121  -3.70144
H    -1.83681  -0.62650  -2.11092
H    -0.90509  -1.55682  -3.33604
H     2.79742  -0.41789  -0.20647
H     3.75972  -0.58687   1.30456
H     2.34764   0.54078   1.20456
H     0.90826  -3.83461   1.56164
H    -0.59240  -5.23250  -0.44034
H    -0.08143  -5.90866   1.13396
H    -1.65782  -5.07992   0.97794
H    -0.09549  -1.90050   3.16395
H     0.41078  -0.22379   2.94333
H    -2.25935  -1.14834   3.26020
H    -2.16689  -0.82275   1.54767
H    -3.05483   1.08584   2.76953
H    -1.69461   1.10783   3.88493
H    -0.18000   2.04125   2.23106
H    -1.67766   2.98532   2.32993
