28
Generated by autodE on: 2022-05-28. E = -927.449704 Ha
C    -3.89228   1.92370  -1.06861
O    -2.66373   1.19071  -0.97432
C    -1.78220   1.61611  -0.06344
O    -1.95488   2.59330   0.64676
C    -0.56985   0.80277  -0.02812
C     0.59790   1.12617   0.57245
N     1.55064   0.18794   0.24760
C     2.90605   0.29828   0.48732
O     3.38730   1.14019   1.21985
O     3.56765  -0.65194  -0.16921
C     4.99538  -0.66500  -0.00540
N     1.03460  -0.59230  -0.87258
N    -0.38752  -0.46801  -0.68880
C    -1.00913  -1.61669  -0.18525
O    -0.51273  -2.72359  -0.28479
O    -2.19439  -1.33877   0.33727
C    -2.97833  -2.45439   0.79206
H    -4.43014   1.89775  -0.10976
H    -4.48126   1.42485  -1.84677
H    -3.69874   2.96897  -1.35016
H     0.84938   1.99232   1.17978
H     5.35654  -1.50246  -0.61259
H     5.25627  -0.81894   1.05115
H     5.42903   0.27982  -0.36221
H     1.25476  -1.58181  -0.69745
H    -2.45352  -2.98526   1.59866
H    -3.17826  -3.14386  -0.04009
H    -3.91506  -2.02573   1.16514
