18
Generated by autodE on: 2022-05-28. E = -622.016853 Ha
C    -2.57195   1.92930  -0.20707
O    -2.32844   0.61644   0.32474
C    -1.38380  -0.09380  -0.27576
O    -0.76166   0.26077  -1.26003
N    -1.31243  -1.36497   0.30344
N    -0.17813  -1.95959   0.35102
N     1.04310  -1.58889   0.22182
C     1.34839  -0.22890   0.32583
O     0.80757   0.55509   1.08450
O     2.40413   0.04825  -0.42748
C     2.89347   1.39821  -0.36601
H    -1.65306   2.53092  -0.16361
H    -2.92239   1.86128  -1.24678
H    -3.34798   2.37003   0.42863
H    -0.26788  -2.97027   0.53672
H     3.73763   1.44207  -1.06322
H     2.10556   2.10036  -0.67336
H     3.22677   1.63792   0.65375
