28
Generated by autodE on: 2022-05-28. E = -927.353208 Ha. Imaginary frequency = -396.5 cm-1
C    -3.96221   1.85553  -0.28833
O    -2.53897   1.96864  -0.43573
C    -1.79517   1.43423   0.54551
O    -2.26827   0.88917   1.53293
C    -0.39369   1.55222   0.29143
C     0.83830   1.76364   0.20713
N     1.75857   0.37486  -0.58623
C     3.08739   0.27076  -0.13435
O     3.76096   1.25026   0.09661
O     3.49139  -0.99167  -0.04165
C     4.84690  -1.20517   0.39538
N     1.00178  -0.68186  -0.42454
N    -0.20454  -0.56204  -0.86145
C    -1.06398  -1.50792  -0.25114
O    -0.71707  -2.35656   0.54632
O    -2.29507  -1.30114  -0.68263
C    -3.33275  -2.08920  -0.07473
H    -4.39379   2.34807  -1.16739
H    -4.29868   2.35739   0.63035
H    -4.26502   0.79902  -0.26014
H     1.65836   2.44155   0.41700
H     5.54740  -0.72843  -0.30408
H     4.98918  -2.29129   0.39928
H     4.98737  -0.79436   1.40479
H     1.19853  -1.35734   0.34208
H    -3.13976  -3.15912  -0.23429
H    -4.26306  -1.79006  -0.56925
H    -3.38258  -1.87169   1.00111
