37
Generated by autodE on: 2022-06-18. E = -917.795407 Ha
C    -2.45664   1.96885  -1.94371
C    -1.74987   1.30862  -0.77163
C    -1.92075  -0.23305  -0.72888
C    -3.00170  -0.66271   0.23820
O    -4.05793  -0.04996   0.31968
C    -2.77549  -1.86576   1.06771
C    -1.58099  -2.48207   1.15352
C    -0.38735  -2.01504   0.42362
O     0.68531  -2.59052   0.54639
C    -0.51331  -0.80213  -0.47483
C     0.30096   0.43825   0.02579
C    -0.02208   0.66212   1.46681
N    -0.36969   0.89098   2.55029
C     1.80461   0.28797  -0.17332
C     2.32288   0.34527  -1.47495
C     3.68892   0.16966  -1.69802
C     4.55374  -0.06823  -0.62363
C     4.04139  -0.12707   0.67403
C     2.67261   0.05160   0.89834
N    -0.29033   1.50208  -0.78447
C     0.14702   2.84813  -0.45229
H    -2.32779   3.06129  -1.93148
H    -2.07629   1.57808  -2.90057
H    -3.53366   1.75533  -1.88093
H    -2.16855   1.72942   0.16485
H    -2.27118  -0.59377  -1.70990
H    -3.63722  -2.21135   1.64485
H    -1.43425  -3.35753   1.79137
H    -0.05108  -1.08035  -1.43035
H     1.65148   0.53146  -2.31355
H     4.08059   0.21882  -2.71667
H     5.62314  -0.20602  -0.79938
H     4.70677  -0.31187   1.52039
H     2.28470   0.00133   1.91723
H    -0.25072   3.55840  -1.18952
H    -0.19027   3.17257   0.55333
H     1.24388   2.90525  -0.48730
