25
Generated by autodE on: 2022-06-18. E = -536.091050 Ha
C    -3.21755   1.67102   1.00389
C    -1.99376   1.13199   0.36015
N    -1.73502  -0.14704   0.24018
C    -2.76744  -1.10591   0.68299
C    -0.50933  -0.66608  -0.22660
C    -0.54820  -1.91934  -0.85003
N    -0.53460  -2.97324  -1.37221
C     0.76520   0.04746  -0.13635
C     1.03485   1.05652   0.82154
C     2.29983   1.63300   0.92932
C     3.34571   1.24152   0.08543
C     3.09893   0.24883  -0.86883
C     1.83739  -0.33392  -0.98116
H    -3.14306   2.76339   1.07940
H    -3.36762   1.25660   2.01556
H    -4.12590   1.42812   0.42330
H    -1.24790   1.81642  -0.04300
H    -3.73118  -0.85603   0.22385
H    -2.47673  -2.11926   0.39495
H    -2.85969  -1.05246   1.77637
H     0.25542   1.38786   1.50898
H     2.46849   2.40149   1.68838
H     4.33143   1.70458   0.16771
H     3.89681  -0.07395  -1.54290
H     1.67246  -1.10515  -1.73655
