12
Generated by autodE on: 2022-06-18. E = -381.636095 Ha
O     0.49939   2.61587   0.13670
C     0.26984   1.41243   0.07387
C     1.37094   0.42547  -0.03882
C     1.11899  -0.89335  -0.10777
C    -0.26983  -1.41243  -0.07376
O    -0.49940  -2.61587  -0.13676
C    -1.37094  -0.42547   0.03880
C    -1.11899   0.89335   0.10776
H     2.38521   0.83078  -0.06279
H     1.91348  -1.63860  -0.19236
H    -2.38522  -0.83078   0.06270
H    -1.91349   1.63860   0.19228
