16
Generated by autodE on: 2022-05-29. E = -326.040237 Ha
C    -1.68089   0.11902  -0.94117
N    -1.17572   0.29811   0.25246
C    -2.07522   0.74128   1.33640
C     0.14431   0.11770   0.64026
C     1.17440  -0.29227  -0.22452
C     2.55532  -0.43524   0.39091
O     1.03760  -0.54520  -1.45423
H    -2.74453   0.30493  -1.08465
H    -1.01690  -0.20781  -1.73704
H    -3.09163   0.85587   0.94676
H    -1.71304   1.69901   1.73193
H    -2.06168  -0.00695   2.13959
H     0.33584   0.32229   1.69017
H     2.58353  -0.19142   1.46228
H     2.90984  -1.46985   0.24958
H     3.26127   0.22064  -0.14521
