19
Generated by autodE on: 2022-05-29. E = -461.261363 Ha
C    -3.96706  -0.70576   0.15174
C    -3.09840   0.50514   0.35184
O    -3.54855   1.61121   0.63062
C    -1.67411   0.30002   0.19523
C    -0.47631   0.11041   0.06028
C     0.92310  -0.10663  -0.09586
C     1.82954   0.96744   0.03634
C     3.19682   0.74768  -0.11731
C     3.67537  -0.53650  -0.40183
C     2.78286  -1.60656  -0.53417
C     1.41340  -1.39884  -0.38352
H    -3.66776  -1.50025   0.85463
H    -5.02167  -0.44063   0.30495
H    -3.81965  -1.10323  -0.86590
H     1.44889   1.96589   0.25867
H     3.89452   1.58159  -0.01463
H     4.74823  -0.70415  -0.52105
H     3.15774  -2.60805  -0.75602
H     0.71109  -2.22809  -0.48530
