35
Generated by autodE on: 2022-05-29. E = -787.302411 Ha. Imaginary frequency = -272.3 cm-1
C     2.29220   2.39865  -0.69628
C     1.54674   1.82758   0.49141
O     1.89300   2.11452   1.65070
C     0.40861   1.02146   0.22215
C    -0.59988   0.32871  -0.02209
C    -2.02805   0.22234  -0.25718
C    -2.64605   1.10249  -1.16767
C    -4.02059   1.02793  -1.39638
C    -4.79754   0.07867  -0.72396
C    -4.19031  -0.79897   0.18065
C    -2.81572  -0.73410   0.41100
C     0.07697  -1.72000  -0.33813
N     1.26242  -1.45715  -0.90530
C     1.29180  -1.30622  -2.36915
C     2.30899  -0.92396  -0.22777
C     2.52200  -1.03973   1.19611
C     3.79917  -0.42308   1.71049
O     1.72708  -1.58056   1.98458
H     1.96767   1.96647  -1.65210
H     2.12930   3.48928  -0.71766
H     3.37090   2.22804  -0.55855
H    -2.03777   1.84279  -1.69093
H    -4.48744   1.71629  -2.10488
H    -5.87326   0.02201  -0.90549
H    -4.79137  -1.54165   0.71045
H    -2.34575  -1.42218   1.11606
H     0.07285  -1.93985   0.72516
H    -0.69022  -2.13483  -0.99046
H     1.00898  -0.27474  -2.62729
H     0.58113  -2.00739  -2.82028
H     2.30277  -1.51264  -2.73871
H     3.12696  -0.56483  -0.84877
H     4.59230  -0.38072   0.95137
H     3.56678   0.61111   2.02358
H     4.14508  -0.97579   2.59552
