31
Generated by autodE on: 2022-10-21. E = -618.602865 Ha
C     1.67542   3.13545   0.24306
O     0.71213   2.10141   0.05510
C     1.02343   0.84731   0.45008
C     0.18837  -0.23105   0.39687
C    -1.18478  -0.32189  -0.09108
C    -1.99765   0.82182  -0.28111
C    -3.30731   0.70642  -0.74578
C    -3.85307  -0.54865  -1.04143
C    -3.06548  -1.68990  -0.86137
C    -1.75505  -1.58023  -0.39237
C     1.07861  -1.43494   0.71519
C     2.00614  -1.65122  -0.52179
C     2.92671  -0.39580  -0.48078
C     2.42256   0.36477   0.79213
C     2.07352  -0.81641   1.71440
H     1.20773   4.06036  -0.11844
H     1.93394   3.25312   1.30753
H     2.59084   2.94360  -0.33834
H    -1.59248   1.80697  -0.05405
H    -3.91068   1.60851  -0.87786
H    -4.87914  -0.63484  -1.40664
H    -3.47396  -2.67812  -1.08854
H    -1.16082  -2.48623  -0.26428
H     0.54917  -2.33638   1.04742
H     2.59117  -2.57742  -0.41240
H     1.42530  -1.72812  -1.45209
H     3.98428  -0.67322  -0.35597
H     2.84735   0.22960  -1.38152
H     3.11817   1.11889   1.17603
H     2.93889  -1.46348   1.92722
H     1.60094  -0.50206   2.65646
