27
Generated by autodE on: 2022-10-21. E = -687.350711 Ha
N    -0.66909   4.18187  -2.45199
C    -0.54860   3.43755  -1.55747
C    -0.43752   2.72343  -0.35036
N    -0.21892   1.51646  -0.22915
C    -0.02998   0.28467   0.06707
C    -1.21796  -0.59727   0.15229
C    -1.23739  -1.69768   1.02906
C    -2.37797  -2.49572   1.12870
C    -3.51047  -2.20937   0.35987
C    -3.50023  -1.11301  -0.50924
C    -2.36431  -0.31095  -0.61268
C     1.35705  -0.18158   0.30301
C     2.31810   0.70537   0.82205
C     3.62924   0.28019   1.03191
C     4.00210  -1.03181   0.71902
C     3.05503  -1.91533   0.19206
C     1.73972  -1.49705  -0.01586
H    -0.36729  -1.91948   1.64773
H    -2.38276  -3.34383   1.81708
H    -4.39972  -2.83895   0.43789
H    -4.38023  -0.88430  -1.11456
H    -2.35821   0.53706  -1.30090
H     2.03163   1.72995   1.06868
H     4.36380   0.97572   1.44400
H     5.02995  -1.36347   0.88274
H     3.34182  -2.93758  -0.06468
H     1.01292  -2.18975  -0.44143
