58
Generated by autodE on: 2022-10-21. E = -1305.955236 Ha. Imaginary frequency = -279.2 cm-1
C    -2.66066  -3.02261  -1.18492
O    -2.04078  -2.02745  -0.37922
C    -1.54943  -0.91086  -0.98804
C     0.25607  -1.71209  -1.95443
C     0.19346  -2.54102  -3.09739
N    -0.03852  -3.19679  -4.03620
N     1.28438  -1.28490  -1.40858
C     1.65161  -0.43252  -0.45345
C     2.03594  -1.01617   0.83993
C     1.63778  -2.33737   1.14626
C     1.95208  -2.91770   2.37191
C     2.65889  -2.19104   3.33511
C     3.07231  -0.88744   3.04333
C     2.77956  -0.31005   1.80824
C     1.96997   0.93895  -0.89859
C     1.90503   2.04566  -0.02718
C     2.14689   3.33648  -0.49759
C     2.46265   3.55754  -1.84156
C     2.53102   2.46814  -2.71652
C     2.29026   1.17609  -2.25233
C    -1.05211   0.16455  -0.21422
C    -0.92823   0.23360   1.23312
C    -0.92459  -0.90868   2.07308
C    -0.75942  -0.79471   3.45255
C    -0.60257   0.45738   4.05667
C    -0.62615   1.60132   3.25102
C    -0.78869   1.49370   1.87011
C    -1.31933   1.40838  -1.06157
C    -2.85356   1.67384  -0.92884
C    -3.47587   0.45796  -1.67823
C    -2.22281  -0.29978  -2.21704
C    -1.26818   0.86646  -2.50050
H    -2.94634  -3.83621  -0.50538
H    -3.56413  -2.63687  -1.68266
H    -1.96983  -3.41772  -1.94454
H     1.07078  -2.91427   0.41552
H     1.62954  -3.93988   2.58197
H     2.89498  -2.64061   4.30220
H     3.64192  -0.31551   3.77933
H     3.15228   0.68927   1.59623
H     1.61563   1.90841   1.01116
H     2.07602   4.17839   0.19515
H     2.65419   4.56986  -2.20441
H     2.78097   2.62366  -3.76863
H     2.36053   0.33382  -2.94223
H    -1.04459  -1.89282   1.63101
H    -0.74395  -1.70117   4.06320
H    -0.46886   0.54106   5.13770
H    -0.51588   2.59118   3.70186
H    -0.80345   2.40317   1.27036
H    -0.68648   2.27678  -0.84717
H    -3.11948   2.62366  -1.41836
H    -3.16791   1.73655   0.12223
H    -4.11233   0.77744  -2.51672
H    -4.08239  -0.18337  -1.02254
H    -2.42095  -0.99786  -3.03921
H    -1.67809   1.57738  -3.23309
H    -0.26921   0.55696  -2.82803
