25
Generated by autodE on: 2022-05-30. E = -464.923960 Ha
C     2.20128  -1.81795  -0.34827
C     1.83006  -0.36526  -0.16549
O     2.67756   0.51819  -0.32597
C     0.44199  -0.08031   0.21463
C    -0.20803   1.11865   0.15239
C     0.26289   2.46026  -0.27844
C    -1.66719   0.84308   0.46112
C    -2.22029   0.08999  -0.79587
C    -1.50272  -1.28775  -0.72190
C    -0.61073  -1.13823   0.54957
C    -1.54369  -0.32065   1.46359
H     2.11898  -2.34954   0.61410
H     3.23095  -1.89643  -0.72133
H     1.50790  -2.31451  -1.04562
H    -0.38339   2.83968  -1.08925
H     0.15989   3.17895   0.55401
H     1.30654   2.45206  -0.61045
H    -2.25471   1.72276   0.75450
H    -2.00809   0.64031  -1.72395
H    -3.31194  -0.01729  -0.71184
H    -2.22423  -2.10825  -0.59023
H    -0.90164  -1.50833  -1.61558
H    -0.22747  -2.08447   0.94860
H    -2.50323  -0.81979   1.66981
H    -1.06730  -0.02444   2.41014
