19
Generated by autodE on: 2022-05-30. E = -419.538684 Ha
C     2.41402  -1.20611  -0.01052
N     2.26836   0.05586  -0.71299
C     1.25728   0.92625  -0.51587
O     1.09664   1.96129  -1.17970
C     0.37422   0.65865   0.64316
N    -0.70901   0.07459   0.52633
C    -1.83308  -0.52309   0.50758
C    -3.09292   0.23357   0.20078
C    -1.90897  -1.99515   0.79420
H     3.45062  -1.55407  -0.10604
H     1.74542  -1.98950  -0.40473
H     2.19481  -1.07575   1.06017
H     2.88575   0.26326  -1.49408
H    -3.80600   0.13406   1.03694
H    -3.58216  -0.18977  -0.69285
H    -2.89134   1.29884   0.02497
H    -2.54931  -2.17654   1.67453
H    -0.91368  -2.42103   0.98085
H    -2.37141  -2.52395  -0.05623
