41
Generated by autodE on: 2022-05-30. E = -1176.062515 Ha
C     3.99853  -2.05150   1.02049
N     3.09691  -0.98254   0.63645
C     1.88989  -1.18921   0.09761
O     1.42696  -2.29695  -0.17203
C     1.04290   0.09837  -0.18754
C     1.93260   1.15323  -0.89098
C     1.64744   1.45155  -2.32303
O     2.83999   1.66972  -0.26304
O    -0.04347  -0.26796  -1.02258
C    -1.30743  -0.15087  -0.39117
C    -2.06472   1.08438  -0.98462
C    -3.36583   1.51706  -0.37782
O    -1.59743   1.63056  -1.96169
C    -2.16749  -1.38546  -0.75011
C    -1.64642  -2.27521  -1.83131
O    -3.22492  -1.56487  -0.17711
C    -0.97799  -0.03084   1.13662
C    -0.94082  -1.34687   1.88569
F    -1.88070   0.78944   1.79678
C     0.37621   0.71876   1.06864
C     1.15208   0.81170   2.35532
F     0.03279   2.03651   0.69090
H     3.51669  -3.01544   0.82122
H     4.93715  -1.99535   0.44776
H     4.23913  -1.98478   2.09259
H     3.39436  -0.01911   0.77445
H     1.67681   0.51495  -2.90333
H     2.38615   2.16690  -2.70527
H     0.62408   1.84207  -2.41978
H    -3.14251   2.32036   0.34218
H    -4.00672   1.92865  -1.16995
H    -3.86928   0.70848   0.16193
H    -1.47301  -1.68094  -2.74299
H    -0.66829  -2.67840  -1.53077
H    -2.36486  -3.08125  -2.02569
H    -1.95701  -1.75598   1.93507
H    -0.28852  -2.07391   1.38745
H    -0.58137  -1.17762   2.90894
H     0.50463   1.26892   3.11760
H     2.03519   1.44680   2.20659
H     1.47513  -0.17423   2.70813
