12
Generated by autodE on: 2022-05-30. E = -355.865945 Ha
C    -1.64627  -1.15647   0.32810
C    -0.67122  -0.07111   0.05378
F    -1.25890   1.13728  -0.15262
C     0.66450  -0.12991  -0.01358
C     1.56293  -1.29785   0.16748
F     1.33224   1.02307  -0.28338
H    -2.34686  -1.26009  -0.51772
H    -2.24367  -0.91293   1.22295
H    -1.14849  -2.11994   0.49091
H     2.16575  -1.45788  -0.74241
H     2.26377  -1.11303   0.99913
H     1.00028  -2.21480   0.38063
