29
Generated by autodE on: 2022-05-30. E = -820.107806 Ha
C    -3.03559  -2.67316  -0.36475
N    -2.55656  -1.36994   0.04619
C    -1.30168  -0.97039  -0.20821
O    -0.44202  -1.70427  -0.73145
C    -0.98886   0.44174   0.09830
O     0.25154   0.87341  -0.06588
C     1.38533   0.23548  -0.07981
C     2.53584   1.05770  -0.49349
C     2.26127   2.46765  -0.94028
O     3.66441   0.57247  -0.47812
C     1.53167  -1.10393   0.58917
C     2.44838  -2.12382  -0.00603
O     0.97397  -1.24470   1.66768
C    -1.95919   1.51871   0.27274
C    -1.44379   2.93376   0.28709
O    -3.15942   1.26858   0.43950
H    -3.23033  -2.71806  -1.44994
H    -3.96844  -2.89518   0.16838
H    -2.29000  -3.44305  -0.12176
H    -3.21029  -0.63507   0.32699
H     3.21439   2.96042  -1.16896
H     1.61756   2.46631  -1.83413
H     1.72603   3.02526  -0.15625
H     2.43113  -2.08588  -1.10339
H     2.15906  -3.11925   0.35735
H     3.47684  -1.90785   0.32440
H    -0.86222   3.14962  -0.62199
H    -0.77277   3.08728   1.14701
H    -2.29682   3.61971   0.36038
