29
Generated by autodE on: 2022-07-27. E = -820.106915 Ha
C     3.91694  -1.18594   1.99974
N     2.95940  -0.43405   1.21543
C     1.77948  -0.96380   0.86514
O     1.41431  -2.10723   1.15089
C     0.86153  -0.04501   0.09804
O    -0.30758  -0.56070  -0.02593
C    -1.50211  -0.04571  -0.38117
C    -1.71037   1.37193  -0.17246
C    -3.10146   1.93768  -0.22411
O    -0.74726   2.09713   0.12321
C    -2.51451  -1.08299  -0.57752
C    -2.05507  -2.51785  -0.47921
O    -3.67975  -0.79619  -0.85318
C     1.32664   1.17610  -0.63854
C     0.84279   1.36282  -2.04964
O     2.23644   1.85129  -0.17416
H     4.19898  -2.11763   1.48511
H     4.81332  -0.57276   2.14776
H     3.50050  -1.45689   2.98358
H     3.13382   0.53974   0.96584
H    -3.79034   1.37901   0.42434
H    -3.05733   2.99270   0.07553
H    -3.49179   1.85615  -1.25011
H    -1.41618  -2.76157  -1.34439
H    -1.44843  -2.68980   0.42150
H    -2.93530  -3.17305  -0.48469
H    -0.02099   0.74072  -2.31659
H     1.68685   1.09912  -2.70787
H     0.59919   2.42260  -2.20939
