41
Generated by autodE on: 2022-05-30. E = -1175.963548 Ha. Imaginary frequency = -306.5 cm-1
C     4.30452  -1.56478   0.64068
N     3.28157  -0.69989   0.08785
C     2.02743  -1.14288  -0.10140
O     1.69487  -2.32343   0.04219
C     1.00027  -0.09903  -0.48743
C     1.50793   1.19101  -1.08743
C     1.40325   1.31840  -2.58518
O     2.21685   1.93459  -0.42350
O    -0.08206  -0.69671  -0.93316
C    -1.35777  -0.26755  -0.93289
C    -1.67075   1.15070  -1.01172
C    -3.10411   1.60321  -0.98038
O    -0.76036   1.98713  -1.08358
C    -2.30917  -1.37911  -1.03640
C    -1.73789  -2.75558  -1.27200
O    -3.52356  -1.20248  -0.93063
C    -1.06320   0.06728   1.66939
C    -1.37909  -1.33423   2.02945
F    -2.09159   0.92877   1.74141
C     0.21023   0.62499   1.66221
C     1.34154   0.08182   2.47980
F     0.21996   1.97432   1.57991
H     4.36685  -2.50099   0.06816
H     5.27094  -1.04891   0.59187
H     4.08757  -1.81939   1.69213
H     3.44654   0.30348   0.06386
H     0.56664   0.75658  -3.01519
H     2.34452   0.91813  -3.00097
H     1.33011   2.38135  -2.85300
H    -3.63742   1.19531  -0.11357
H    -3.11545   2.70093  -0.95864
H    -3.62838   1.24202  -1.87866
H    -1.28498  -2.80115  -2.27621
H    -0.93902  -2.99134  -0.55582
H    -2.54818  -3.49219  -1.20218
H    -2.38220  -1.60528   1.67407
H    -0.63502  -2.02033   1.60484
H    -1.36184  -1.44454   3.12926
H     1.17238   0.37669   3.52977
H     2.29839   0.50319   2.15319
H     1.38735  -1.01196   2.43549
