35
Generated by autodE on: 2022-06-10. E = -973.856100 Ha
C     4.83014  -0.83582   1.83681
O     3.91768  -0.36555   0.83770
C     2.61365  -0.53168   1.08827
O     2.20601  -1.04928   2.12933
C     1.70916  -0.05895   0.04888
N     0.39392  -0.30064   0.41567
C    -0.76123   0.12687  -0.03765
C    -0.81034   1.36500  -0.88591
O    -0.25550   2.39321  -0.55779
O    -1.63616   1.23983  -1.91700
C    -1.79108   2.39692  -2.75373
C    -1.99707  -0.49279   0.43946
C    -3.21144   0.22705   0.43331
C    -4.37709  -0.35404   0.92722
C    -4.35857  -1.65989   1.42901
C    -3.16279  -2.38595   1.43238
C    -1.99264  -1.81316   0.93899
C     2.01614   0.32383  -1.30502
C     3.44676   0.46276  -1.76696
O     1.09788   0.51614  -2.12609
H     5.83335  -0.61370   1.45456
H     4.71512  -1.91863   1.99033
H     4.66451  -0.31406   2.79063
H     0.35375  -0.95019   1.21308
H    -2.19381   3.23893  -2.17302
H    -0.82128   2.67689  -3.18893
H    -2.49408   2.10635  -3.54224
H    -3.24338   1.25046   0.05821
H    -5.30685   0.21868   0.92336
H    -5.27608  -2.11376   1.80986
H    -3.14389  -3.41118   1.80790
H    -1.07812  -2.40933   0.91666
H     3.43431   0.77099  -2.82060
H     3.98012   1.21325  -1.16575
H     3.99706  -0.48320  -1.66295
