51
Generated by autodE on: 2022-06-10. E = -2662.480902 Ha. Imaginary frequency = -389.5 cm-1
C    -3.42671   0.70438  -2.08697
O    -2.49402   0.07900  -1.20106
C    -2.95780  -0.68116  -0.23421
O    -4.13790  -0.88838  -0.03029
C    -1.85711  -1.27436   0.61850
C    -2.26316  -2.43959   1.50276
C    -3.24898  -3.44664   0.99302
O    -1.72525  -2.55659   2.59361
N    -0.97386  -0.45696   1.27722
C    -0.10155   0.43578   0.72258
C     1.13902   0.53994   1.56319
O     1.25924  -0.04190   2.62735
O     2.07606   1.30292   1.02605
C     3.31139   1.43598   1.74724
C    -0.57225   1.68032   0.07286
C     0.21286   2.40655  -0.84065
C    -0.26087   3.60175  -1.38467
C    -1.51301   4.10178  -1.01736
C    -2.28780   3.40436  -0.08356
C    -1.82090   2.20925   0.45686
C     0.49415  -1.12725  -1.03163
Cl    0.24619  -0.18119  -2.50096
C     1.93002  -1.32215  -0.66857
C     2.32582  -1.93689   0.54084
C     3.67180  -2.10167   0.86384
C     4.67487  -1.64936   0.00279
C     4.30412  -1.01768  -1.18562
C     2.95762  -0.85470  -1.51501
C    -0.55264  -2.11859  -0.80493
Cl   -0.05429  -3.65502  -0.03982
Cl   -1.60069  -2.55453  -2.18251
H    -2.82679   1.33304  -2.75363
H    -4.14268   1.31723  -1.52292
H    -3.96441  -0.06316  -2.66226
H    -4.26050  -3.11748   1.27826
H    -3.22731  -3.53844  -0.10024
H    -3.04300  -4.41368   1.46994
H    -0.58502  -0.93807   2.10090
H     3.13373   1.93815   2.70878
H     3.96231   2.04587   1.11154
H     3.75933   0.44846   1.91855
H     1.19248   2.03629  -1.12940
H     0.35733   4.14590  -2.10237
H    -1.87883   5.03774  -1.44584
H    -3.25832   3.79559   0.22964
H    -2.42529   1.67950   1.19488
H     1.58198  -2.26017   1.26162
H     3.93283  -2.57654   1.81240
H     5.72844  -1.77664   0.26095
H     5.06728  -0.64519  -1.87308
H     2.70424  -0.35905  -2.44982
