42
Generated by autodE on: 2022-10-21. E = -1048.882290 Ha
C     1.96683   3.52922  -0.75165
N     1.27800   2.25674  -0.74847
C     1.48062   1.29835   0.16103
O     2.29037   1.36064   1.09110
C     0.56795   0.06179   0.00837
C     1.36871  -1.20694   0.37158
O     0.92939  -2.13002   1.02538
O     2.57415  -1.21236  -0.18577
C     3.37141  -2.39417  -0.00676
C    -0.67651   0.21243   0.95412
O    -0.58426   1.26469   1.88079
C    -0.06793   0.88276   3.14734
C    -1.85127   0.44010   0.00539
O    -3.09026  -0.02807   0.46644
C    -3.65564   0.72072   1.53109
C    -1.44735  -0.31533  -1.27177
C    -2.22493   0.16952  -2.49672
C    -1.69694  -1.77579  -1.09427
N    -1.82122  -2.92554  -0.99665
N    -0.01709  -0.03382  -1.33867
C     0.74919  -0.64849  -2.41093
H     1.27449   4.35708  -0.52969
H     2.75052   3.51090   0.01560
H     2.43024   3.71742  -1.73180
H     0.57978   2.04425  -1.45882
H     2.85633  -3.26730  -0.43178
H     4.31012  -2.20686  -0.53996
H     3.56512  -2.56345   1.06183
H    -0.82900  -0.74610   1.47290
H    -0.03517   1.78712   3.77069
H     0.94917   0.46914   3.06170
H    -0.72300   0.13577   3.63019
H    -1.90265   1.51625  -0.24114
H    -3.10540   0.57467   2.47569
H    -3.67210   1.79979   1.29509
H    -4.68749   0.36565   1.66198
H    -1.98625  -0.41766  -3.39357
H    -1.98132   1.22640  -2.67609
H    -3.30147   0.07579  -2.29534
H     0.26846  -0.42748  -3.37331
H     1.75903  -0.22087  -2.43226
H     0.83782  -1.74739  -2.31098
