28
Generated by autodE on: 2022-10-26. E = -741.030682 Ha
C     1.24917   3.87362   0.13128
N     0.58634   2.59670  -0.03108
C     1.24059   1.42488   0.19770
O     2.41283   1.42701   0.60871
C     0.47295   0.19489  -0.05323
C     0.83938  -1.03747   0.61458
O     1.60473  -1.12920   1.56785
O     0.28411  -2.14359   0.05212
C     0.47396  -3.37699   0.74461
N    -0.57408   0.22011  -0.97815
C    -0.35231   0.83121  -2.30667
C    -1.73687  -0.38171  -0.76757
C    -2.72290  -0.65243  -1.85458
C    -2.04982  -0.80010   0.55714
N    -2.39105  -1.12476   1.62257
H     2.20194   3.89054  -0.41932
H     0.59904   4.66514  -0.26291
H     1.47007   4.09532   1.18971
H    -0.41273   2.59292  -0.19965
H     0.08304  -3.31245   1.77113
H     1.53867  -3.65171   0.78013
H    -0.08682  -4.13163   0.17956
H    -1.11409   1.59361  -2.51257
H     0.64890   1.26547  -2.33608
H    -0.41944   0.03688  -3.06335
H    -2.26177  -1.26427  -2.64801
H    -3.06757   0.28749  -2.31495
H    -3.59161  -1.18635  -1.45245
