14
Generated by autodE on: 2022-10-21. E = -307.775554 Ha
C    -2.07642   0.45985  -1.24737
O    -1.96486   0.26477   0.15241
C    -0.72647  -0.02778   0.64001
C     0.40214  -0.19643  -0.06713
O     1.55635  -0.58418   0.57749
C     2.73152   0.03235   0.07381
H    -3.12981   0.68839  -1.45627
H    -1.44567   1.30106  -1.58535
H    -1.78208  -0.44872  -1.80231
H    -0.72996  -0.14681   1.72706
H     0.47492  -0.08124  -1.15367
H     3.58482  -0.39017   0.62243
H     2.70927   1.12667   0.22447
H     2.86149  -0.17233  -1.00473
