42
Generated by autodE on: 2022-10-21. E = -1048.784161 Ha. Imaginary frequency = -322.2 cm-1
C     1.94868   3.67908  -0.12656
N     1.26136   2.43592  -0.40511
C     1.82501   1.24378  -0.07680
O     2.97502   1.20629   0.40258
C     1.01962   0.02561  -0.30448
C     1.55391  -1.19705   0.29633
O     1.98766  -1.30003   1.43796
O     1.57068  -2.24375  -0.56274
C     1.91480  -3.51687  -0.01310
C    -1.22613   0.64674   1.23019
O    -0.75094   1.86094   1.51110
C     0.22232   1.92395   2.55702
C    -2.11875   0.47250   0.16639
O    -3.17025  -0.42363   0.33085
C    -4.24222   0.09220   1.11112
C    -1.06476  -0.68132  -1.27099
C    -2.00955  -0.73933  -2.44628
C    -1.12715  -1.87991  -0.45796
N    -1.26773  -2.85471   0.15871
N     0.14706  -0.05668  -1.39964
C     0.36863   0.74370  -2.61292
H     2.12490   3.82142   0.95393
H     2.92693   3.70616  -0.63001
H     1.33932   4.51320  -0.49781
H     0.25570   2.47524  -0.52231
H     1.23854  -3.77933   0.81347
H     1.80479  -4.24151  -0.82911
H     2.95262  -3.51732   0.35152
H    -1.07762  -0.14567   1.97277
H     0.58307   2.95798   2.59716
H     1.05472   1.23561   2.35171
H    -0.24565   1.65216   3.51660
H    -2.34124   1.35458  -0.45123
H    -3.91213   0.32890   2.13797
H    -4.66593   1.00494   0.65532
H    -5.01741  -0.68626   1.14792
H    -1.61425  -1.40049  -3.23531
H    -2.17900   0.25900  -2.86845
H    -2.97058  -1.14290  -2.10542
H    -0.27807   1.63292  -2.65048
H     1.41558   1.05531  -2.64577
H     0.16742   0.12353  -3.49630
