17
Generated by autodE on: 2022-06-19. E = -509.625060 Ha
C     4.06284  -0.29750   1.12607
N     3.05840  -0.18785   0.09064
C     1.73937  -0.10151   0.34206
O     1.22497  -0.05804   1.46065
N     0.99347  -0.05248  -0.86988
N    -0.24066   0.02793  -0.69387
C    -1.40175   0.10726  -0.56304
C    -2.85351   0.17391  -0.50926
C    -3.44959   0.22713   0.86249
O    -3.48416   0.19178  -1.55410
H     3.64306   0.06827   2.07203
H     4.39803  -1.33800   1.27461
H     4.93777   0.31505   0.86894
H     3.34241  -0.25875  -0.88076
H    -3.13306   1.15766   1.36056
H    -3.07308  -0.61056   1.47009
H    -4.54421   0.19307   0.79438
