37
Generated by autodE on: 2022-06-19. E = -967.343479 Ha. Imaginary frequency = -217.9 cm-1
C    -4.07656  -3.00077  -1.76425
N    -2.91979  -2.61356  -0.98668
C    -2.72918  -1.34086  -0.58440
O    -3.50801  -0.41715  -0.84899
N    -1.54252  -1.20718   0.16573
N    -1.30534  -0.02629   0.53935
C    -0.66455   0.84018   1.07460
C    -0.84163   2.23999   1.46609
C    -1.97166   2.92832   0.73545
O    -0.12932   2.81534   2.27307
C     1.49861   0.35469   1.92379
C     2.30496   1.16238   0.93421
C     2.28385   0.46981  -0.41295
C     2.60727   1.17873  -1.67452
N     2.93767   2.48434  -1.55496
O     2.58258   0.61944  -2.78469
C     2.01826  -0.85610  -0.49453
N     1.68378  -1.63284   0.59849
C     1.23010  -2.99848   0.37096
C     1.34631  -0.99102   1.76541
H    -4.00527  -4.06995  -1.99851
H    -5.01478  -2.82427  -1.21267
H    -4.13172  -2.43736  -2.70967
H    -2.23480  -3.30936  -0.71151
H    -1.56813   3.31117  -0.21781
H    -2.79069   2.23680   0.49867
H    -2.32404   3.77892   1.33451
H     1.26221   0.79601   2.89143
H     1.89558   2.18144   0.86681
H     3.34715   1.28714   1.29455
H     2.98144   2.95849  -0.66170
H     3.16580   3.00719  -2.39397
H     2.04432  -1.37549  -1.45270
H     0.17702  -2.99336   0.03625
H     1.30756  -3.57268   1.30297
H     1.85893  -3.47391  -0.39247
H     0.88281  -1.61714   2.52976
