56
Generated by autodE on: 2022-10-22. E = -6209.836235 Ha
C     0.93251   0.65382   3.03139
O    -0.19018   0.37374   2.22414
C    -0.37864   1.13227   1.00408
C    -0.13548   2.62514   1.30096
C     0.63461   0.55671  -0.05511
C     0.11360  -0.00132  -1.38517
C    -0.09374   1.05409  -2.47176
C    -0.82911   2.31490  -2.02052
C    -2.26617   2.11949  -1.55630
Br   -2.95561   3.97170  -1.02727
Br   -3.31481   1.65128  -3.20197
C    -2.60336   1.23056  -0.39697
C    -1.84980   0.88706   0.67370
C    -2.77167   0.18748   1.71851
C    -2.43825   0.74179   3.14337
C    -2.29240  -0.21141   4.29535
O    -2.39085   1.94699   3.32182
C    -2.68244  -1.35143   1.69108
C    -1.56996  -2.05118   1.20794
C    -1.54400  -3.45005   1.20529
C    -2.62888  -4.17808   1.69796
C    -3.74240  -3.49024   2.19220
C    -3.76762  -2.09508   2.18136
N    -4.14487   0.57366   1.28421
C    -4.77086   1.74050   1.89682
C    -4.03843   0.72791  -0.17877
C    -4.35267  -0.59271  -0.90066
H     1.87353   0.64690   2.45471
H     0.98356  -0.14620   3.78397
H     0.84267   1.62017   3.55523
H    -0.52582   3.27007   0.50772
H     0.93976   2.82857   1.40486
H    -0.65202   2.91008   2.22364
H     1.39845   1.32187  -0.26446
H     1.15971  -0.25590   0.46535
H    -0.80923  -0.57734  -1.22613
H     0.85423  -0.72672  -1.75783
H    -0.60497   0.60821  -3.33911
H     0.89231   1.39297  -2.83081
H    -0.84508   3.04426  -2.84136
H    -0.26426   2.79116  -1.21213
H    -3.28385  -0.62760   4.53945
H    -1.90909   0.33694   5.16577
H    -1.63909  -1.05762   4.05113
H    -0.70532  -1.51385   0.83373
H    -0.66612  -3.96909   0.81271
H    -2.60909  -5.27058   1.69631
H    -4.60045  -4.04342   2.58237
H    -4.64724  -1.56772   2.54857
H    -5.77294   1.85087   1.45574
H    -4.22435   2.68980   1.74478
H    -4.90718   1.59051   2.97596
H    -4.76461   1.48430  -0.51080
H    -4.39838  -0.45385  -1.98652
H    -3.59882  -1.36097  -0.68693
H    -5.32966  -0.96562  -0.55907
