27
Generated by autodE on: 2022-10-22. E = -5613.222180 Ha
C     0.37699  -3.54783  -2.64174
O    -0.84592  -2.90280  -2.33593
C    -1.11747  -2.69045  -0.95192
C    -1.27882  -4.00537  -0.19055
C    -0.09976  -1.79498  -0.35164
C     0.30124  -0.74163   0.10279
C     0.11998   0.61505   0.54318
Br    0.87121   1.87575  -0.80724
Br    1.07484   0.93229   2.27197
C    -1.38418   0.86117   0.74881
C    -2.29882   0.78494  -0.49091
C    -2.26685  -0.40918  -1.47007
C    -2.41718  -1.83749  -0.89985
H     0.37320  -4.61392  -2.35705
H     0.51583  -3.47544  -3.72978
H     1.23125  -3.05346  -2.14321
H    -1.55614  -3.80731   0.85457
H    -0.34816  -4.58982  -0.19166
H    -2.07433  -4.60236  -0.66178
H    -1.51441   1.85187   1.20967
H    -1.69865   0.11602   1.49659
H    -2.13720   1.69520  -1.09035
H    -3.32086   0.87350  -0.08506
H    -1.35656  -0.36237  -2.08643
H    -3.09425  -0.22975  -2.17460
H    -3.17038  -2.40335  -1.47038
H    -2.76044  -1.81022   0.14545
