29
Generated by autodE on: 2022-10-26. E = -596.537039 Ha
C    -0.28119   0.64527  -2.60197
C    -1.05930   1.46463  -1.65634
N    -0.80643   1.55883  -0.38549
C    -1.65094   2.43009   0.45114
C     0.16879   0.74203   0.28625
C     1.12074   1.43080   1.07399
C     2.04607   0.65688   2.00075
O     1.23710   2.69150   1.07039
C     0.02053  -0.70893   0.11450
C     1.12866  -1.58562   0.07076
C     0.96120  -2.96472  -0.07009
C    -0.31563  -3.51923  -0.20344
C    -1.42546  -2.66584  -0.19567
C    -1.26130  -1.29019  -0.03713
H    -0.34361   1.08202  -3.60858
H     0.76498   0.54721  -2.27751
H    -0.70538  -0.37473  -2.65189
H    -1.92261   2.03013  -2.01919
H    -0.99760   3.02116   1.09940
H    -2.24720   3.09425  -0.18607
H    -2.30865   1.79485   1.06105
H     3.03016   0.50419   1.52696
H     1.65894  -0.32406   2.30603
H     2.21035   1.28004   2.89310
H     2.13870  -1.17864   0.11843
H     1.84323  -3.61013  -0.09771
H    -0.44431  -4.59724  -0.32465
H    -2.43263  -3.07662  -0.30541
H    -2.14671  -0.64978  -0.02505
