56
Generated by autodE on: 2022-10-22. E = -6209.747308 Ha. Imaginary frequency = -268.1 cm-1
C     1.11842   0.07976   2.74695
O     0.06617   0.02192   1.80520
C    -0.29282   1.23643   1.12432
C    -0.41140   2.43252   2.07955
C     0.77453   1.55035   0.04271
C     0.72757   0.65262  -1.20205
C     0.24458   1.37096  -2.46886
C    -1.04451   2.20175  -2.39385
C    -2.32553   1.49178  -1.94027
Br   -3.83801   2.79240  -2.31760
Br   -2.61941  -0.09490  -3.13935
C    -2.34617   1.08956  -0.53987
C    -1.60395   0.98337   0.46163
C    -3.30561  -0.02467   2.12961
C    -2.82200   0.36617   3.45492
C    -2.03062  -0.67439   4.22581
O    -3.02091   1.46377   3.99930
C    -3.28703  -1.49958   1.84617
C    -2.19398  -2.15892   1.26436
C    -2.23434  -3.53548   1.03247
C    -3.36598  -4.27963   1.38297
C    -4.45184  -3.63766   1.98491
C    -4.40686  -2.26129   2.22101
N    -4.20732   0.74653   1.41450
C    -4.43302   2.14493   1.82451
C    -4.50683   0.50681   0.12308
C    -4.73578  -0.81233  -0.55087
H     2.04454   0.50793   2.32505
H     1.32658  -0.95728   3.04717
H     0.84363   0.65301   3.64829
H    -1.04199   2.20066   2.94469
H     0.58354   2.74201   2.43235
H    -0.85626   3.28210   1.54273
H     0.66421   2.60681  -0.24442
H     1.75492   1.48337   0.53824
H     0.09890  -0.22985  -1.00523
H     1.73322   0.25685  -1.41433
H     0.15128   0.63881  -3.28572
H     1.02628   2.08290  -2.78516
H    -1.22826   2.62997  -3.38944
H    -0.91546   3.05063  -1.70423
H    -1.30499  -1.20919   3.60474
H    -1.51881  -0.17313   5.05787
H    -2.72483  -1.42530   4.63816
H    -1.31220  -1.58236   0.99126
H    -1.37722  -4.02937   0.56804
H    -3.39833  -5.35526   1.19342
H    -5.33785  -4.20908   2.27226
H    -5.25773  -1.76468   2.69293
H    -5.11164   2.61031   1.10331
H    -3.47971   2.68912   1.83905
H    -4.87425   2.18299   2.82302
H    -5.09042   1.31437  -0.31422
H    -5.04684  -0.60635  -1.58233
H    -3.87520  -1.48442  -0.58114
H    -5.56334  -1.34318  -0.04957
