44
Generated by autodE on: 2022-06-19. E = -979.650304 Ha
C    -0.64494   0.53095  -3.20689
C    -0.28384   0.95767  -1.98735
C    -0.24257   2.41812  -1.63554
C     0.04758  -0.06981  -0.92336
C     1.21293   0.25907   0.05925
C     2.47469  -0.49946  -0.21006
C     3.70948   0.03040  -0.27784
C     3.99230   1.50353  -0.09140
C     4.90611  -0.82661  -0.58703
C     0.54497  -0.01168   1.45522
C     1.30233   0.49879   2.65200
C     0.24254  -1.51597   1.46757
O     0.78538  -2.41143   2.03657
O    -0.80335  -1.69802   0.62805
C    -1.09490  -0.33991   0.10512
C    -2.47745  -0.35557  -0.50615
O    -2.98619  -1.34673  -0.96071
O    -2.99943   0.85971  -0.55460
C    -4.23334   1.00604  -1.27927
N    -0.80957   0.54185   1.20343
C    -1.73901   0.48534   2.33279
H    -0.92690   1.23501  -3.99537
H    -0.67048  -0.53474  -3.45297
H    -0.86325   2.63069  -0.75273
H    -0.59937   3.03433  -2.47294
H     0.78244   2.74046  -1.38759
H     0.22617  -1.02891  -1.42515
H     1.40396   1.33671   0.05002
H     2.36120  -1.57774  -0.37291
H     3.80528   2.06023  -1.02665
H     5.04717   1.66883   0.17500
H     3.37020   1.95923   0.69197
H     4.63085  -1.87719  -0.76208
H     5.63762  -0.78832   0.23926
H     5.43324  -0.44956  -1.48164
H     2.31007   0.05918   2.65439
H     0.80777   0.22200   3.59385
H     1.39961   1.59285   2.60497
H    -5.01691   0.38187  -0.82836
H    -4.08336   0.71719  -2.32933
H    -4.49820   2.06644  -1.20754
H    -2.72424   0.84272   2.00623
H    -1.85732  -0.52645   2.76279
H    -1.38318   1.15795   3.12387
