23
Generated by autodE on: 2022-06-19. E = -351.521384 Ha
C     1.38529   1.28229   3.27622
C     1.23040   1.19249   1.93693
C     2.01532   2.07128   0.99686
C     0.28678   0.22842   1.37457
C     0.04029   0.04063   0.05366
C    -0.90771  -0.93182  -0.45069
C    -1.20954  -1.18074  -1.75014
C    -2.22225  -2.22819  -2.11736
C    -0.58995  -0.46576  -2.91720
H     2.08420   1.99429   3.72396
H     0.81370   0.64285   3.95606
H     2.68481   2.74627   1.54844
H     2.62554   1.46752   0.30467
H     1.34435   2.68361   0.37165
H    -0.25887  -0.38640   2.10054
H     0.58022   0.64963  -0.67647
H    -1.43010  -1.52293   0.31126
H    -1.76971  -3.00002  -2.76575
H    -3.04850  -1.78562  -2.70245
H    -2.64869  -2.72329  -1.23258
H    -1.37149   0.02836  -3.52115
H     0.14933   0.29239  -2.62857
H    -0.09609  -1.18920  -3.58979
