21
Generated by autodE on: 2022-06-19. E = -628.104517 Ha
C     3.87976   0.03978  -0.06333
O     2.50358  -0.35729   0.01120
C     1.59629   0.62060  -0.11468
O     1.87980   1.79709  -0.28676
C     0.24741   0.08964  -0.01773
O     0.01254  -1.22049   0.16966
C    -1.38343  -1.44004   0.22375
O    -1.83526  -2.56645   0.38742
C    -1.95586  -0.15325   0.05435
C    -3.39235   0.21068   0.03116
N    -0.92626   0.73227  -0.08760
C    -1.13541   2.16654  -0.28816
H     4.12031   0.75040   0.74074
H     4.09574   0.50347  -1.03683
H     4.46377  -0.87980   0.05656
H    -3.65256   0.91459   0.83942
H    -3.68444   0.67865  -0.92383
H    -3.98815  -0.70251   0.16435
H    -0.16679   2.66682  -0.34164
H    -1.72447   2.55654   0.55191
H    -1.69502   2.31425  -1.22115
