44
Generated by autodE on: 2022-06-19. E = -979.606245 Ha. Imaginary frequency = -340.4 cm-1
C    -1.65881   1.38663  -2.65006
C    -0.68232   1.55077  -1.74041
C    -0.27413   2.92291  -1.26997
C     0.06684   0.36005  -1.21871
C     1.33615   0.53738  -0.57614
C     2.41811  -0.38265  -0.79190
C     3.64687  -0.35918  -0.20752
C     4.06595   0.67273   0.79841
C     4.67040  -1.41310  -0.51471
C     0.27023   0.18081   1.78128
C     0.86703   1.01919   2.84726
C     0.72993  -1.11044   1.37348
O     1.66967  -1.80678   1.73202
O    -0.19963  -1.56130   0.42805
C    -0.99381  -0.46803   0.09868
C    -2.27312  -0.90190  -0.54652
O    -2.31450  -1.85079  -1.30225
O    -3.30354  -0.11769  -0.26079
C    -4.53824  -0.39227  -0.94494
N    -0.95036   0.38329   1.20766
C    -1.78831   1.55307   1.43995
H    -2.21421   2.24047  -3.04826
H    -1.92250   0.39642  -3.03253
H    -0.17613   2.98297  -0.17637
H    -0.99732   3.68390  -1.59605
H     0.71391   3.18916  -1.68237
H     0.04690  -0.47961  -1.92330
H     1.55743   1.49905  -0.11458
H     2.20083  -1.22129  -1.46363
H     3.33557   1.48253   0.92351
H     5.03747   1.11887   0.52254
H     4.21360   0.19753   1.78495
H     4.29571  -2.15698  -1.23339
H     4.97319  -1.94294   0.40667
H     5.59336  -0.96496  -0.92611
H     1.82439   0.57891   3.15472
H     0.20708   1.07323   3.72941
H     1.04844   2.04943   2.50252
H    -4.88314  -1.40988  -0.71561
H    -4.40061  -0.28146  -2.02975
H    -5.25522   0.34800  -0.57344
H    -2.20197   1.92375   0.49906
H    -2.62169   1.29554   2.11000
H    -1.18732   2.34112   1.90701
