17
Generated by autodE on: 2022-10-06. E = -401.316234 Ha
C    -3.78446  -0.12892  -0.14374
C    -2.56396   0.59005   0.29420
N    -1.36414   0.13992   0.05611
C    -0.12837   0.65133   0.36769
C     0.98682  -0.10721  -0.04092
O     0.94999  -1.19238  -0.64858
O     2.18144   0.47412   0.30207
C     3.35694  -0.23177  -0.08116
H    -3.53543  -1.06015  -0.67485
H    -4.39333   0.50611  -0.81120
H    -4.42411  -0.37652   0.72165
H    -2.63679   1.53660   0.83753
H    -1.29688  -0.75152  -0.45356
H    -0.06742   1.59537   0.90333
H     4.20527   0.36627   0.27663
H     3.39436  -1.23298   0.37672
H     3.42198  -0.34330  -1.17526
