10
Generated by autodE on: 2022-10-06. E = -455.051700 Ha
O    -2.17497   0.24440   1.32188
C    -1.95850  -0.19177   0.15779
O    -2.83129  -0.63906  -0.63792
C    -0.53307  -0.19507  -0.35619
C     0.53287   0.19600   0.35570
C     1.95851   0.19179  -0.15782
O     2.83215   0.63249   0.64062
O     2.17428  -0.23859  -1.32417
H    -0.38855  -0.55395  -1.38091
H     0.38831   0.55454   1.38054
