27
Generated by autodE on: 2022-10-06. E = -856.371493 Ha. Imaginary frequency = -330.6 cm-1
C     3.99116  -0.90897  -0.88022
O     2.98182  -0.58317   0.07656
C     1.81695  -1.27133  -0.02532
O     1.67349  -2.21285  -0.80597
C     0.79020  -0.72325   0.81119
N    -0.40683  -1.37235   0.86791
C    -1.49446  -0.78401   1.38012
C    -2.83618  -1.41875   1.25896
C    -1.45601   1.03497   0.04519
C    -1.93299   1.96199   1.12868
O    -3.18547   2.10732   1.25033
O    -1.06555   2.50331   1.87707
C    -0.15924   1.06126  -0.44802
C     0.20571   0.42006  -1.75673
O    -0.58621  -0.44381  -2.23661
O     1.30064   0.77440  -2.28913
H     4.31684  -1.95512  -0.77585
H     3.61855  -0.74377  -1.90168
H     4.83378  -0.23655  -0.67641
H     1.02988  -0.02501   1.60935
H    -0.55249  -2.04867   0.11404
H    -1.29860  -0.13149   2.23273
H    -3.60746  -0.63616   1.31188
H    -3.02858  -2.12975   2.08261
H    -2.93786  -1.95584   0.30304
H    -2.22863   0.59015  -0.58644
H     0.55845   1.77489  -0.03871
