54
Generated by autodE on: 2022-06-25. E = -1410.474402 Ha
C     2.55061   1.82154   2.89259
O     1.78476   1.60449   1.69516
C     2.45564   1.22801   0.62147
O     3.66373   1.14505   0.55685
C     1.54099   0.87015  -0.57447
C     2.20202   1.41690  -1.77891
N     2.68767   1.86020  -2.73455
C     1.42493  -0.71802  -0.77266
N     2.50139  -1.51578  -0.29169
C     3.69779  -1.62297  -1.10892
C     2.51577  -1.87792   1.04042
C     1.45159  -1.73951   1.85862
C     0.16101  -1.11824   1.40583
C     0.03820  -1.02189  -0.13979
C    -0.53123  -2.31453  -0.73828
N    -0.01430  -3.45515  -0.26245
O    -1.39910  -2.30075  -1.61941
C    -0.80477   0.23812  -0.55211
C    -1.20547   0.19870  -2.05452
O    -0.37885   0.12522  -2.94455
O    -2.49066   0.43833  -2.28757
C    -2.89897   0.48218  -3.66254
C    -1.99529   0.42491   0.39520
C    -3.10018  -0.44065   0.33578
C    -4.14399  -0.32990   1.25611
C    -4.10563   0.64686   2.25653
C    -3.00621   1.50391   2.33119
C    -1.95812   1.38854   1.41221
N     0.17827   1.31743  -0.41922
C    -0.15747   2.64426  -0.90267
H     1.82810   2.12332   3.65854
H     3.29544   2.61296   2.73128
H     3.05368   0.88828   3.18366
H     1.34705  -0.86252  -1.85417
H     4.29034  -2.48885  -0.78167
H     3.41283  -1.77812  -2.16034
H     4.33117  -0.72174  -1.05054
H     3.44768  -2.33119   1.38542
H     1.53371  -2.07096   2.89477
H     0.07176  -0.11003   1.83155
H    -0.70126  -1.67823   1.79794
H     0.67632  -3.45638   0.48445
H    -0.35742  -4.33831  -0.62869
H    -3.97499   0.68979  -3.65040
H    -2.70181  -0.48577  -4.14551
H    -2.36147   1.27686  -4.19902
H    -3.14160  -1.21157  -0.43101
H    -4.99261  -1.01519   1.19083
H    -4.92448   0.73402   2.97465
H    -2.95382   2.26503   3.11342
H    -1.09195   2.04245   1.50282
H     0.50332   3.38724  -0.43055
H    -1.19223   2.88673  -0.63041
H    -0.06196   2.74272  -2.00060
