20
Generated by autodE on: 2022-06-25. E = -457.715341 Ha
C    -2.78430  -1.50625  -0.26030
N    -1.73473  -0.57486   0.11923
C    -2.07340   0.61546   0.77488
C    -1.17076   1.56623   1.06338
C     0.29180   1.44829   0.71185
C     0.55644   0.14812  -0.02978
C     1.90387  -0.19671  -0.51140
N     2.87831   0.71246  -0.25660
O     2.16712  -1.25248  -1.12240
C    -0.44104  -0.74829  -0.27254
H    -2.33005  -2.43072  -0.63839
H    -3.43406  -1.08620  -1.04705
H    -3.41144  -1.75521   0.60944
H    -3.12874   0.71093   1.03660
H    -1.51069   2.46513   1.58280
H     0.60767   2.32134   0.10511
H     0.91118   1.51322   1.63024
H     2.70414   1.57813   0.23769
H     3.82154   0.51538  -0.57253
H    -0.22402  -1.67411  -0.80780
