34
Generated by autodE on: 2022-06-25. E = -952.728876 Ha
C     4.25403   1.25076   1.25267
O     3.57476   0.74436   0.09854
C     2.27414   0.42686   0.25435
O     1.68581   0.56784   1.32314
C     1.70284  -0.11263  -0.95947
C     2.52771  -0.33183  -2.07850
N     3.22715  -0.49797  -3.00146
N     0.38981  -0.59005  -0.97850
C     0.14118  -1.75919  -1.84916
C    -0.58231  -0.07509  -0.24128
C    -0.47921   1.35228   0.22210
O     0.00657   2.24537  -0.44043
O    -1.08048   1.52816   1.39174
C    -1.08703   2.86546   1.91535
C    -1.81276  -0.81482   0.06967
C    -3.06517  -0.18239  -0.05908
C    -4.23544  -0.87251   0.25024
C    -4.17310  -2.19307   0.70939
C    -2.93273  -2.82206   0.85773
C    -1.75837  -2.14182   0.53853
H     4.28174   0.49566   2.05212
H     5.27314   1.48481   0.92294
H     3.75961   2.15914   1.62716
H    -0.93277  -1.90547  -1.98190
H     0.60729  -2.65298  -1.41613
H     0.59822  -1.55104  -2.82427
H    -1.61085   3.54365   1.22705
H    -0.05525   3.21392   2.06529
H    -1.61563   2.80975   2.87330
H    -3.11976   0.84682  -0.41901
H    -5.20177  -0.37736   0.13331
H    -5.09161  -2.72959   0.95775
H    -2.87805  -3.84722   1.23026
H    -0.79301  -2.63143   0.67523
