54
Generated by autodE on: 2022-06-25. E = -1410.418590 Ha. Imaginary frequency = -163.0 cm-1
C     3.26295   2.22721   2.24517
O     2.14868   1.99489   1.38691
C     2.43625   1.66259   0.09837
O     3.60588   1.65234  -0.31003
C     1.29443   1.34086  -0.69748
C     1.53720   1.11276  -2.06241
N     1.76285   0.90071  -3.19482
C     1.24775  -1.67168  -0.73358
N     2.54513  -1.63009  -0.50012
C     3.52125  -1.74261  -1.58481
C     3.03724  -1.38275   0.79818
C     2.20024  -1.09434   1.80072
C     0.72296  -0.94829   1.61119
C     0.23564  -1.45952   0.26116
C    -0.80895  -2.54815   0.21979
N    -1.62111  -2.66234   1.29337
O    -0.88969  -3.34429  -0.72542
C    -0.87172   0.27450  -0.47273
C    -1.02494   0.01496  -1.97959
O    -0.96492  -1.03666  -2.57157
O    -1.33462   1.17471  -2.56417
C    -1.52387   1.14852  -3.98771
C    -2.17570   0.16933   0.23681
C    -3.29836  -0.38220  -0.41195
C    -4.49861  -0.57405   0.27158
C    -4.60572  -0.22777   1.62068
C    -3.49875   0.31491   2.28087
C    -2.29927   0.51446   1.59966
N    -0.02457   1.31621  -0.15409
C    -0.51881   2.58030   0.43022
H     2.84416   2.43047   3.23875
H     3.85226   3.09248   1.90568
H     3.91769   1.34429   2.29094
H     0.95039  -1.96794  -1.73755
H     4.23927  -2.54104  -1.35030
H     2.99996  -1.96935  -2.52099
H     4.05823  -0.78995  -1.68535
H     4.11913  -1.45310   0.90161
H     2.61099  -0.92407   2.79780
H     0.48938   0.13088   1.70529
H     0.20314  -1.43945   2.44498
H    -1.71812  -1.92414   1.98037
H    -2.37934  -3.33449   1.22661
H    -1.77711   2.17505  -4.27535
H    -2.34058   0.46228  -4.25252
H    -0.59325   0.83052  -4.47856
H    -3.24139  -0.68756  -1.45690
H    -5.35372  -1.00235  -0.25557
H    -5.54512  -0.38207   2.15604
H    -3.56640   0.58449   3.33695
H    -1.45135   0.92078   2.14583
H    -0.28452   2.67614   1.49780
H    -1.60150   2.66854   0.28621
H    -0.03097   3.40508  -0.10600
