49
Generated by autodE on: 2022-06-21. E = -946.681404 Ha
C    -0.62935  -2.35886   2.73993
C     0.32905  -2.22115   1.81131
C     1.52052  -3.14349   1.78020
C     0.28915  -1.17861   0.71944
C     1.48046  -0.17339   0.70535
C     2.72628  -0.65292  -0.00711
C     2.67532  -1.01830  -1.36129
C     3.82209  -1.46094  -2.02457
C     5.04131  -1.54342  -1.34203
C     5.10435  -1.17486   0.00479
C     3.95366  -0.73005   0.66389
N     0.95181   1.05266   0.08755
C    -0.32931   1.00083   0.04670
C    -1.13761   2.11322  -0.49567
C    -0.60110   2.96420  -1.47911
C    -1.35166   4.02395  -1.98748
C    -2.64876   4.25643  -1.51497
C    -3.18847   3.42183  -0.53175
C    -2.44247   2.35309  -0.02936
C    -0.94889  -0.25765   0.65046
C    -2.07873  -0.85952  -0.13530
C    -3.35025  -1.06522   0.25242
C    -3.91334  -0.67131   1.59041
C    -4.34333  -1.71174  -0.67657
H    -0.55854  -3.14443   3.49863
H    -1.50863  -1.71451   2.78290
H     1.66543  -3.56657   0.77203
H     1.40922  -3.96954   2.49766
H     2.44988  -2.60284   2.02196
H     0.33446  -1.72321  -0.24061
H     1.76019   0.07752   1.74284
H     1.72822  -0.95509  -1.90288
H     3.76515  -1.74279  -3.07890
H     5.93828  -1.89191  -1.85969
H     6.05224  -1.23266   0.54547
H     4.00543  -0.44279   1.71735
H     0.40971   2.77834  -1.84507
H    -0.92525   4.67144  -2.75739
H    -3.23706   5.08640  -1.91356
H    -4.19729   3.60191  -0.15306
H    -2.87237   1.71574   0.74230
H    -1.28018   0.01493   1.66531
H    -1.79652  -1.17934  -1.14624
H    -3.18132  -0.19065   2.25184
H    -4.75896   0.02572   1.45528
H    -4.32096  -1.55428   2.11253
H    -4.77208  -2.62195  -0.22111
H    -3.89053  -1.98616  -1.64081
H    -5.19374  -1.03437  -0.87173
