26
Generated by autodE on: 2022-06-21. E = -595.074070 Ha
C    -0.90423  -0.34920  -1.46271
N     0.11376   0.32222  -1.31696
C     1.26135   0.87722  -1.16510
C     2.26861   0.36355  -0.24132
C     2.03768  -0.77269   0.56229
C     3.02867  -1.24068   1.42405
C     4.26416  -0.58591   1.50813
C     4.50074   0.54451   0.71744
C     3.51499   1.01575  -0.14995
C    -2.15245  -0.17671  -0.71036
C    -2.26278   0.75642   0.34187
C    -3.45996   0.88489   1.04228
C    -4.56111   0.08819   0.69970
C    -4.46248  -0.83930  -0.34217
C    -3.26220  -0.97349  -1.04251
H     1.49147   1.76149  -1.76983
H     1.07420  -1.28497   0.50839
H     2.83536  -2.12272   2.03962
H     5.03639  -0.95394   2.18749
H     5.46143   1.06200   0.77639
H     3.70330   1.89619  -0.76964
H    -1.40079   1.37545   0.60290
H    -3.54095   1.60743   1.85777
H    -5.49937   0.19230   1.24986
H    -5.32175  -1.45955  -0.60663
H    -3.16783  -1.69617  -1.85587
