23
Generated by autodE on: 2022-06-21. E = -351.521385 Ha
C     2.86728   0.55881  -2.40112
C     1.90078   0.88415  -1.51467
C     1.66638   2.31449  -1.10070
C     1.05741  -0.16102  -0.93806
C     0.05683   0.03419  -0.04276
C    -0.75135  -1.04027   0.49690
C    -1.76582  -0.93047   1.39150
C    -2.51629  -2.14667   1.85572
C    -2.23258   0.36540   1.99141
H     3.51247   1.32029  -2.84811
H     3.03462  -0.48074  -2.69955
H     0.63829   2.63378  -1.33958
H     1.78882   2.43837  -0.01182
H     2.36562   2.99521  -1.60640
H     1.26809  -1.18443  -1.27124
H    -0.15940   1.05181   0.29366
H    -0.50570  -2.04536   0.13308
H    -3.59345  -2.05218   1.62842
H    -2.14194  -3.06980   1.38936
H    -2.44509  -2.25559   2.95295
H    -2.16558   0.32202   3.09288
H    -1.66591   1.24066   1.64884
H    -3.29884   0.53254   1.75700
