49
Generated by autodE on: 2022-06-21. E = -946.593573 Ha. Imaginary frequency = -354.4 cm-1
C     1.39868  -3.04804   2.75784
C     0.53298  -2.04541   2.47562
C    -0.05064  -1.19013   3.57230
C     0.15203  -1.73980   1.09963
C     1.97473  -0.04538   0.87843
C     2.69416  -0.68104  -0.20777
C     2.34351  -0.48850  -1.56305
C     3.00040  -1.19404  -2.56889
C     4.01872  -2.10437  -2.25295
C     4.37772  -2.29707  -0.91373
C     3.72984  -1.59047   0.09965
N     1.07670   0.90650   0.66298
C    -0.11756   1.09035   0.51629
C    -1.05332   2.12503   0.17413
C    -1.34224   2.37756  -1.18254
C    -2.34638   3.28480  -1.51904
C    -3.07115   3.94246  -0.51857
C    -2.78503   3.69089   0.82912
C    -1.79179   2.77844   1.18071
C    -0.95505  -0.97876   0.72417
C    -1.48024  -1.04342  -0.64042
C    -2.67973  -0.60197  -1.08527
C    -3.73279   0.01610  -0.20801
C    -3.04736  -0.69455  -2.54067
H     1.82090  -3.67147   1.96362
H     1.70412  -3.26522   3.78519
H    -1.14726  -1.29622   3.62187
H     0.36189  -1.45903   4.55520
H     0.15111  -0.12165   3.38768
H     0.64007  -2.33634   0.32464
H     2.39508  -0.09699   1.88586
H     1.54931   0.21607  -1.81948
H     2.71820  -1.03280  -3.61240
H     4.53165  -2.65344  -3.04580
H     5.17370  -3.00076  -0.65733
H     4.01167  -1.74217   1.14437
H    -0.78255   1.85436  -1.95906
H    -2.56694   3.47654  -2.57166
H    -3.85968   4.64859  -0.78796
H    -3.34817   4.20284   1.61283
H    -1.58289   2.55984   2.22980
H    -1.62903  -0.61969   1.50472
H    -0.79339  -1.47533  -1.37851
H    -3.44228   0.07640   0.84839
H    -3.97160   1.03727  -0.55211
H    -4.67351  -0.56006  -0.27270
H    -3.97288  -1.28116  -2.68422
H    -3.25412   0.30972  -2.95373
H    -2.24877  -1.15517  -3.14144
