23
Generated by autodE on: 2022-07-27. E = -626.187769 Ha
C     0.34713   2.38025   1.96011
C     1.17032   1.13968   1.81004
O     2.15195   0.90028   2.50665
C     0.75576   0.14781   0.77102
N     1.51646  -0.92748   0.77075
N     1.57842  -2.01884   0.03964
C     0.81130  -2.15187  -1.02566
N     0.24320  -2.45191  -2.00886
C    -0.41648   0.31012  -0.10657
C    -0.43702   1.30463  -1.09796
C    -1.55586   1.44682  -1.91931
C    -2.66196   0.60683  -1.75127
C    -2.64955  -0.37729  -0.75818
C    -1.53194  -0.52820   0.06303
H     0.69976   2.95291   2.82686
H     0.43163   2.99652   1.05051
H    -0.71765   2.12476   2.07410
H     2.23886  -0.89194   1.50861
H     0.43129   1.95285  -1.23106
H    -1.56340   2.21451  -2.69619
H    -3.53648   0.72067  -2.39596
H    -3.51286  -1.03260  -0.62376
H    -1.51500  -1.29845   0.83694
