23
Generated by autodE on: 2022-06-26. E = -626.188520 Ha
C    -1.17789  -2.84263   0.43444
C    -1.56564  -1.42228   0.70496
O    -2.63747  -1.12405   1.22404
C    -0.63098  -0.32103   0.30680
N    -1.15476   0.86781   0.50825
N    -0.58516   2.03298   0.26868
C    -1.31622   3.09109   0.55368
N    -1.86593   4.10752   0.76478
C     0.70251  -0.50274  -0.28458
C     1.64688  -1.34125   0.33412
C     2.90802  -1.52022  -0.23613
C     3.23661  -0.87481  -1.43186
C     2.30083  -0.04127  -2.05431
C     1.04367   0.15196  -1.48326
H    -2.07194  -3.47572   0.50088
H    -0.69495  -2.95175  -0.54681
H    -0.45356  -3.17598   1.19585
H    -2.10899   0.82267   0.91525
H     1.40020  -1.83940   1.27266
H     3.63728  -2.16597   0.25789
H     4.22275  -1.01982  -1.87905
H     2.55212   0.46252  -2.99034
H     0.31691   0.80240  -1.97108
