26
Generated by autodE on: 2022-06-26. E = -689.460835 Ha
C     3.19381   0.11861   0.60592
O     2.30034   0.23825  -0.50625
C     0.97490   0.05775  -0.23286
C     0.06731   1.07455  -0.25497
O     0.26295   2.37423  -0.47585
C     1.56679   2.94741  -0.61786
C    -1.39159   0.77990  -0.02704
O    -2.19322   1.70334  -0.06490
C    -1.82180  -0.61419   0.25292
C    -3.27974  -0.85638   0.49370
C    -0.90863  -1.61628   0.28363
C    -1.29554  -3.03432   0.56210
C     0.53241  -1.33231   0.00975
O     1.35574  -2.24516  -0.02882
H     4.20316   0.30973   0.21806
H     2.95262   0.86630   1.37974
H     3.15583  -0.88917   1.04457
H     1.39686   4.02584  -0.72936
H     2.17617   2.76283   0.27847
H     2.07733   2.55668  -1.50725
H    -3.68359  -1.56805  -0.24523
H    -3.85248   0.07646   0.43372
H    -3.44098  -1.30823   1.48626
H    -1.80364  -3.11515   1.53708
H    -2.01061  -3.39842  -0.19452
H    -0.41835  -3.69179   0.56214
