49
Generated by autodE on: 2022-06-26. E = -1315.631437 Ha. Imaginary frequency = -318.2 cm-1
C     4.59908  -0.32015   1.42789
O     3.21236  -0.39534   1.77651
C     2.34685  -0.12441   0.75044
C     1.81440   1.11705   0.52672
O     1.97296   2.21445   1.25256
C     2.52271   2.20490   2.57742
C     0.93386   1.38346  -0.67442
O     0.69634   2.56848  -0.96719
C     0.44639   0.25957  -1.42541
C    -0.30683   0.52528  -2.68583
C    -1.35945   0.18662   0.56494
C    -1.10016   1.20763   1.65959
C    -1.57890   2.61392   1.53914
O    -0.45207   0.82699   2.62743
C    -2.44841   0.26389  -0.41283
C    -2.77790   1.46016  -1.08163
C    -3.85006   1.50178  -1.97132
C    -4.61236   0.35631  -2.21491
C    -4.29125  -0.83921  -1.56222
C    -3.22030  -0.88965  -0.67361
N    -0.77695  -0.98181   0.87730
N    -0.40862  -1.81624  -0.11993
C    -0.22972  -3.09050   0.22052
N    -0.09250  -4.23007   0.43869
C     0.88049  -1.08689  -1.13113
C     0.94323  -2.05685  -2.29065
C     2.04727  -1.23017  -0.15828
O     2.66367  -2.29009  -0.08906
H     4.85350  -1.05933   0.65306
H     4.85792   0.69006   1.06924
H     5.16687  -0.53936   2.34209
H     2.01820   1.45190   3.19522
H     3.60511   2.02237   2.55750
H     2.32501   3.20828   2.97474
H    -1.18115  -0.13677  -2.78315
H     0.33453   0.33747  -3.56578
H    -0.63906   1.56711  -2.73057
H    -1.37157   3.13636   2.48116
H    -1.01858   3.10378   0.72403
H    -2.64875   2.66701   1.29732
H    -2.17104   2.35072  -0.94204
H    -4.08311   2.43648  -2.48565
H    -5.45280   0.39289  -2.91161
H    -4.88398  -1.73893  -1.74110
H    -2.99533  -1.82352  -0.15841
H    -0.21553  -0.96289   1.74156
H     1.26258  -3.04980  -1.95288
H    -0.03173  -2.13937  -2.78523
H     1.67937  -1.69451  -3.02370
