32
Generated by autodE on: 2022-05-29. E = -1485.307924 Ha
C     2.99929   2.02606  -1.35570
O     2.33173   1.06147  -0.52757
C     2.32893  -0.20063  -0.92194
O     2.90500  -0.63224  -1.89500
C     1.49924  -1.08000   0.01482
O     1.57505  -0.66450   1.37223
N     0.51313   0.25909   1.59457
C     0.93201   1.48272   1.90747
N     1.29545   2.51441   2.31573
C    -0.63236  -0.05996   0.72911
C    -1.19659   1.21043   0.08680
O    -0.49743   2.10179  -0.33675
O    -2.51549   1.20355   0.04869
C    -3.15567   2.31616  -0.60405
C    -1.61847  -1.00612   1.50854
C    -2.74097  -1.45410   0.58645
C    -2.18577  -2.33402  -0.25353
C    -0.72674  -2.41532   0.16338
O    -0.79390  -2.18113   1.57062
C    -0.01466  -1.09372  -0.30432
Cl   -0.34313  -0.74388  -2.03404
H     4.06686   1.78067  -1.44365
H     2.53726   2.04499  -2.35288
H     2.86613   2.98992  -0.85238
H     1.91510  -2.09478  -0.02531
H    -2.82803   2.37226  -1.65126
H    -4.23081   2.11565  -0.54588
H    -2.90672   3.25080  -0.08308
H    -1.87524  -0.63139   2.50404
H    -3.75699  -1.06721   0.60319
H    -2.62696  -2.84428  -1.10795
H    -0.16073  -3.32066  -0.07885
