13
Generated by autodE on: 2022-07-26. E = -490.075528 Ha
C     1.08856   1.80189  -2.11616
O     0.57018   0.91002  -1.11014
C     0.93890  -0.35415  -1.19919
O     1.67205  -0.82499  -2.04725
C     0.38776  -1.25649  -0.15502
O    -0.37047  -0.98910   0.82559
N    -0.85055   0.26007   1.11830
C    -1.60274   0.14882   2.20580
N    -2.29253   0.20976   3.15318
H     0.67214   2.78719  -1.88132
H     2.18656   1.82387  -2.06921
H     0.76601   1.47210  -3.11388
H     0.65996  -2.31379  -0.21106
