23
Generated by autodE on: 2022-06-17. E = -351.521380 Ha
C    -3.60749   0.70000  -0.89287
C    -2.57174   0.15164  -0.22034
C    -2.79811  -0.79432   0.93131
C    -1.19894   0.47437  -0.60438
C    -0.07829  -0.00377  -0.00749
C     1.26292   0.34856  -0.42658
C     2.42809  -0.07582   0.12481
C     2.52091  -1.00557   1.30134
C     3.75046   0.37776  -0.42618
H    -4.64420   0.47637  -0.62621
H    -3.43992   1.38676  -1.72832
H    -2.33259  -1.77498   0.73762
H    -2.34248  -0.40785   1.85814
H    -3.87070  -0.95103   1.11318
H    -1.08743   1.16454  -1.44937
H    -0.18215  -0.69179   0.83581
H     1.32757   1.03173  -1.28215
H     3.09067  -1.91163   1.02915
H     3.08357  -0.52630   2.12194
H     1.54548  -1.31975   1.69437
H     4.34027   0.89772   0.35011
H     3.63365   1.05421  -1.28558
H     4.35993  -0.48775  -0.74282
