15
Generated by autodE on: 2022-06-17. E = -450.374513 Ha
C     2.61174   0.31063   0.22790
C     1.28702   0.11448  -0.43232
O     0.86432   0.77457  -1.36620
N     0.58164  -1.01319   0.04201
N    -0.68836  -1.02411   0.13309
C    -1.32852  -2.35468   0.20981
N    -1.54309  -0.04358   0.24267
C    -1.11572   1.19401   0.41802
N    -0.89748   2.32262   0.64138
H     2.44018   0.63090   1.26950
H     3.18661   1.07791  -0.30508
H     3.16827  -0.63752   0.26421
H    -1.67221  -2.50488   1.24164
H    -2.18765  -2.34936  -0.47108
H    -0.58919  -3.10635  -0.07696
