27
Generated by autodE on: 2022-05-31. E = -687.350714 Ha
N    -1.30237   4.55466  -1.21912
C    -1.05380   3.62010  -0.56071
C    -0.79509   2.63227   0.40711
N    -0.46852   1.46323   0.19313
C    -0.09419   0.23932   0.14223
C     1.36065  -0.03682   0.08430
C     2.23307   0.90347  -0.49514
C     3.60762   0.67017  -0.51804
C     4.13147  -0.50172   0.03863
C     3.27142  -1.43738   0.62225
C     1.89453  -1.21073   0.64701
C    -1.13141  -0.81911   0.14123
C    -0.92089  -2.03546  -0.53322
C    -1.91681  -3.01338  -0.54411
C    -3.13001  -2.79337   0.11546
C    -3.34787  -1.58281   0.78296
C    -2.35892  -0.60012   0.79320
H     1.82759   1.81451  -0.94057
H     4.27297   1.40434  -0.97790
H     5.20817  -0.68491   0.01802
H     3.67474  -2.34938   1.06806
H     1.23547  -1.93824   1.12181
H     0.01570  -2.21176  -1.06333
H    -1.74398  -3.95168  -1.07607
H    -3.90600  -3.56224   0.10714
H    -4.29312  -1.40406   1.30046
H    -2.53312   0.34272   1.31617
