40
Generated by autodE on: 2022-05-31. E = -1454.493734 Ha. Imaginary frequency = -257.4 cm-1
N     1.99925   0.79276   4.40412
C     1.40007   0.57494   3.42324
C     0.88318   0.22316   2.17037
N    -0.22634   0.38049   1.66790
C    -0.99274   0.19269   0.61627
C    -1.18237   1.32150  -0.31112
C    -0.90204   2.63941   0.09707
C    -1.00701   3.69849  -0.80375
C    -1.39482   3.46418  -2.12706
C    -1.66870   2.15705  -2.54437
C    -1.56412   1.09323  -1.64900
C    -1.82255  -1.03055   0.59905
C    -1.33843  -2.21165   1.19594
C    -2.10149  -3.37659   1.18504
C    -3.36628  -3.38480   0.58521
C    -3.86335  -2.21478   0.00387
C    -3.10183  -1.04496   0.01212
C     1.37096  -0.65490  -0.62780
Cl    0.66684  -2.01725  -1.44583
C     1.79919   0.59525  -1.42156
C     3.21463   0.29569  -1.97138
C     4.00326   0.28120  -0.89104
C     3.06241   0.56981   0.29929
O     2.12400   1.46866  -0.32857
C     2.16129  -0.67341   0.48864
H    -0.60775   2.83115   1.13038
H    -0.79001   4.71518  -0.46809
H    -1.48002   4.29528  -2.83074
H    -1.95556   1.96085  -3.58002
H    -1.73326   0.07541  -1.99984
H    -0.35212  -2.21861   1.66191
H    -1.70648  -4.28548   1.64446
H    -3.96443  -4.29885   0.57757
H    -4.85583  -2.20744  -0.45234
H    -3.51367  -0.13524  -0.42414
H     1.06380   1.03562  -2.10220
H     3.45543   0.08761  -3.01346
H     5.06630   0.05625  -0.80873
H     3.50496   1.00680   1.20121
H     2.45220  -1.54905   1.06651
