12
Generated by autodE on: 2022-06-17. E = -157.300302 Ha
C    -1.96213   0.03593   0.07932
C    -0.50612   0.07918   0.43159
C     0.50612  -0.07926  -0.43158
C     1.96213  -0.03587  -0.07932
H    -2.48697  -0.75651   0.64202
H    -2.46598   0.98321   0.34185
H    -2.11684  -0.14763  -0.99561
H    -0.26820   0.25729   1.48970
H     0.26820  -0.25738  -1.48969
H     2.48675   0.75706  -0.64155
H     2.46620  -0.98285  -0.34247
H     2.11683   0.14708   0.99571
