19
Generated by autodE on: 2022-06-17. E = -681.040798 Ha
C    -3.61996  -1.30790  -0.46703
O    -2.20828  -1.08446  -0.34572
C    -1.81904   0.16812  -0.07445
O    -2.59580   1.09875   0.06868
C    -0.37819   0.32270   0.03812
C     0.27147   1.55815   0.33278
O    -0.07295   2.69671   0.54622
O     1.66878   1.21900   0.35145
C     1.78487  -0.08000   0.08993
C     3.04708  -0.70891   0.03802
N     4.09548  -1.21238  -0.00111
N     0.60304  -0.64662  -0.10234
C     0.41437  -2.06601  -0.41420
H    -3.73570  -2.37474  -0.69002
H    -4.13192  -1.05823   0.47347
H    -4.03763  -0.70104  -1.28315
H    -0.10778  -2.15367  -1.37284
H    -0.18480  -2.52980   0.37675
H     1.39883  -2.54274  -0.47426
