35
Generated by autodE on: 2022-06-03. E = -869.580078 Ha
C     4.63151   0.22370   0.51814
C     3.23567  -0.30818   0.57168
O     2.89261  -1.26180   1.24402
C     2.18832   0.38507  -0.32339
F     2.67761   1.64315  -0.70370
C     0.89667   0.53625   0.33434
C    -0.30319   0.44847   0.46482
C    -1.68022   0.11164   0.13101
C    -2.68168   1.13632   0.72482
C    -4.07066   1.14790   0.16296
O    -2.32210   1.88010   1.61700
C    -2.07553  -1.27211   0.74883
C    -1.38943  -1.67374   2.01767
O    -2.92550  -1.94734   0.20672
C    -1.75270   0.04917  -1.42511
C    -0.63303  -0.76285  -2.10971
C     0.71720  -0.06190  -2.43443
C     1.95232  -0.45708  -1.59981
H     5.29464  -0.40111   1.12968
H     4.63972   1.26283   0.88479
H     4.98325   0.25459  -0.52553
H    -4.46205   0.12606   0.05597
H    -4.72456   1.75072   0.80586
H    -4.04674   1.59040  -0.84633
H    -1.86911  -2.56531   2.44073
H    -1.41065  -0.83861   2.73581
H    -0.32774  -1.88067   1.80653
H    -2.72241  -0.39662  -1.68323
H    -1.75322   1.08049  -1.81026
H    -0.44486  -1.68805  -1.53890
H    -1.05933  -1.09626  -3.06825
H     0.59693   1.03389  -2.41686
H     0.96914  -0.31093  -3.47633
H     2.86942  -0.35896  -2.20208
H     1.87567  -1.51095  -1.29124
