19
Generated by autodE on: 2022-07-27. E = -514.694968 Ha
C     2.43252  -0.95019   0.35799
O     1.30215  -0.14820   0.71707
C     1.11513   0.97237   0.00828
O     1.93428   1.41357  -0.78154
C    -0.09376   1.70510   0.39159
N    -1.23204   1.17490   0.80731
C    -1.76278  -0.06835   0.68091
C    -1.39491  -0.96100  -0.37056
C    -2.20743  -2.23058  -0.50021
O    -0.49610  -0.71704  -1.20170
H     2.38712  -1.84049   0.99623
H     2.37385  -1.24157  -0.70047
H     3.37121  -0.40558   0.53725
H    -0.02344   2.79255   0.42409
H    -1.85937   1.84847   1.25746
H    -2.67492  -0.22933   1.25186
H    -1.53499  -3.09383  -0.36310
H    -3.02590  -2.29836   0.22901
H    -2.61642  -2.29934  -1.52096
