54
Generated by autodE on: 2022-06-03. E = -1384.270885 Ha. Imaginary frequency = -269.7 cm-1
C     6.23807 -15.87251   8.49798
O     5.05519 -15.17579   8.91188
C     4.60585 -14.22179   8.08905
O     5.23073 -13.82608   7.12045
C     3.37574 -13.58010   8.60319
N     2.39594 -14.22390   9.24548
C     1.72282 -15.33569   8.86382
C     2.21086 -16.38453   7.98634
C     1.38882 -17.65232   7.96068
O     3.23775 -16.30164   7.29980
C     1.08554 -14.04701   6.81179
C     2.04522 -13.28486   6.62262
C     2.62528 -12.31479   5.65715
C     3.03719 -13.03791   4.34640
C     3.38889 -14.49437   4.39464
O     3.07714 -12.40207   3.30781
C     3.82113 -11.48603   6.22080
C     5.01561 -11.23719   5.34826
O     3.70710 -10.96794   7.31512
C     1.55998 -11.21204   5.33331
C     0.28508 -11.60814   4.57563
C    -0.86471 -12.30742   5.32584
C    -0.87903 -13.84416   5.31091
C    -0.26152 -14.54274   6.53789
F    -0.21286 -15.91453   6.22425
C    -1.18799 -14.37062   7.76009
C    -2.15911 -15.47591   8.03599
O    -1.12005 -13.35530   8.42728
H     6.43939 -16.61505   9.27887
H     7.08587 -15.17842   8.40692
H     6.06735 -16.37376   7.53456
H     3.50589 -12.53715   8.88778
H     1.82824 -13.61189   9.83318
H     0.83874 -15.54324   9.46485
H     0.35264 -17.50270   8.28764
H     1.86567 -18.37257   8.64856
H     1.40877 -18.08558   6.95150
H     3.84206 -14.79282   3.44053
H     2.47658 -15.08451   4.57179
H     4.06622 -14.69927   5.23482
H     5.75496 -10.64560   5.90263
H     4.70340 -10.69404   4.44313
H     5.46034 -12.18676   5.01866
H     2.07622 -10.44796   4.73295
H     1.29834 -10.73959   6.29160
H     0.54205 -12.18792   3.67506
H    -0.11879 -10.65427   4.19951
H    -1.79875 -11.98368   4.84213
H    -0.92480 -11.93619   6.36119
H    -0.32525 -14.22569   4.43803
H    -1.91206 -14.21571   5.22093
H    -1.60279 -16.36068   8.38606
H    -2.68663 -15.77418   7.11747
H    -2.87139 -15.15864   8.80828
