35
Generated by autodE on: 2022-06-07. E = -6134.137090 Ha
C     4.35375   1.92329   0.21749
N     3.37892   1.22043  -0.59854
C     2.08331   1.22405  -0.27383
O     1.61458   1.83863   0.67765
C     1.09596   0.42732  -1.18661
C     1.77045  -0.08405  -2.38424
N     2.31647  -0.47779  -3.32793
N     0.03305   1.35077  -1.58962
C    -1.05517   1.29291  -0.63332
C    -0.99344   2.41195   0.32709
N    -1.06765   3.37059   0.97530
C    -2.40813   1.48949  -1.42277
C    -3.63752   1.80330  -0.63278
O    -2.38391   1.38384  -2.62651
C    -1.00865  -0.14658   0.04080
Br   -1.41110  -0.08993   1.94472
C    -1.96173  -1.16592  -0.69500
C    -1.85115  -2.52022  -0.01855
C    -0.66696  -3.00838  -0.39887
C    -0.06266  -1.93873  -1.29414
O    -1.21702  -1.35266  -1.90332
C     0.40287  -0.74172  -0.38393
Br    1.58011  -1.43656   1.01538
H     4.08248   2.98459   0.31821
H     4.41256   1.48573   1.22671
H     5.33579   1.84755  -0.26340
H     3.71000   0.67337  -1.38622
H    -0.35913   1.09206  -2.49925
H    -3.63085   1.32635   0.35728
H    -4.52586   1.50849  -1.20549
H    -3.66702   2.89351  -0.46868
H    -2.97325  -0.80229  -0.89404
H    -2.58203  -2.93789   0.67117
H    -0.17411  -3.93210  -0.10176
H     0.67350  -2.25718  -2.03721
