22
Generated by autodE on: 2022-06-07. E = -679.410881 Ha
C     4.51891  -0.49255  -0.10325
N     3.23599   0.15905   0.07788
C     2.06461  -0.45858  -0.12013
O     1.92835  -1.63687  -0.47236
C     0.82636   0.35390   0.10909
C     0.84192   1.70606   0.51864
N     0.92450   2.81874   0.85673
N    -0.28954  -0.32504  -0.10618
C    -1.60246  -0.07339  -0.04018
C    -2.11833   1.18623   0.33547
N    -2.59199   2.20761   0.63942
C    -2.46492  -1.22227  -0.38852
C    -3.94826  -1.02104  -0.33566
O    -1.93406  -2.28427  -0.70330
H     5.12372  -0.40919   0.81194
H     4.35310  -1.55184  -0.32839
H     5.07732  -0.03369  -0.93398
H     3.23668   1.13551   0.36016
H    -0.08867  -1.30748  -0.39741
H    -4.25211  -0.71359   0.67806
H    -4.24450  -0.21083  -1.02135
H    -4.45976  -1.95077  -0.61286
