12
Generated by autodE on: 2022-06-17. E = -157.299005 Ha
C     1.59227  -0.53689   0.01137
C     0.65975   0.62931   0.14861
C    -0.67997   0.62230   0.06108
C    -1.57463  -0.55368  -0.19405
H     1.07004  -1.48548  -0.17871
H     2.30785  -0.37157  -0.81346
H     2.20153  -0.66102   0.92406
H     1.14555   1.59420   0.34213
H    -1.19685   1.58185   0.18967
H    -1.02217  -1.49584  -0.31942
H    -2.18355  -0.39326  -1.10131
H    -2.29159  -0.68782   0.63522
