27
Generated by autodE on: 2022-06-17. E = -632.451701 Ha
C     3.82862   1.67564   0.02124
N     2.65236   0.84245   0.12866
C     2.74995  -0.48567   0.41141
O     3.85733  -1.01843   0.64705
C     1.52184  -1.25844   0.43626
C     1.44111  -2.70291   0.72503
O     0.41236  -0.58004   0.17192
C    -0.81912  -1.00995   0.12090
C    -1.86309  -0.07953  -0.18572
C    -1.61714   1.29573  -0.42558
C    -2.66960   2.15653  -0.72170
C    -3.98684   1.67983  -0.78683
C    -4.24195   0.32302  -0.55021
C    -3.19750  -0.54877  -0.25312
H     3.51486   2.71581  -0.13338
H     4.43804   1.62761   0.93766
H     4.47575   1.37826  -0.82266
H     1.74861   1.22740  -0.11972
H     0.99479  -3.26203  -0.12118
H     0.79819  -2.90587   1.60442
H     2.44536  -3.09656   0.92044
H    -1.01487  -2.06612   0.31201
H    -0.59530   1.67736  -0.37479
H    -2.46411   3.21419  -0.90429
H    -4.80749   2.36183  -1.01996
H    -5.26528  -0.05702  -0.59856
H    -3.39940  -1.60708  -0.06953
