21
Generated by autodE on: 2022-10-21. E = -536.658753 Ha
C     2.01527  -1.93936   0.65510
O     2.04803  -0.58425   0.20595
C     0.87358  -0.05058  -0.17573
C    -0.38027  -0.50965  -0.34088
O    -0.91635  -1.75713  -0.19223
C    -1.82919  -1.87287   0.89978
C    -1.21080   0.76464  -0.65482
C    -1.24641   1.64347   0.61750
C     0.00704   2.08425   0.76409
C     0.77886   1.46891  -0.42965
O    -0.24473   1.49929  -1.44104
H     3.04132  -2.19847   0.94659
H     1.67808  -2.61284  -0.14801
H     1.34572  -2.04612   1.52429
H    -2.20149  -2.90635   0.90194
H    -1.32426  -1.66040   1.85811
H    -2.68365  -1.18331   0.78586
H    -2.15412   0.60540  -1.18996
H    -2.11663   1.78804   1.25712
H     0.44989   2.68888   1.55478
H     1.70622   1.95956  -0.74676
