36
Generated by autodE on: 2022-10-21. E = -936.722260 Ha. Imaginary frequency = -346.1 cm-1
C    -0.94109   0.17567   3.36653
O    -1.12531  -0.48921   2.11412
C    -1.91658   0.11766   1.21140
O    -2.50599   1.16699   1.44252
C    -2.02264  -0.61249  -0.05125
C    -3.24093  -0.40980  -0.90855
N    -1.26132  -1.67580  -0.23038
C    -0.38077  -2.23312  -0.84112
C     0.23487  -0.69984  -2.39029
C     1.73062  -0.42445  -2.05378
O     1.82910   0.97168  -2.41521
C     0.74172   1.38632  -1.54912
C     1.24995   0.83068  -0.20165
O     0.90346   1.31432   1.01961
C     0.65862   2.71374   1.10275
C     1.86611  -0.32227  -0.53170
O     2.38292  -1.37148   0.15095
C     2.20261  -1.37482   1.56651
C    -0.38937   0.47498  -2.06926
H    -0.59356   1.20666   3.22123
H    -0.18318  -0.40296   3.90806
H    -1.88254   0.18661   3.93636
H    -3.08436  -0.81967  -1.91538
H    -3.45966   0.66401  -0.98931
H    -4.12866  -0.89855  -0.46872
H    -0.07286  -3.28297  -0.87575
H    -0.09256  -1.44373  -3.11656
H     2.47597  -1.04659  -2.56256
H     0.56369   2.46503  -1.60613
H     0.55837   2.95436   2.16933
H    -0.27713   2.98722   0.58813
H     1.49562   3.29367   0.67940
H     2.68919  -2.28465   1.94222
H     2.67342  -0.49274   2.02869
H     1.13299  -1.39364   1.82185
H    -1.38085   0.82160  -2.34528
