61
Generated by autodE on: 2022-06-10. E = -1588.320953 Ha
C    13.09098 -22.73026   9.13002
O    11.79602 -22.11427   9.18374
C    11.14994 -22.17172  10.35139
O    11.60678 -22.72989  11.32903
C     9.72595 -21.60343  10.28266
C     8.95395 -22.88925   9.87146
C     9.47428 -20.56073   9.15610
C     9.82174 -19.09608   9.40832
C    11.28795 -18.73926   9.64670
C    11.98398 -19.33821  10.87176
C    11.22661 -19.26899  12.23666
C    10.81512 -17.79293  12.41713
O     9.66180 -17.41517  12.45155
O    11.84949 -16.96547  12.44174
C    11.55478 -15.56213  12.53952
C    12.29994 -19.68972  13.26849
O    13.27408 -19.04036  13.57377
O    12.07909 -20.92778  13.69363
C    12.99884 -21.47671  14.64543
C     9.97813 -20.12532  12.40817
C     9.33971 -21.04445  11.64869
C     8.11774 -21.50866  12.52004
C     6.91519 -22.22407  11.96876
O     8.72847 -22.35322  13.57956
C     9.37032 -21.49602  14.38551
O     9.92155 -21.80479  15.40981
C     9.17002 -20.08238  13.74646
C     9.44305 -19.04891  14.82758
C     8.31306 -18.65527  15.72459
O    10.58364 -18.65887  15.00956
N     7.78195 -20.32289  13.31223
C     7.09973 -19.27227  12.56143
H    13.77277 -22.24710   9.84507
H    13.01658 -23.80222   9.36176
H    13.45128 -22.58521   8.10521
H     9.01835 -23.66296  10.64730
H     7.90425 -22.66840   9.65435
H     9.40459 -23.28710   8.95095
H     9.97671 -20.92093   8.24690
H     8.39365 -20.60348   8.94901
H     9.48810 -18.53515   8.51968
H     9.21226 -18.71200  10.23847
H    11.35623 -17.64072   9.71559
H    11.88734 -19.02542   8.76636
H    12.92006 -18.78608  11.02760
H    12.29555 -20.37094  10.70765
H    12.52505 -15.05332  12.55219
H    11.00043 -15.35431  13.46545
H    10.96221 -15.23752  11.67258
H    14.01655 -21.48653  14.23074
H    12.97953 -20.88459  15.57126
H    12.65435 -22.49803  14.83961
H     6.53479 -21.71369  11.07537
H     7.15260 -23.26097  11.71428
H     6.13258 -22.22546  12.73987
H     7.81373 -19.55546  16.11498
H     8.69743 -18.04253  16.54953
H     7.55850 -18.08553  15.16079
H     7.59435 -19.01676  11.61046
H     7.03379 -18.36324  13.16964
H     6.07549 -19.60539  12.34641
