20
Generated by autodE on: 2022-06-10. E = -552.863866 Ha
C     2.95141  -0.22702   0.12557
C     1.61244  -0.92641   0.21470
O     1.55186  -2.14741   0.42743
C     0.44825  -0.10439   0.03935
C     0.38925   1.28319  -0.22204
O     1.18308   2.19547  -0.36673
O    -1.02329   1.56703  -0.32245
C    -1.70655   0.44519  -0.13309
C    -3.18353   0.44563  -0.18707
N    -0.89389  -0.56371   0.08482
C    -1.32069  -1.93710   0.33646
H     3.74768  -0.96901   0.27015
H     3.07457   0.26545  -0.85158
H     3.03443   0.56130   0.89007
H    -3.54204  -0.22994  -0.97906
H    -3.60784   0.10670   0.77074
H    -3.53123   1.46442  -0.39507
H    -0.94131  -2.59257  -0.45615
H    -0.92192  -2.27365   1.29985
H    -2.41496  -1.97092   0.35508
