41
Generated by autodE on: 2022-06-10. E = -1035.426210 Ha
C    -1.72194   1.00556  -4.06458
O    -0.82575   0.87808  -2.94863
C     0.14073   1.78837  -2.84543
O     0.29386   2.69339  -3.64018
C     1.02300   1.61584  -1.60314
C     2.49381   1.78537  -2.01838
C     0.76507   0.36119  -0.89906
C     0.36454  -0.40102  -0.04749
C    -0.37846  -0.81394   1.14009
C    -1.12283  -2.14091   0.90840
O    -2.32295  -2.28057   0.95204
O    -0.25980  -3.11991   0.64653
C    -0.80669  -4.43025   0.42100
C     0.50355  -1.03302   2.37989
O     0.08321  -1.58338   3.37606
O     1.72151  -0.52543   2.26051
C     2.58665  -0.63796   3.40521
C    -1.38753   0.33765   1.44767
C    -0.79731   1.76176   1.46329
C    -0.74626   2.56113   0.12971
C     0.61409   2.73159  -0.57706
H    -2.43422   0.17765  -3.97384
H    -1.16710   0.93074  -5.01053
H    -2.24891   1.96935  -4.02219
H     2.64546   2.77829  -2.46355
H     3.14158   1.68828  -1.13577
H     2.78425   1.02123  -2.75450
H    -1.35028  -4.77285   1.31298
H     0.05017  -5.08343   0.22187
H    -1.48579  -4.41568  -0.44318
H     2.14358  -0.11923   4.26680
H     2.74990  -1.69605   3.65316
H     3.52974  -0.16209   3.11471
H    -1.84462   0.10896   2.42199
H    -2.18798   0.27041   0.69654
H     0.20137   1.75285   1.93107
H    -1.43562   2.33448   2.15322
H    -1.09268   3.58068   0.35876
H    -1.48907   2.15389  -0.57696
H     0.62831   3.68439  -1.12896
H     1.41856   2.78503   0.17343
