61
Generated by autodE on: 2022-06-10. E = -1588.271009 Ha. Imaginary frequency = -405.8 cm-1
C    11.15486 -24.48337   9.92093
O    10.76889 -23.13180  10.20867
C     9.65937 -22.67735   9.62072
O     8.99112 -23.34160   8.85548
C     9.38915 -21.21366   9.96518
C     7.91398 -20.87090   9.69521
C    10.28259 -20.39926   8.97578
C    10.19993 -18.87322   9.16690
C    11.53011 -18.21284   9.53845
C    12.27664 -18.82125  10.72400
C    11.47707 -18.94698  12.06770
C    10.79779 -17.60960  12.39105
O     9.61153 -17.47235  12.60153
O    11.66111 -16.59993  12.35613
C    11.13975 -15.28913  12.62631
C    12.53926 -19.31903  13.12881
O    13.30798 -20.24238  12.98155
O    12.51457 -18.52175  14.18373
C    13.43883 -18.80340  15.24921
C    10.47077 -20.03264  12.00404
C     9.79190 -20.89653  11.38845
C     8.93771 -22.10638  12.78147
C     8.14025 -23.24218  12.22011
O    10.07809 -22.53653  13.42881
C    10.48125 -21.54104  14.30804
O    11.51507 -21.65181  14.93499
C     9.42341 -20.54512  14.26529
C     9.37941 -19.39478  15.18643
C     8.16774 -18.50415  15.26824
O    10.34732 -19.18212  15.91298
N     8.38223 -21.11883  13.56199
C     7.15679 -20.45319  13.14388
H    10.35892 -25.17963  10.22246
H    11.36060 -24.60340   8.84762
H    12.06263 -24.66859  10.50630
H     7.72752 -19.81121   9.90895
H     7.22267 -21.46285  10.30428
H     7.68397 -21.06113   8.63767
H    11.31941 -20.74742   9.08651
H     9.96692 -20.67960   7.95963
H     9.45500 -18.62628   9.93728
H     9.82844 -18.40455   8.24278
H    11.35413 -17.14067   9.72448
H    12.21730 -18.26238   8.67673
H    12.63698 -19.83178  10.49108
H    13.16592 -18.20784  10.93122
H    11.99067 -14.60402  12.54217
H    10.71688 -15.25142  13.64035
H    10.36417 -15.02925  11.89210
H    13.26342 -19.81365  15.63930
H    14.47156 -18.71319  14.88453
H    13.23805 -18.05367  16.02199
H     7.63163 -23.75548  13.05103
H     7.38951 -22.92776  11.49150
H     8.82199 -23.96037  11.75180
H     7.88613 -18.10953  14.28476
H     7.31060 -19.06249  15.67565
H     8.40536 -17.67319  15.94464
H     6.57318 -21.14497  12.52984
H     7.39376 -19.55545  12.55499
H     6.55582 -20.17997  14.01623
