48
Generated by autodE on: 2022-06-03. E = -1165.532334 Ha
C    -0.65878  -4.36741  -0.79375
N    -0.53925  -2.94003  -1.02054
C     0.47565  -2.22395  -0.51372
O     1.43906  -2.77059   0.05900
C     0.41042  -0.74848  -0.70085
C    -0.67296   0.03347  -0.52857
C    -1.97737  -0.38684   0.02456
C    -3.17726  -0.23044  -0.69080
C    -4.38626  -0.67217  -0.14650
C    -4.41531  -1.26831   1.11750
C    -3.22598  -1.42756   1.83675
C    -2.01662  -0.99162   1.29480
C    -0.30116   1.48078  -0.84148
C    -1.32399   2.26723  -1.65772
C    -0.01571   2.19810   0.49461
O    -0.01549   1.66778   1.58810
O     0.30810   3.47774   0.30339
C     0.78203   4.20351   1.44851
N     0.96119   1.31079  -1.59376
C     1.61741   0.08734  -1.11289
C     2.47497  -0.55209  -2.20897
C     2.54534   0.44083   0.09244
O     2.96998   1.60016   0.21504
N     2.86866  -0.54682   0.92904
C     3.73026  -0.32046   2.07237
H    -1.49453  -4.75199  -1.39052
H     0.26333  -4.88598  -1.09375
H    -0.84680  -4.59077   0.26966
H    -1.32214  -2.44334  -1.43310
H    -3.16373   0.21073  -1.68748
H    -5.31003  -0.55363  -0.71755
H    -5.36257  -1.61053   1.54074
H    -3.24039  -1.89244   2.82532
H    -1.08664  -1.10809   1.85446
H    -0.90221   3.24517  -1.92834
H    -2.24928   2.43652  -1.08873
H    -1.56084   1.72016  -2.58076
H     0.99147   5.22018   1.09688
H     1.69976   3.73476   1.83202
H     0.01757   4.22232   2.23795
H     1.58423   2.10377  -1.43458
H     1.85227  -0.76549  -3.09006
H     2.92976  -1.48849  -1.85683
H     3.28106   0.13684  -2.50359
H     2.45992  -1.47541   0.75439
H     4.71778   0.05716   1.76279
H     3.86742  -1.26781   2.60851
H     3.28963   0.41633   2.76367
