21
Generated by autodE on: 2022-06-03. E = -516.660465 Ha
C     3.46773   1.36188  -0.18467
N     3.63645  -0.07703  -0.22521
C     2.67366  -1.02143  -0.18958
O     2.92257  -2.23491  -0.23593
C     1.29960  -0.55620  -0.09221
C     0.12252  -0.25328  -0.01266
C    -1.25295   0.11524   0.08099
C    -2.25375  -0.87721   0.14417
C    -3.59530  -0.51005   0.23543
C    -3.95494   0.84206   0.26450
C    -2.96765   1.83203   0.20201
C    -1.62304   1.47650   0.11107
H     2.40443   1.61035  -0.08340
H     4.00831   1.79478   0.67133
H     3.84749   1.82963  -1.10667
H     4.58297  -0.44469  -0.29628
H    -1.96698  -1.93006   0.12076
H    -4.36568  -1.28277   0.28431
H    -5.00761   1.12507   0.33604
H    -3.24807   2.88736   0.22474
H    -0.84816   2.24380   0.06210
