27
Generated by autodE on: 2022-07-26. E = -648.765255 Ha
C     3.32431  -1.06409   1.38489
N     2.31350  -1.43525   0.41587
C     1.52114  -0.50731  -0.16460
O     1.63001   0.69939   0.10394
C     0.60692  -1.01262  -1.21522
C     0.98753  -2.18515  -2.06571
N    -0.49384  -0.34243  -1.54266
C    -1.26674   0.57351  -0.89583
C    -2.19588   1.39526  -1.73833
C    -1.29498   0.61190   0.53522
O    -0.74516  -0.16863   1.31731
O    -2.09449   1.61987   0.99561
C    -2.27934   1.68407   2.40778
H     3.82061  -1.97248   1.74738
H     2.87729  -0.53691   2.24295
H     4.08335  -0.39944   0.94132
H     2.18731  -2.41509   0.18854
H     2.05502  -2.16353  -2.33374
H     0.80015  -3.14272  -1.54539
H     0.39137  -2.20169  -2.99176
H    -0.85183  -0.57764  -2.47461
H    -1.82013   2.42221  -1.90011
H    -2.31479   0.93873  -2.73487
H    -3.19136   1.48386  -1.27953
H    -2.91492   2.55902   2.59390
H    -1.31695   1.80452   2.92840
H    -2.77629   0.77748   2.78707
