48
Generated by autodE on: 2022-06-03. E = -1165.428233 Ha. Imaginary frequency = -232.4 cm-1
C     0.74279  -4.82005  -1.56469
N     0.20596  -3.49537  -1.31908
C     0.81576  -2.62405  -0.49532
O     1.87182  -2.91598   0.09979
C     0.16763  -1.32255  -0.36624
C    -0.87866  -0.72968  -0.03646
C    -2.14476  -0.32831   0.47009
C    -3.26694  -0.21924  -0.38343
C    -4.49928   0.19056   0.12452
C    -4.63898   0.50682   1.48072
C    -3.53317   0.40127   2.33295
C    -2.29837  -0.01439   1.83992
C    -0.19173   1.63251  -0.96414
C    -1.32891   2.24806  -1.72053
C    -0.02026   1.94772   0.44578
O     0.86039   1.57145   1.21204
O    -1.03511   2.73958   0.87472
C    -1.00175   3.14221   2.24526
N     0.72568   0.95577  -1.69870
C     1.70163   0.09379  -1.34918
C     2.30169  -0.70930  -2.47428
C     2.71212   0.51149  -0.29951
O     3.19144   1.65258  -0.35208
N     3.15868  -0.43950   0.52777
C     4.18373  -0.15038   1.50800
H     1.78281  -4.76158  -1.92090
H     0.13202  -5.31095  -2.33191
H     0.73037  -5.43805  -0.65249
H    -0.66895  -3.21834  -1.75131
H    -3.15717  -0.45972  -1.44231
H    -5.35828   0.26746  -0.54633
H    -5.60529   0.83276   1.87192
H    -3.63372   0.64560   3.39313
H    -1.43542  -0.09422   2.50269
H    -1.25214   3.34729  -1.76271
H    -1.36287   1.86413  -2.75115
H    -2.28918   2.01167  -1.23671
H    -1.94176   3.67721   2.42638
H    -0.14729   3.81159   2.42895
H    -0.92989   2.27549   2.91558
H     0.40861   0.82497  -2.65981
H     3.09884  -0.13724  -2.98100
H     2.76119  -1.62547  -2.07995
H     1.53838  -0.98914  -3.21481
H     2.71297  -1.36611   0.50519
H     4.44021  -1.07570   2.03949
H     3.83638   0.59395   2.24437
H     5.09386   0.24840   1.03230
