33
Generated by autodE on: 2022-06-17. E = -766.085116 Ha
N     1.50885   2.07008  -3.02963
C     1.26153   1.27677  -2.21989
C     0.91930   0.26217  -1.20833
C     2.10745   0.05854  -0.25616
C     1.89583  -0.21776   1.09998
C     2.98040  -0.48054   1.94348
C     4.28416  -0.46781   1.44223
C     4.49979  -0.19119   0.08809
C     3.41817   0.07010  -0.75517
C     0.49598  -1.08041  -1.89098
C    -0.65330  -1.54739  -0.99552
C    -1.10058  -0.25080  -0.35672
C    -2.35944  -0.12247   0.40129
C    -2.72725   1.11027   0.97441
C    -3.91336   1.22926   1.69461
C    -4.75131   0.11852   1.85830
C    -4.39450  -1.11041   1.29721
C    -3.20697  -1.23141   0.57171
N    -0.27565   0.72998  -0.48083
H     0.88411  -0.22617   1.50562
H     2.80074  -0.69363   2.99987
H     5.12995  -0.67067   2.10326
H     5.51508  -0.17674  -0.31504
H     3.59735   0.28309  -1.81164
H     0.12702  -0.87377  -2.90528
H     1.33340  -1.78460  -1.96003
H    -0.32065  -2.23824  -0.20251
H    -1.45709  -2.04894  -1.55116
H    -2.06936   1.97033   0.84621
H    -4.18864   2.19127   2.13301
H    -5.68105   0.21301   2.42427
H    -5.04314  -1.98014   1.42331
H    -2.94002  -2.19683   0.13963
