33
Generated by autodE on: 2022-06-17. E = -765.984053 Ha. Imaginary frequency = -327.0 cm-1
N     1.04275   1.77767  -3.35614
C     0.99099   1.26429  -2.30814
C     0.94219   0.61499  -1.04503
C     2.17347   0.32745  -0.29314
C     2.10659  -0.19833   1.01211
C     3.27397  -0.51791   1.70569
C     4.52820  -0.31848   1.11770
C     4.60168   0.20889  -0.17628
C     3.43916   0.53316  -0.87605
C     0.44824  -1.76479  -1.99739
C    -0.71839  -2.04362  -1.34498
C    -1.19454  -0.14972  -0.16456
C    -2.39931  -0.07053   0.62540
C    -2.66831   1.08573   1.39055
C    -3.82787   1.15394   2.15695
C    -4.72541   0.07817   2.16830
C    -4.46363  -1.06913   1.41266
C    -3.30405  -1.14835   0.64247
N    -0.24735   0.55337  -0.44357
H     1.13550  -0.35568   1.48499
H     3.20239  -0.92452   2.71746
H     5.44013  -0.56854   1.66438
H     5.57423   0.37241  -0.64691
H     3.51136   0.94239  -1.88617
H     0.44985  -1.36985  -3.01626
H     1.41647  -2.04501  -1.57791
H    -0.71591  -2.63194  -0.42311
H    -1.67872  -1.96447  -1.86243
H    -1.96118   1.91689   1.37270
H    -4.03636   2.04784   2.74864
H    -5.63435   0.13609   2.77149
H    -5.16535  -1.90550   1.42476
H    -3.09386  -2.04093   0.05323
