31
Generated by autodE on: 2022-10-21. E = -3353.839550 Ha. Imaginary frequency = -376.1 cm-1
C     0.46536   4.30279  -0.05655
N     0.71072   2.94917   0.39728
C     1.41260   2.06948  -0.35311
O     1.94204   2.43113  -1.43000
C     1.49923   0.68632   0.12812
C     2.34577  -0.37756  -0.45727
O     2.27940  -1.54603  -0.03680
N     3.18011  -0.00444  -1.45692
C     3.81034  -0.98528  -2.31331
N     0.94443   0.36803   1.30609
C     0.04995  -0.12323   1.91986
C    -0.43886  -0.50755   3.23936
C    -1.40140  -0.57191   0.21246
Br   -2.74377  -1.59123   0.98885
C    -1.01164  -0.14175  -0.88452
O    -0.91097   0.32901  -2.08471
C     0.14239  -0.17839  -2.94302
H     1.40885   4.81492  -0.29867
H    -0.17165   4.32628  -0.95706
H    -0.03947   4.85748   0.74399
H     0.23387   2.62345   1.22993
H     3.03380   0.94833  -1.79883
H     4.60299  -0.50073  -2.89880
H     4.25884  -1.78876  -1.71296
H     3.09179  -1.44630  -3.01604
H     0.24158  -0.14176   4.02306
H    -1.44994  -0.10629   3.39869
H    -0.50183  -1.60534   3.29143
H    -0.23145  -0.08101  -3.96915
H     1.03345   0.44171  -2.80279
H     0.35107  -1.22971  -2.70500
