35
Generated by autodE on: 2022-07-27. E = -932.868055 Ha
C     0.40351   0.44947  -3.56027
N    -0.10458   0.58845  -2.20801
C    -0.21020  -0.47981  -1.39970
O    -0.08150  -1.64036  -1.78990
C    -0.64907  -0.21749   0.03060
C    -1.57956  -1.20364   0.59339
C    -2.65784  -1.67101  -0.18401
C    -3.54021  -2.61574   0.33574
C    -3.34585  -3.12546   1.62436
C    -2.26397  -2.68483   2.39374
C    -1.38706  -1.72750   1.88652
N    -0.23099   0.82802   0.72176
C    -0.95147   1.29537   1.92463
C     0.94305   1.53590   0.39966
C     1.00525   2.91447   0.66590
N     1.06466   4.06515   0.87334
C     2.11377   0.82335  -0.05152
O     2.19476  -0.38938  -0.22564
O     3.15897   1.65533  -0.25671
C     4.38396   1.04983  -0.68050
H     0.31840   1.41548  -4.07212
H    -0.17625  -0.30208  -4.11467
H     1.46101   0.13586  -3.55818
H    -0.11272   1.51715  -1.79634
H    -2.81348  -1.27735  -1.18983
H    -4.38246  -2.95904  -0.26869
H    -4.03413  -3.87242   2.02626
H    -2.09835  -3.09293   3.39306
H    -0.53395  -1.40405   2.48427
H    -0.38833   1.02441   2.82650
H    -1.02416   2.38839   1.86253
H    -1.95760   0.87046   1.94963
H     4.76016   0.34977   0.08017
H     4.24508   0.51243  -1.63049
H     5.09598   1.87280  -0.81546
