35
Generated by autodE on: 2022-06-27. E = -932.869565 Ha
C    -2.38328   2.75988   0.74155
N    -1.90354   1.45730   0.32483
C    -0.77620   0.93836   0.83295
O    -0.13066   1.47948   1.73395
C    -0.38909  -0.41985   0.28709
C    -1.45693  -1.36420  -0.07677
C    -1.42233  -2.03759  -1.31376
C    -2.45763  -2.89930  -1.67245
C    -3.53409  -3.10581  -0.80314
C    -3.57768  -2.43793   0.42542
C    -2.55252  -1.56445   0.78555
N     0.88625  -0.76377   0.22405
C     1.28589  -2.18520   0.16002
C     1.93175   0.16692   0.16514
C     3.18987  -0.18354   0.68552
N     4.24250  -0.45741   1.11869
C     1.77075   1.40474  -0.55949
O     0.76841   1.75497  -1.17558
O     2.89266   2.15851  -0.51982
C     2.86815   3.37954  -1.26429
H    -3.31051   2.98563   0.20172
H    -1.63798   3.54106   0.52007
H    -2.58532   2.77760   1.82343
H    -2.37032   0.97427  -0.43602
H    -0.59211  -1.86583  -2.00071
H    -2.42648  -3.40829  -2.63822
H    -4.34288  -3.78333  -1.08591
H    -4.41554  -2.59784   1.10736
H    -2.58857  -1.04803   1.74640
H     0.45315  -2.82295   0.46488
H     2.12187  -2.33023   0.85517
H     1.61569  -2.43513  -0.85625
H     3.84048   3.85689  -1.09304
H     2.05918   4.03603  -0.91090
H     2.73134   3.18219  -2.33805
