61
Generated by autodE on: 2022-06-27. E = -1622.294063 Ha. Imaginary frequency = -286.0 cm-1
C    -1.77551   1.07939  -3.47221
N    -1.82121   1.07980  -2.02353
C    -1.25563   0.08714  -1.31286
O    -0.84357  -0.94808  -1.83054
C    -1.40913   0.31501   0.20636
C    -2.67579  -0.27924   0.70600
C    -3.35072  -1.23679  -0.08753
C    -4.49552  -1.88329   0.37312
C    -5.00560  -1.60199   1.64300
C    -4.34231  -0.67694   2.45290
C    -3.19327  -0.03350   1.99889
N    -0.97468   1.55604   0.64987
C    -1.85769   2.49129   1.38161
C     0.36804   1.94257   0.56599
C     0.75211   2.95803   1.49699
N     1.07522   3.74498   2.29163
C     1.17606   1.95728  -0.68169
O     0.95540   1.32903  -1.69751
O     2.25192   2.73930  -0.52949
C     3.21852   2.72327  -1.59150
C     1.24443  -0.02271   1.46949
C     1.47563   0.48519   2.86651
C     2.48284  -0.11213   0.64151
O     3.49326   0.53200   0.93431
C     2.50045  -0.98702  -0.53955
O     3.58881  -0.87608  -1.35992
C     4.70942  -1.68324  -0.98291
C     1.49475  -1.87505  -0.76951
O     1.39895  -2.74169  -1.77757
C     1.96592  -2.44047  -3.05879
C     0.37114  -2.00935   0.21519
O    -0.29826  -3.03616   0.21686
C     0.17174  -0.94315   1.23391
C    -0.57864  -1.44321   2.44560
H    -0.74218   1.19955  -3.83767
H    -2.38656   1.90924  -3.84806
H    -2.17359   0.13475  -3.86936
H    -2.04313   1.94864  -1.54871
H    -2.97263  -1.49931  -1.07327
H    -4.99069  -2.61457  -0.26937
H    -5.90552  -2.10624   2.00206
H    -4.71315  -0.45907   3.45675
H    -2.68889   0.64301   2.68117
H    -2.89857   2.26733   1.13466
H    -1.71381   2.44947   2.46884
H    -1.63763   3.50660   1.03041
H     4.02234   3.39535  -1.27068
H     3.60487   1.70498  -1.73244
H     2.76826   3.08675  -2.52593
H     1.79597  -0.35570   3.50642
H     2.26810   1.24036   2.88519
H     0.56523   0.90508   3.31144
H     5.50146  -1.48853  -1.71815
H     4.44343  -2.75286  -1.00506
H     5.06813  -1.41436   0.02247
H     1.45365  -3.10194  -3.76959
H     3.04552  -2.64075  -3.08223
H     1.77232  -1.39139  -3.32319
H     0.10617  -2.05175   3.06122
H    -0.94302  -0.62652   3.07587
H    -1.42322  -2.07837   2.16284
