44
Generated by autodE on: 2022-06-20. E = -1030.026471 Ha
C     2.84902   2.64146  -1.60990
O     2.28685   1.41704  -1.10310
C     2.13499   1.33005   0.20623
O     2.45896   2.18792   0.99972
C     1.43709   0.03140   0.65653
C     2.03716  -0.32671   1.97592
N     2.50351  -0.71881   2.96408
C    -0.08976   0.28055   0.83090
C    -0.68619   1.09793  -0.32503
C    -2.16561   0.84264  -0.45567
C    -3.06236   1.76490  -1.15909
N    -2.49018   2.86587  -1.71441
O    -4.29377   1.58020  -1.26409
C    -2.70526  -0.31210   0.03699
N    -2.02605  -1.27631   0.69853
C    -2.68646  -2.49397   1.13568
C    -0.59326  -1.16926   0.89152
C     0.31582  -1.97584  -0.10165
C    -0.34595  -2.21838  -1.46073
C     0.70943  -3.31730   0.53222
N     1.48375  -1.06192  -0.27954
C     2.78323  -1.63752  -0.56231
H     2.90605   2.51598  -2.69657
H     3.85048   2.80157  -1.18724
H     2.19767   3.48883  -1.35371
H    -0.28754   0.79504   1.77998
H    -0.48677   2.16319  -0.12621
H    -0.16579   0.85389  -1.26434
H    -1.49010   3.01876  -1.71687
H    -3.07899   3.50172  -2.24052
H    -3.77577  -0.49098  -0.08279
H    -2.34950  -2.76319   2.14895
H    -3.77264  -2.33481   1.15944
H    -2.47505  -3.34578   0.46731
H    -0.38200  -1.54982   1.90205
H     0.39004  -2.65436  -2.15400
H    -0.72232  -1.28633  -1.90354
H    -1.18352  -2.92587  -1.37398
H     1.26105  -3.16761   1.47232
H    -0.19319  -3.90273   0.75840
H     1.33360  -3.91623  -0.14694
H     3.23970  -2.15807   0.30185
H     3.47596  -0.84751  -0.88719
H     2.69558  -2.35746  -1.38819
