24
Generated by autodE on: 2022-06-20. E = -572.272436 Ha
C     3.30469   1.30937   0.04582
O     2.29653   0.39031   0.46462
C     1.08733   0.49129  -0.15916
O     0.86911   1.35661  -1.00923
C     0.16521  -0.50367   0.29039
C     0.54573  -1.53936   1.15492
N     0.85200  -2.41177   1.87649
N    -1.13793  -0.55330  -0.29045
C    -1.49963  -1.80035  -0.98595
C    -1.92538   0.49475  -0.32119
C    -1.64936   1.69229   0.50860
C    -3.14364   0.49982  -1.18156
H     4.19313   1.08137   0.64802
H     2.99242   2.34981   0.22344
H     3.53904   1.18445  -1.02261
H    -0.98005  -2.62962  -0.49309
H    -2.57926  -1.97635  -0.93704
H    -1.17149  -1.74633  -2.03419
H    -1.01884   1.44945   1.37491
H    -2.60423   2.13413   0.82886
H    -1.11573   2.44484  -0.09555
H    -3.47408   1.53274  -1.34907
H    -3.96259  -0.03358  -0.66685
H    -2.97527   0.00797  -2.14906
