44
Generated by autodE on: 2022-06-20. E = -1029.949638 Ha. Imaginary frequency = -482.1 cm-1
C     2.38124   2.96532  -0.63040
O     2.32204   1.68907   0.01775
C     1.56237   0.74370  -0.57866
O     0.97870   0.95340  -1.62982
C     1.49546  -0.47581   0.23442
C     2.47631  -0.55524   1.26832
N     3.28172  -0.59602   2.11213
C    -0.39966  -0.01252   1.57913
C    -0.80308   1.36832   1.13138
C    -1.59316   1.30654  -0.15535
C    -1.62133   2.49669  -1.00384
N    -2.14636   2.39334  -2.25692
O    -1.19108   3.59359  -0.58881
C    -2.30041   0.17517  -0.43953
N    -2.24226  -0.95901   0.31187
C    -3.23416  -2.00288   0.09617
C    -1.19230  -1.13408   1.25758
C     0.23273  -2.48666   0.53259
C    -0.48575  -3.63365  -0.13107
C     0.82477  -2.89930   1.86735
N     0.96743  -1.65962  -0.30096
C     0.83140  -1.80476  -1.75697
H     1.38132   3.42010  -0.68096
H     3.04663   3.58271  -0.01524
H     2.79122   2.86596  -1.64598
H     0.18981  -0.07179   2.49377
H     0.06679   2.03189   1.03535
H    -1.41220   1.82753   1.94020
H    -2.08110   3.21119  -2.85358
H    -2.23186   1.49289  -2.71234
H    -2.98778   0.12319  -1.28824
H    -4.25123  -1.59458   0.20499
H    -3.14824  -2.45320  -0.90558
H    -3.10349  -2.79251   0.84468
H    -1.44353  -1.83468   2.05659
H     0.24444  -4.40121  -0.44402
H    -1.16248  -4.10385   0.59270
H    -1.06553  -3.33559  -1.01077
H     1.10642  -2.06972   2.51984
H     0.09748  -3.52186   2.40522
H     1.72605  -3.50958   1.68533
H     0.93113  -2.86370  -2.02127
H     1.64010  -1.26069  -2.25043
H    -0.12968  -1.42583  -2.13342
