44
Generated by autodE on: 2022-12-30. E = -1108.114678 Ha
C     4.99486   0.46532  -0.39040
N     3.54810   0.44512  -0.35826
C     2.86396  -0.71459  -0.29092
O     3.44907  -1.81146  -0.27995
C     1.38102  -0.61953  -0.22425
C     0.64693   0.50119  -0.08248
O     1.12486   1.76178  -0.09763
C     0.81553   2.64604   0.99501
C    -0.84456   0.18184   0.00676
C    -1.63752   1.07706  -0.96855
O    -1.72485   2.27891  -0.82332
O    -2.17895   0.41138  -1.97761
C    -2.91869   1.18614  -2.93650
C    -1.36541   0.40579   1.45136
O    -0.69347   0.21154   2.44184
O    -2.65739   0.71026   1.47557
C    -3.28440   0.80391   2.76678
N    -0.86534  -1.22709  -0.32872
C    -2.01917  -2.00673   0.06761
C     0.48370  -1.84542  -0.24050
C     0.71342  -2.72535  -1.47744
C     0.67726  -2.67048   1.04610
H     5.42601  -0.00283   0.50969
H     5.38518  -0.07705  -1.26664
H     5.33429   1.50706  -0.44224
H     3.02090   1.31422  -0.34515
H     1.36697   3.57252   0.79368
H    -0.26006   2.86376   1.02996
H     1.15125   2.20672   1.94508
H    -3.75766   1.69898  -2.44509
H    -3.28968   0.47036  -3.67848
H    -2.26269   1.92794  -3.41361
H    -3.20966  -0.15803   3.29304
H    -4.33315   1.05504   2.57372
H    -2.80413   1.59161   3.36386
H    -2.10737  -2.16906   1.16032
H    -1.97840  -2.99377  -0.41469
H    -2.93769  -1.51046  -0.27635
H     1.70526  -3.19428  -1.44162
H    -0.04371  -3.52358  -1.52021
H     0.63686  -2.12454  -2.39592
H     1.71659  -3.01699   1.11555
H     0.44976  -2.06427   1.93385
H     0.02222  -3.55467   1.04457
