29
Generated by autodE on: 2023-01-01. E = -707.974350 Ha
C     0.12845   2.28558  -3.01606
O     0.26225   1.24304  -2.05398
C    -0.51319   1.35139  -0.92676
O    -1.24002   2.33166  -0.75780
C    -0.33994   0.23204  -0.05693
C    -1.01015   0.10690   1.19852
O    -1.76827   0.92574   1.72143
O    -0.73289  -1.08148   1.82385
C    -1.32108  -1.27348   3.10728
N     0.51595  -0.83847  -0.49546
C     0.00641  -1.69619  -1.57910
C     1.63929  -1.12165   0.10603
C     2.39508  -2.35297  -0.25925
C     2.18438  -0.24808   1.17396
H     0.80001   2.02549  -3.84421
H    -0.90590   2.35773  -3.38660
H     0.42162   3.25898  -2.59352
H    -0.98086  -2.25724   3.45484
H    -2.42037  -1.26065   3.04940
H    -0.99436  -0.49684   3.81587
H    -0.79015  -1.15681  -2.09819
H    -0.40566  -2.62082  -1.14749
H     0.80392  -1.94599  -2.28939
H     3.20296  -2.53326   0.45924
H     1.73392  -3.23155  -0.29848
H     2.84065  -2.23203  -1.26183
H     1.94326  -0.70016   2.15181
H     1.75781   0.76166   1.14425
H     3.28069  -0.21748   1.09263
