44
Generated by autodE on: 2022-12-30. E = -1108.006043 Ha. Imaginary frequency = -409.0 cm-1
C     4.66625  -0.89339  -2.05637
N     3.34862  -0.43717  -1.65502
C     2.91497  -0.56048  -0.38768
O     3.59710  -1.05606   0.51464
C     1.53079  -0.07274  -0.15861
C     1.06312   1.08916  -0.03775
O     0.78000   2.32333  -0.02131
C     0.42763   2.93601   1.26201
C    -1.48017   0.04152   0.13458
C    -1.66109   1.10788  -0.82147
O    -2.23291   2.17994  -0.61974
O    -1.08819   0.85453  -2.03301
C    -1.14902   1.90364  -2.99577
C    -2.16347   0.11967   1.40966
O    -2.53479   1.13494   1.99858
O    -2.39946  -1.10896   1.94596
C    -2.91267  -1.13266   3.27630
N    -0.87683  -1.18096  -0.25011
C    -1.29954  -1.83675  -1.48985
C     0.31919  -1.53493   0.32753
C     0.95641  -2.79879  -0.20275
C     0.49294  -1.38227   1.82722
H     5.45885  -0.35839  -1.50985
H     4.78879  -1.97113  -1.86500
H     4.79062  -0.70828  -3.13003
H     2.72834  -0.02010  -2.34098
H     0.31081   4.00317   1.04935
H    -0.51495   2.49216   1.60534
H     1.24159   2.75783   1.97657
H    -2.18977   2.16444  -3.24043
H    -0.64199   1.52316  -3.89144
H    -0.63154   2.80347  -2.62948
H    -2.23875  -0.60577   3.96938
H    -2.98226  -2.19084   3.55795
H    -3.90920  -0.66869   3.32738
H    -1.40272  -2.91941  -1.32687
H    -0.59614  -1.66921  -2.31894
H    -2.27875  -1.44107  -1.77655
H     1.92056  -2.96692   0.28865
H     0.30182  -3.65324   0.03431
H     1.11119  -2.77209  -1.28790
H     1.55486  -1.48888   2.08058
H     0.14141  -0.41623   2.20431
H    -0.07195  -2.18681   2.32475
