57
Generated by autodE on: 2022-06-25. E = -1321.378462 Ha
C     3.02567  -3.86712   1.85719
O     2.59352  -2.50616   2.00549
C     2.11885  -1.90264   0.91259
O     2.04216  -2.45852  -0.16700
C     1.60700  -0.49398   1.23205
N     0.16533  -0.46169   1.37800
C    -0.45651  -1.37612   2.30334
C    -0.55302   0.01037   0.18426
C    -1.34345   1.29120   0.49826
C    -2.12415   1.90628  -0.49515
C    -2.80618   3.09633  -0.23928
C    -2.73854   3.68986   1.02643
C    -1.99141   3.07118   2.03085
C    -1.30125   1.88313   1.76526
C    -1.50326  -1.08564  -0.35587
C    -2.86814  -1.07564  -0.02212
C    -3.72630  -2.10149  -0.42746
C    -3.23726  -3.17436  -1.17631
C    -1.87751  -3.21312  -1.49585
C    -1.02270  -2.18654  -1.08458
C     0.64717   0.31197  -0.81275
N     0.46052   1.36770  -1.76894
C    -0.10662   1.02973  -3.05829
C     0.83622   2.65670  -1.44539
C     1.51957   2.98630  -0.33015
C     1.93100   1.95864   0.68224
C     1.87795   0.51626   0.10833
C     3.22248   0.23798  -0.56038
N     3.34437   0.57719  -1.85190
O     4.15822  -0.23699   0.09639
H     3.85436  -3.92763   1.13696
H     3.36078  -4.18931   2.84974
H     2.19417  -4.49805   1.51159
H     2.09553  -0.18668   2.17015
H    -1.47877  -1.04438   2.53716
H    -0.52014  -2.42070   1.93499
H     0.11524  -1.38595   3.24466
H    -2.21393   1.44567  -1.47840
H    -3.39793   3.56122  -1.03181
H    -3.27257   4.62161   1.22838
H    -1.94046   3.51363   3.02893
H    -0.71227   1.40770   2.54894
H    -3.27455  -0.25532   0.56898
H    -4.78319  -2.05881  -0.15276
H    -3.90574  -3.97591  -1.49950
H    -1.47163  -4.05179  -2.06701
H     0.03630  -2.27292  -1.31914
H     0.82669  -0.60619  -1.37839
H    -1.03149   0.44072  -2.94864
H    -0.35024   1.94971  -3.60697
H     0.59495   0.43524  -3.67311
H     0.55664   3.41110  -2.18516
H     1.77391   4.03346  -0.15722
H     1.28451   1.99909   1.57367
H     2.95275   2.15225   1.04862
H     4.24137   0.45791  -2.31265
H     2.57197   0.99348  -2.36099
