20
Generated by autodE on: 2022-06-25. E = -457.715331 Ha
C    -2.97508  -0.92495   0.62774
N    -1.80695  -0.14256   0.25811
C    -1.92913   1.24324   0.09590
C    -0.88000   2.03711  -0.17064
C     0.52889   1.51879  -0.32180
C     0.56861   0.01602  -0.09563
C     1.83341  -0.73361  -0.16120
N     2.94391  -0.00473  -0.43794
O     1.91453  -1.96529   0.02279
C    -0.56380  -0.69361   0.17288
H    -3.79751  -0.75377  -0.08412
H    -2.71792  -1.99139   0.61267
H    -3.33206  -0.66363   1.63829
H    -2.94450   1.62969   0.20104
H    -1.05609   3.10882  -0.28820
H     0.92445   1.77929  -1.32527
H     1.20439   2.04323   0.38465
H     2.91713   0.99432  -0.59608
H     3.83739  -0.48138  -0.49167
H    -0.50651  -1.77178   0.33117
