37
Generated by autodE on: 2022-07-27. E = -863.620195 Ha
C     4.99437  -0.17317   2.31153
O     3.79759   0.26221   1.67837
C     2.94263  -0.73103   1.24140
O     3.24251  -1.92127   1.41060
C     1.80414  -0.13813   0.64121
N     0.75138  -0.80000   0.04635
C     0.93156  -2.23566  -0.25749
C    -0.40157  -0.19373  -0.25963
C    -0.74376   1.11990   0.32826
C    -1.24469   2.14660  -0.49232
C    -1.64371   3.36746   0.05742
C    -1.56472   3.57541   1.43651
C    -1.07999   2.55439   2.26516
C    -0.66625   1.34211   1.71840
C    -1.34465  -0.76047  -1.24171
C    -2.72780  -0.73514  -0.97013
C    -3.64547  -1.21943  -1.90140
C    -3.20344  -1.72361  -3.12986
C    -1.83524  -1.73589  -3.41998
C    -0.91321  -1.25783  -2.48825
H     5.54379   0.73619   2.58839
H     4.78139  -0.76360   3.21708
H     5.61212  -0.78334   1.63327
H     1.72735   0.94366   0.67406
H    -0.02479  -2.67760  -0.54123
H     1.66556  -2.35741  -1.06415
H     1.32065  -2.72216   0.64046
H    -1.31848   1.98362  -1.56917
H    -2.02095   4.15738  -0.59623
H    -1.88207   4.52743   1.86824
H    -1.02799   2.70539   3.34596
H    -0.28689   0.55416   2.37181
H    -3.07806  -0.34036  -0.01458
H    -4.71255  -1.20369  -1.66764
H    -3.92329  -2.09856  -3.86101
H    -1.48258  -2.11114  -4.38353
H     0.14926  -1.25091  -2.73684
