57
Generated by autodE on: 2022-06-25. E = -1321.314971 Ha. Imaginary frequency = -358.1 cm-1
C     4.41122  -0.87703   2.86344
O     3.14699  -0.36811   2.42285
C     2.31576  -1.25130   1.83075
O     2.58507  -2.43839   1.74368
C     1.15825  -0.54640   1.25860
N    -0.01145  -1.19139   0.94796
C    -0.13206  -2.65250   1.05908
C    -0.97969  -0.42447   0.27568
C    -1.44750   0.81794   0.94126
C    -2.21315   1.76329   0.22765
C    -2.63260   2.95623   0.81944
C    -2.31186   3.23936   2.14922
C    -1.59597   2.29111   2.88983
C    -1.17497   1.10170   2.29677
C    -1.98151  -1.18264  -0.53505
C    -3.36540  -1.06032  -0.30279
C    -4.29312  -1.77152  -1.06720
C    -3.86183  -2.63139  -2.08141
C    -2.48998  -2.77846  -2.31454
C    -1.56390  -2.06588  -1.55312
C     0.46067   0.46654  -1.25776
N     0.01685   1.75137  -1.54348
C    -0.89429   1.95600  -2.65201
C     0.58669   2.83756  -0.89264
C     1.74306   2.74071  -0.21450
C     2.56600   1.47960  -0.24287
C     1.73742   0.25507  -0.62799
C     2.44974  -0.96895  -1.07318
N     3.79007  -1.01094  -0.86128
O     1.86773  -1.92545  -1.61634
H     4.95637  -0.01878   3.27322
H     4.27158  -1.64268   3.64034
H     4.96666  -1.31232   2.02006
H     1.06511   0.47443   1.61500
H    -1.19065  -2.91998   0.99264
H     0.42703  -3.18853   0.28310
H     0.24035  -2.96882   2.03968
H    -2.51268   1.55028  -0.79487
H    -3.21730   3.66866   0.23193
H    -2.63246   4.17625   2.61079
H    -1.36931   2.47503   3.94310
H    -0.63762   0.37369   2.90539
H    -3.72260  -0.40687   0.49365
H    -5.36041  -1.65755  -0.86156
H    -4.58720  -3.18611  -2.68130
H    -2.13678  -3.45157  -3.09974
H    -0.49835  -2.19497  -1.74381
H     0.14744  -0.27376  -1.98805
H    -1.61885   1.13127  -2.70772
H    -0.36098   2.00851  -3.61975
H    -1.44702   2.89598  -2.51369
H     0.01901   3.76897  -0.95997
H     2.12962   3.61311   0.31563
H     3.06004   1.32171   0.72994
H     3.39665   1.60252  -0.96744
H     4.25528  -1.90211  -1.00160
H     4.25436  -0.33347  -0.26781
