27
Generated by autodE on: 2022-10-26. E = -798.096558 Ha
C    -3.53149   2.05814  -1.27729
N    -2.67433   1.30748  -0.38454
C    -1.43221   0.91424  -0.70848
O    -0.90415   1.15881  -1.81448
C    -0.63768   0.15089   0.28924
N     0.58175  -0.15709  -0.20956
C     1.63540  -0.79878   0.24346
C     2.81340  -0.94201  -0.60558
O     3.82622  -1.52510  -0.25421
O     2.66454  -0.36644  -1.81153
C     3.77037  -0.45959  -2.71811
C    -0.98842  -0.27274   1.62995
O    -0.24620  -0.90747   2.37094
O    -2.23015   0.09555   2.01068
C    -2.64641  -0.29168   3.32642
H    -3.80101   3.03178  -0.83780
H    -4.46198   1.50642  -1.48560
H    -3.00561   2.23193  -2.22278
H    -3.01287   1.06006   0.54118
H     0.64828   0.22510  -1.17503
H     1.63538  -1.22294   1.24232
H     4.66321   0.01599  -2.28667
H     3.46182   0.06924  -3.62715
H     3.99170  -1.51213  -2.94789
H    -1.98507   0.14928   4.08609
H    -2.63950  -1.38651   3.42721
H    -3.66617   0.09283   3.44281
