27
Generated by autodE on: 2022-10-24. E = -664.630121 Ha
C    -1.31441   2.92996  -0.59749
O    -0.95025   2.22725  -1.77202
C    -0.47526   0.89271  -1.60560
C     0.20919   0.53598  -2.92580
C     0.45765   0.72672  -0.47926
C     1.03860   0.23197   0.46381
C     1.14617  -0.75069   1.54244
F     2.44660  -1.08028   1.82630
F     0.64653  -0.20960   2.70705
C     0.36176  -2.00458   1.17532
C    -1.07758  -1.75978   0.68346
C    -1.29870  -1.50573  -0.83496
C    -1.65657  -0.07635  -1.29167
H    -0.44408   3.10400   0.06045
H    -2.09312   2.40937  -0.01354
H    -1.71263   3.90239  -0.92001
H     0.55803  -0.50558  -2.92184
H     1.06859   1.19931  -3.09947
H    -0.51402   0.66779  -3.74434
H     0.35690  -2.62833   2.08357
H     0.94664  -2.53886   0.41074
H    -1.52927  -0.94628   1.27569
H    -1.64434  -2.66393   0.95069
H    -2.14228  -2.14047  -1.14596
H    -0.43172  -1.87938  -1.40484
H    -2.25580  -0.12318  -2.21495
H    -2.29000   0.39378  -0.52397
