54
Generated by autodE on: 2022-10-24. E = -1462.723388 Ha. Imaginary frequency = -204.3 cm-1
C     0.40584   0.02271   5.19846
N     1.24441  -0.77982   6.06601
C     2.53890  -0.97354   5.77464
O     3.02071  -0.70534   4.65853
C     3.44713  -1.56063   6.81061
C     3.09874  -2.02374   8.15899
O     3.82255  -2.71631   8.86043
O     1.88557  -1.62308   8.56990
C     1.47801  -2.01152   9.88876
N     4.61138  -1.95825   6.25418
C     5.76353  -2.25048   6.84702
C     6.95247  -2.47160   6.00742
O     7.93530  -3.08254   6.38192
O     6.83292  -1.91610   4.79337
C     7.93740  -2.08089   3.89362
C     5.89918  -0.09334   7.78536
C     4.75094   0.36753   7.85081
C     3.83506   1.39889   8.39655
C     4.35398   2.78064   7.96380
O     2.53637   1.18670   7.83568
C     1.42990   1.82519   8.43726
C     3.83353   1.24850   9.94240
C     5.20797   1.14022  10.63312
C     5.84880  -0.27315  10.63974
C     7.17513  -0.46442   9.88855
C     7.20349   0.04089   8.44932
F     7.55755   1.38632   8.44363
F     8.22668  -0.57228   7.76369
H     0.76742   1.06359   5.13763
H    -0.61620   0.02575   5.59673
H     0.38704  -0.39048   4.17976
H     0.97995  -0.88013   7.04152
H     2.17917  -1.61917  10.63824
H     1.42835  -3.10656   9.96893
H     0.48433  -1.57289  10.03318
H     4.65994  -1.65330   5.26915
H     5.76557  -2.66705   7.84768
H     8.84395  -1.62593   4.31834
H     7.65300  -1.56793   2.96791
H     8.11911  -3.14768   3.69834
H     5.38764   2.93673   8.29915
H     3.72349   3.57444   8.39228
H     4.32761   2.85700   6.86714
H     0.57546   1.66700   7.76301
H     1.57660   2.91296   8.55760
H     1.17641   1.39217   9.42028
H     3.30135   2.12190  10.34958
H     3.23153   0.36152  10.19298
H     5.90242   1.87982  10.20671
H     5.05783   1.45396  11.67717
H     5.12286  -1.00196  10.25174
H     6.04054  -0.57502  11.68107
H     7.41259  -1.53840   9.85050
H     8.00973   0.03831  10.40366
