35
Generated by autodE on: 2022-06-09. E = -824.513682 Ha
C    -5.05688  -0.36234  -1.37613
O    -3.78813  -0.79210  -0.86910
C    -2.84509   0.15414  -0.73866
O    -3.05024   1.32112  -1.03112
C    -1.59222  -0.40179  -0.17421
C    -1.61119  -1.75882   0.42243
N    -0.46568   0.32164  -0.20325
C    -0.31845   1.47956  -1.11355
C     0.60591   0.03693   0.63897
C     0.34184  -0.23854   2.02876
C     1.49111  -0.63812   2.93648
O    -0.79721  -0.14323   2.53415
C     1.96278   0.12289   0.06051
C     3.00626   0.83966   0.67780
C     4.27894   0.88692   0.10613
C     4.53583   0.23413  -1.10419
C     3.50560  -0.46799  -1.73890
C     2.23660  -0.52612  -1.16179
H    -5.69027  -1.25661  -1.39980
H    -4.94786   0.05331  -2.38864
H    -5.49833   0.39927  -0.71688
H    -1.92279  -1.72779   1.48184
H    -0.59346  -2.18104   0.41264
H    -2.30240  -2.40574  -0.13012
H    -0.82007   2.34850  -0.67229
H    -0.75510   1.25906  -2.09277
H     0.74602   1.69779  -1.22209
H     1.88995   0.24487   3.46168
H     2.32030  -1.12476   2.40786
H     1.08828  -1.31971   3.69983
H     2.81238   1.38121   1.60470
H     5.07270   1.44999   0.60315
H     5.53132   0.27646  -1.55225
H     3.69379  -0.98128  -2.68513
H     1.44100  -1.08670  -1.65836
