14
Generated by autodE on: 2022-06-20. E = -270.683227 Ha
C    -1.16653  -1.86642  -0.82258
C    -0.54439  -0.64744  -0.21814
C    -1.38061   0.09468   0.78474
C     0.71122  -0.26490  -0.57909
C     1.43153   0.89176  -0.06818
O     1.03511   1.69104   0.77702
H    -2.10772  -1.59404  -1.33192
H    -0.50317  -2.37188  -1.53786
H    -1.44874  -2.57702  -0.02576
H    -2.37907  -0.35466   0.87907
H    -0.89673   0.08957   1.77509
H    -1.48682   1.15469   0.50712
H     1.25191  -0.86113  -1.31994
H     2.44545   1.02939  -0.51653
