27
Generated by autodE on: 2022-07-27. E = -815.104498 Ha
C     1.98358  -2.11174   2.34146
N     1.72105  -1.34411   1.13972
C     0.70714  -0.47220   1.08151
O    -0.06477  -0.25489   2.02093
C     0.56351   0.32662  -0.17956
N    -0.62224   0.68617  -0.64170
C    -1.87628   0.20704  -0.43280
C    -2.93793   1.03765  -0.86631
N    -3.82573   1.71316  -1.20895
C    -2.13895  -1.16910  -0.00811
C    -3.58148  -1.56101   0.17338
O    -1.22024  -1.97441   0.13573
C     1.66601   1.07376  -0.83286
O     1.46182   1.87978  -1.72640
O     2.86487   0.77646  -0.34836
C     3.98984   1.45591  -0.93202
H     2.30485  -1.46440   3.17397
H     1.07745  -2.64972   2.65788
H     2.77661  -2.83913   2.13132
H     2.37369  -1.38855   0.36413
H    -0.54622   1.47151  -1.30800
H    -4.06525  -0.90686   0.91632
H    -3.63256  -2.60514   0.50635
H    -4.13745  -1.44975  -0.77117
H     4.87322   1.06875  -0.41276
H     3.89772   2.54026  -0.77831
H     4.04862   1.23732  -2.00757
