27
Generated by autodE on: 2022-06-20. E = -815.113889 Ha
C    -3.39987  -3.02269   0.18474
N    -2.69753  -1.76217   0.05218
C    -1.36944  -1.68680   0.18214
O    -0.64412  -2.66468   0.43047
C    -0.72869  -0.34283   0.01262
N     0.59058  -0.42314   0.07891
C     1.68469   0.33924  -0.07573
C     1.71021   1.67575  -0.53453
N     1.86512   2.75581  -0.94653
C     2.94675  -0.39440   0.17028
C     4.23890   0.34541  -0.00067
O     2.89050  -1.57707   0.50274
C    -1.49253   0.90819  -0.11160
O    -2.66494   0.96018  -0.45365
O    -0.77865   1.96791   0.24234
C    -1.38045   3.26274   0.09472
H    -3.10507  -3.73181  -0.60580
H    -4.47756  -2.83592   0.10923
H    -3.18564  -3.49196   1.15715
H    -3.19519  -0.90902  -0.19907
H     0.87401  -1.40919   0.29916
H     4.25724   1.23585   0.64797
H     4.33636   0.70116  -1.03908
H     5.07843  -0.31574   0.24619
H    -1.67928   3.42456  -0.95048
H    -2.25847   3.34824   0.75010
H    -0.60984   3.98410   0.38695
