41
Generated by autodE on: 2022-06-18. E = -845.172325 Ha
C    -3.66828   1.93653   2.17152
C    -2.94795   1.38442   1.17420
C    -3.38469   1.47553  -0.26423
C    -1.69377   0.68707   1.47911
C    -0.89999   0.09054   0.57365
C     0.39973  -0.58032   0.90956
C     1.64010   0.03048   0.13890
C     2.72985   0.50333   1.10997
C     1.20479   1.21739  -0.73226
O     1.12724   1.18162  -1.94474
O     0.91979   2.30347  -0.01587
C     0.38831   3.43126  -0.72661
N     2.13809  -1.05846  -0.71532
C     1.11956  -2.09138  -0.84544
C     0.16475  -1.84629  -1.94896
N    -0.55553  -1.65571  -2.83987
C     0.43705  -2.10833   0.54931
C    -0.93571  -2.77993   0.55014
C     1.35592  -2.85499   1.52726
H    -4.60348   2.46816   1.97431
H    -3.33750   1.86909   3.21254
H    -2.62519   1.99582  -0.87204
H    -4.33627   2.01717  -0.35912
H    -3.50890   0.47368  -0.70762
H    -1.39328   0.67490   2.53353
H    -1.19080   0.09872  -0.48096
H     0.56871  -0.46690   1.98843
H     2.35332   1.30005   1.76543
H     3.05802  -0.34025   1.73218
H     3.60005   0.88841   0.55573
H     1.11152   3.79551  -1.46981
H    -0.54910   3.15347  -1.23040
H     0.19836   4.20197   0.02896
H     2.44653  -0.70412  -1.61849
H     1.57659  -3.07054  -1.06268
H    -1.37741  -2.73070   1.55682
H    -1.64136  -2.30849  -0.14715
H    -0.83778  -3.84126   0.27213
H     2.37512  -2.44718   1.52568
H     1.41333  -3.92174   1.26054
H     0.95547  -2.77872   2.54951
