23
Generated by autodE on: 2022-06-18. E = -351.521384 Ha
C    -3.66689   0.90463  -0.18634
C    -2.58141   0.14010   0.06473
C    -2.71755  -1.25733   0.61314
C    -1.24271   0.66458  -0.19761
C    -0.07822  -0.00057   0.00842
C     1.22516   0.56633  -0.27174
C     2.43072  -0.03239  -0.09896
C     2.61869  -1.42668   0.42817
C     3.70356   0.68974  -0.43993
H    -3.56466   1.91881  -0.58473
H    -4.67986   0.53720   0.00006
H    -3.77288  -1.52444   0.76471
H    -2.19239  -1.35894   1.57742
H    -2.26739  -1.99750  -0.06915
H    -1.19801   1.68556  -0.59551
H    -0.11451  -1.01888   0.40470
H     1.22137   1.58972  -0.66611
H     3.16512  -2.04235  -0.30810
H     1.67857  -1.93860   0.67079
H     3.24570  -1.41008   1.33717
H     3.51722   1.70555  -0.81833
H     4.27730   0.13268  -1.20245
H     4.36221   0.76124   0.44430
