18
Generated by autodE on: 2022-06-18. E = -493.604438 Ha
C     3.73465  -0.34140  -0.14483
O     2.44285  -0.76514   0.30499
C     1.39489  -0.04127  -0.11477
O     1.50611   0.93969  -0.84677
C     0.11843  -0.53601   0.38363
C    -0.08056  -1.71032   1.26921
N    -0.92640   0.17702  -0.03188
C    -2.23079   0.00560   0.23170
C    -3.17981   0.87936  -0.31451
N    -3.99102   1.59743  -0.76008
H     4.45319  -1.04318   0.29443
H     3.79416  -0.37696  -1.24265
H     3.94811   0.68215   0.19685
H    -0.73451  -2.45960   0.78692
H     0.87634  -2.18392   1.51238
H    -0.57841  -1.41361   2.21037
H    -0.66397   0.96484  -0.63991
H    -2.54587  -0.81674   0.87175
