41
Generated by autodE on: 2022-06-18. E = -845.104909 Ha. Imaginary frequency = -352.6 cm-1
C    -3.02036   2.83566   1.76713
C    -2.71723   1.73353   1.04389
C    -3.48854   1.37850  -0.20189
C    -1.59904   0.88451   1.43306
C    -1.20671  -0.24091   0.77574
C    -0.04599  -1.01709   1.11026
C     1.99172   0.16413   0.01624
C     2.96090   0.59239   1.07776
C     1.06625   1.13967  -0.53840
O     0.48087   1.05728  -1.61165
O     0.93114   2.20694   0.27515
C     0.14037   3.29548  -0.21279
N     2.26409  -0.98819  -0.64380
C     1.38050  -1.89252  -1.18293
C     0.36898  -1.58851  -2.14105
N    -0.49845  -1.55092  -2.91969
C     0.21504  -2.31021   0.59768
C    -0.90039  -3.14956   0.01249
C     1.26665  -3.11252   1.33533
H    -2.44947   3.09814   2.66315
H    -3.84123   3.49898   1.48101
H    -2.81663   1.33227  -1.07530
H    -4.27851   2.11466  -0.40656
H    -3.95652   0.38406  -0.11303
H    -1.02684   1.20726   2.31000
H    -1.78189  -0.56288  -0.09569
H     0.54323  -0.68051   1.96679
H     3.61812  -0.24090   1.36479
H     3.58699   1.44004   0.75237
H     2.41655   0.92027   1.97611
H     0.66713   3.80647  -1.03350
H    -0.83856   2.95126  -0.56779
H     0.01053   3.98061   0.63310
H     3.08393  -1.46429  -0.27203
H     1.85545  -2.85280  -1.40497
H    -1.49250  -3.59009   0.83399
H    -1.58925  -2.57614  -0.62031
H    -0.49909  -3.98101  -0.58682
H     2.13656  -2.49545   1.60617
H     1.61523  -3.97448   0.74713
H     0.84050  -3.50420   2.27606
