45
Generated by autodE on: 2022-10-21. E = -1278.462736 Ha
C    -4.39406  -2.19270  -1.07572
O    -3.14194  -1.79717  -0.49022
C    -2.19985  -1.36864  -1.32177
O    -2.29963  -1.34423  -2.52917
C    -0.96748  -0.92663  -0.58199
N     0.17127  -1.32246  -0.98674
C     1.22843  -0.86585  -0.08118
C     1.65778  -2.06510   0.77916
C     2.45852  -0.40153  -0.86439
O     3.40404   0.14607  -0.33214
O     2.42447  -0.71803  -2.15130
C     3.56289  -0.33014  -2.93754
C     0.58666   0.27331   0.81095
O     0.88665   0.21270   2.16834
C     2.17595   0.62226   2.62834
C     0.81685   1.64620   0.16422
O     0.96087   1.79133  -1.03342
O     0.81130   2.63601   1.04220
C     0.95011   3.96710   0.51605
C    -0.97212  -0.03267   0.66109
O    -1.49164  -0.78998   1.70463
C    -1.79383  -0.13002   2.94182
O    -1.61373   1.19816   0.50007
C    -3.01074   1.21555   0.20185
H    -4.84909  -1.34012  -1.60004
H    -5.02781  -2.51093  -0.24077
H    -4.24168  -3.02185  -1.78058
H     2.50552  -1.79971   1.42222
H     0.81603  -2.38959   1.40485
H     1.95914  -2.89314   0.12214
H     3.67965   0.76286  -2.91842
H     3.35464  -0.67387  -3.95704
H     4.47615  -0.80519  -2.55216
H     2.16578   1.68558   2.91157
H     2.95175   0.46037   1.86915
H     2.40152   0.01545   3.51657
H     1.89076   4.05905  -0.04446
H     0.95410   4.63458   1.38468
H     0.10180   4.19972  -0.14324
H    -1.24124  -0.62725   3.75087
H    -2.87524  -0.21994   3.12958
H    -1.51962   0.93083   2.91604
H    -3.18633   1.04971  -0.87354
H    -3.36790   2.22003   0.46413
H    -3.56270   0.46901   0.78842
