19
Generated by autodE on: 2022-05-30. E = -440.328820 Ha
C     3.73826   0.22201   0.18979
N     3.06366  -0.86317  -0.45088
O     1.72466  -0.70699  -0.38083
C     1.04823   0.25341   0.16694
C    -0.39040   0.20137   0.11192
C    -1.12662   1.24976   0.70726
C    -2.51990   1.24056   0.67687
C    -3.20408   0.18983   0.05496
C    -2.48219  -0.85535  -0.53859
C    -1.09072  -0.85580  -0.51400
H     3.51043   1.21189  -0.26479
H     4.81568   0.03556   0.09366
H     3.49327   0.31656   1.27120
H     1.56451   1.07863   0.65682
H    -0.59189   2.06985   1.19270
H    -3.07685   2.05765   1.14122
H    -4.29616   0.18357   0.03182
H    -3.01352  -1.67692  -1.02485
H    -0.53211  -1.67085  -0.97728
