19
Generated by autodE on: 2022-07-26. E = -440.328820 Ha
C    -2.27192  -1.65632  -2.48045
N    -1.57363  -2.38673  -1.46953
O    -0.82441  -1.56077  -0.70901
C    -0.68829  -0.27479  -0.80127
C     0.17594   0.39472   0.13680
C     0.87771  -0.29539   1.15220
C     1.69950   0.40210   2.03251
C     1.84115   1.79275   1.92357
C     1.15065   2.48461   0.92185
C     0.32510   1.79573   0.03517
H    -2.85889  -2.38205  -3.05801
H    -2.96581  -0.88982  -2.06905
H    -1.59562  -1.11517  -3.17912
H    -1.22026   0.27911  -1.57434
H     0.76948  -1.37776   1.24014
H     2.23712  -0.14056   2.81371
H     2.48791   2.33349   2.61818
H     1.25712   3.56815   0.83185
H    -0.21434   2.33486  -0.74745
