44
Generated by autodE on: 2022-05-30. E = -1013.609231 Ha. Imaginary frequency = -240.0 cm-1
C    -0.96283   3.65367  -0.34813
N    -0.87380   2.32782   0.22905
C    -1.21944   1.22945  -0.47699
O    -1.74379   1.32120  -1.60085
C    -0.90991  -0.07148   0.15935
C    -0.51438  -0.24980   1.62463
C    -1.85793  -0.22746   2.42148
C    -2.53921  -1.55890   1.98840
C    -1.49320  -2.18705   1.01502
C    -0.17952  -1.75238   1.68389
C    -1.50717  -1.28117  -0.21732
C    -2.54726  -1.43308  -1.17432
N    -3.42724  -1.64133  -1.90950
N     0.17816  -2.20854  -1.68998
C    -0.21822  -1.57081  -2.93048
O     1.12923  -1.49194  -1.03616
C     1.18787  -0.18428  -1.04008
C     2.15833   0.47064  -0.19081
C     2.93556  -0.22456   0.75898
C     3.79877   0.47474   1.59880
C     3.89865   1.86955   1.51005
C     3.13825   2.56510   0.56345
C     2.27717   1.87290  -0.28608
H    -2.00556   3.91368  -0.58679
H    -0.57431   4.38183   0.37429
H    -0.37589   3.72569  -1.27896
H    -0.33992   2.20928   1.08256
H     0.25443   0.43862   1.99705
H    -2.46027   0.66021   2.18469
H    -1.64876  -0.21579   3.50134
H    -2.69461  -2.23099   2.84509
H    -3.51228  -1.40616   1.49968
H    -1.63709  -3.25306   0.80483
H     0.71423  -2.03775   1.12308
H    -0.09624  -2.12016   2.71690
H    -0.87463  -2.28053  -3.44900
H    -0.75556  -0.61366  -2.83677
H     0.67534  -1.39433  -3.56111
H     0.74880   0.36520  -1.87164
H     2.86178  -1.31029   0.82839
H     4.39956  -0.06975   2.33075
H     4.57445   2.41221   2.17493
H     3.21982   3.65143   0.48508
H     1.68564   2.41176  -1.02868
