30
Generated by autodE on: 2022-06-02. E = -726.013206 Ha
C     4.18222  -0.87695   3.11876
N     2.85053  -0.78222   2.56155
C     2.58562  -0.29745   1.32810
O     3.46046   0.11381   0.54208
C     1.16884  -0.28196   0.95378
N     0.89489   0.20310  -0.23830
C    -0.23819   0.40902  -0.94358
C     0.01780   1.02714  -2.23126
C    -1.12260   1.27494  -3.18583
O     1.18075   1.34220  -2.55568
C    -1.55241   0.00673  -0.41196
C    -2.63442   0.90735  -0.40246
C    -3.88359   0.51830   0.08549
C    -4.07518  -0.77449   0.58223
C    -3.00682  -1.67788   0.58479
C    -1.75903  -1.29312   0.09242
H     4.90240  -0.50443   2.38123
H     4.43606  -1.92034   3.36549
H     4.27287  -0.27458   4.03691
H     2.06737  -1.09249   3.12825
H     0.37438  -0.63317   1.61004
H     1.73029   0.52219  -0.76563
H    -1.91484   0.51859  -3.10591
H    -0.72498   1.30050  -4.20993
H    -1.57638   2.25761  -2.97455
H    -2.49045   1.92433  -0.77098
H    -4.71002   1.23309   0.08484
H    -5.05185  -1.07701   0.96715
H    -3.14785  -2.69227   0.96564
H    -0.93902  -2.01434   0.08324
