22
Generated by autodE on: 2022-06-02. E = -574.845792 Ha
C     3.65297   0.46590   0.27079
O     2.25098   0.70661   0.10084
C     1.47326  -0.37311  -0.08947
O     1.92456  -1.50908  -0.13913
C     0.05540  -0.06902  -0.23387
C    -0.67507   1.03934   0.01962
C    -0.34358   2.39769   0.50376
C    -2.13967   0.57596  -0.20122
C    -2.47980  -0.37734   0.96483
C    -1.75865  -1.47655   0.72342
C    -0.98399  -1.16421  -0.57571
O    -1.95640  -0.36389  -1.27300
H     4.07363  -0.02499  -0.61910
H     3.83532  -0.16561   1.15279
H     4.11383   1.45077   0.41093
H     0.72884   2.53193   0.68390
H    -0.68847   3.15313  -0.22350
H    -0.89933   2.59690   1.43750
H    -2.86343   1.36083  -0.44701
H    -3.12464  -0.13230   1.80790
H    -1.65208  -2.38562   1.31444
H    -0.62786  -2.00933  -1.17310
