34
Generated by autodE on: 2022-06-18. E = -914.783292 Ha
C     4.03717   1.38773   0.34564
O     3.12424   0.39891  -0.14997
C     1.85492   0.77326  -0.27985
O     1.47878   1.91489  -0.10400
C     0.93687  -0.35750  -0.80951
C     1.73298  -1.59449  -1.19936
O     0.32382   0.14751  -2.01042
O    -0.95392   0.77626  -1.65049
C    -1.13456   0.64175  -0.21271
N    -2.51155   0.56589   0.10172
C    -3.29211   1.79223   0.03961
C    -3.15059  -0.66304   0.14033
C    -2.50974  -1.83895   0.00552
C    -1.04596  -1.89168  -0.32530
C    -0.28699  -0.61316   0.11607
C     0.11484  -0.65467   1.59144
N    -0.84113  -1.02572   2.45388
O     1.25650  -0.34907   1.95309
H     4.06193   2.26124  -0.32121
H     5.01990   0.90350   0.37613
H     3.73672   1.70447   1.35521
H     2.53311  -1.32218  -1.89957
H     1.08790  -2.33932  -1.67715
H     2.19073  -2.03256  -0.30264
H    -0.71036   1.53362   0.26471
H    -3.62372   2.03214  -0.98611
H    -4.18192   1.69920   0.67876
H    -2.68616   2.63127   0.41123
H    -4.22192  -0.61037   0.34670
H    -3.06987  -2.77032   0.09868
H    -0.92619  -2.00606  -1.41428
H    -0.56718  -2.77093   0.13015
H    -1.76057  -1.32001   2.13190
H    -0.61302  -1.08536   3.44213
