14
Generated by autodE on: 2022-07-27. E = -457.010859 Ha
C     1.91690  -0.94076   1.65828
O     0.69459  -0.91405   0.88912
C     0.60590   0.00189  -0.05368
O     1.45693   0.79234  -0.38729
C    -0.71333  -0.08137  -0.79143
C    -0.87862  -0.84101  -2.03927
O    -1.66672   0.59706  -0.32789
O    -1.43165   1.29897   0.84085
H     2.77474  -1.11473   0.99435
H     2.04150   0.01148   2.19214
H     1.80336  -1.76767   2.36714
H    -0.13512  -0.48305  -2.77218
H    -1.89573  -0.72830  -2.43487
H    -0.65124  -1.90314  -1.84429
