33
Generated by autodE on: 2022-10-06. E = -1080.564450 Ha
C    -3.44756   3.03905  -0.50124
N    -2.42602   2.25915   0.16683
C    -2.47272   0.90984   0.15997
O    -3.41906   0.24873  -0.28629
N    -1.41855   0.25398   0.79323
O    -0.27050   1.09767   0.96581
C     0.86607   0.25920   1.26753
C     1.26124   0.46074   2.72523
C     2.02249   0.70463   0.34576
O     3.19392   0.60631   0.72956
N     1.66651   1.23656  -0.83486
C     2.65999   1.42086  -1.87249
C     0.37381  -1.19867   1.01294
C     1.34732  -2.21317   0.36010
O     1.36984  -3.35416   0.88556
O     2.00685  -1.84514  -0.64428
C    -0.94705  -1.01267   0.23840
C    -0.82063  -1.01988  -1.30832
O    -0.68268   0.08947  -1.89766
O    -0.88011  -2.14708  -1.84631
H    -3.33435   4.09341  -0.21815
H    -4.44840   2.70103  -0.19744
H    -3.38139   2.96196  -1.60044
H    -1.54083   2.69396   0.40323
H     0.40448   0.22118   3.37106
H     2.09762  -0.20249   2.98555
H     1.56942   1.50078   2.90775
H     0.70582   1.03724  -1.14627
H     3.50034   2.02748  -1.50594
H     2.20064   1.93526  -2.72669
H     3.06419   0.45266  -2.21775
H     0.10937  -1.61242   1.99391
H    -1.64960  -1.80759   0.51353
