23
Generated by autodE on: 2022-10-06. E = -625.432613 Ha
C    -4.38422   1.28777  -0.53566
N    -3.41881   0.27748  -0.16365
C    -2.08277   0.53147  -0.17389
O    -1.61632   1.66497  -0.37075
N    -1.35447  -0.62596   0.07553
O    -0.04255  -0.25580   0.05878
C     0.88835  -1.10057   0.25935
C     0.61342  -2.51502   0.52593
C     2.27344  -0.52584   0.20066
O     3.25040  -1.25841   0.38425
N     2.34995   0.78954  -0.05497
C     3.62755   1.46886  -0.13257
H    -4.17216   2.23175  -0.01309
H    -4.38357   1.49675  -1.62079
H    -5.38846   0.94899  -0.24978
H    -3.71386  -0.69160  -0.11243
H    -0.03899  -2.59892   1.41351
H     0.03520  -2.93996  -0.31404
H     1.54625  -3.06791   0.67457
H     1.48988   1.31387  -0.18934
H     4.18009   1.38282   0.81655
H     3.45171   2.52918  -0.34764
H     4.25565   1.04110  -0.93002
