18
Generated by autodE on: 2022-06-04. E = -559.518300 Ha
C     2.81175   0.62314  -0.29831
C     1.74604  -0.38087  -0.65386
O     1.95026  -1.29566  -1.45194
C     0.43822  -0.23830  -0.02461
C    -0.09968   0.72805   0.74201
F     0.43506   1.84388   1.19273
C    -1.57894   0.37400   0.95952
C    -2.27351   0.55040  -0.41142
C    -1.77414  -0.42890  -1.17095
C    -0.77208  -1.17486  -0.26227
O    -1.44605  -1.05503   1.01263
H     3.75028   0.36509  -0.80604
H     2.49196   1.63316  -0.60246
H     2.96827   0.65006   0.79159
H    -2.05986   0.80123   1.84572
H    -2.96970   1.35011  -0.65976
H    -1.95440  -0.65657  -2.22092
H    -0.52863  -2.21208  -0.51155
