46
Generated by autodE on: 2022-06-04. E = -1333.897866 Ha. Imaginary frequency = -241.0 cm-1
C    -2.66829   4.40510  -0.93137
N    -2.16369   3.05754  -1.14632
C    -0.89658   2.72804  -0.69746
O    -0.22871   3.50730  -0.01338
N    -0.39701   1.52371  -1.12484
N    -1.12577   0.45195  -1.36798
C    -1.75296  -0.37900  -0.52891
C    -1.86037  -1.75304  -1.15066
O    -1.37542  -1.93994  -2.27870
N    -2.44355  -2.71104  -0.42704
C    -2.49363  -4.08221  -0.89121
C    -2.48575  -0.04515   0.73355
O    -2.70040  -0.93642   1.57920
N    -2.91009   1.20780   0.91507
C    -3.61072   1.59350   2.12478
C     0.39274  -0.57488   0.85966
C     1.18108  -1.60324   0.01807
O     1.47957  -0.82316  -1.14822
C     2.09828   0.27339  -0.43659
C     3.19128  -0.48291   0.35135
C     4.46652   0.08781   0.77178
C     5.41663  -0.79568   1.53719
O     4.73409   1.25948   0.50578
C     2.58771  -1.65509   0.62729
F     3.01004  -2.67111   1.35102
C     0.96498   0.62549   0.54737
H    -2.62527   4.65518   0.13757
H    -3.71540   4.44320  -1.25899
H    -2.09277   5.16376  -1.48878
H    -2.48327   2.57898  -1.98474
H    -0.79729  -0.09876  -2.17931
H    -2.70792  -2.45590   0.52790
H    -2.93696  -4.13774  -1.89647
H    -1.48648  -4.52903  -0.93951
H    -3.10778  -4.66917  -0.19774
H    -2.82462   1.89594   0.15971
H    -4.57440   1.06747   2.21876
H    -3.00862   1.36017   3.01582
H    -3.79552   2.67406   2.08863
H    -0.23427  -0.83455   1.70765
H     0.71341  -2.56599  -0.21191
H     2.44883   1.06097  -1.10788
H     5.63287  -1.71419   0.96924
H     4.95396  -1.10686   2.48802
H     6.34838  -0.25216   1.74110
H     0.88732   1.57211   1.07630
