52
Generated by autodE on: 2022-06-23. E = -1192.565935 Ha
C    -5.64761  -0.86363  -0.87919
C    -4.56458  -1.21354  -0.15595
C    -4.60444  -2.34790   0.83373
C    -3.30705  -0.47860  -0.33030
C    -2.15833  -0.72513   0.32568
C    -0.90048   0.04486   0.09504
C    -0.22848   0.54135   1.40585
C    -0.65715   1.96225   1.71359
O     0.01484   2.95200   1.51093
O    -1.90127   1.98437   2.19154
C    -2.48260   3.27503   2.43718
O     1.17596   0.47842   1.21521
C     1.47421   0.17632  -0.15538
C     1.54548   1.56223  -0.84966
O     0.75439   2.02499  -1.64354
O     2.59138   2.24530  -0.38545
C     2.70621   3.61383  -0.80164
C     2.82447  -0.50445  -0.25502
C     3.44440  -1.05933   0.86950
C     4.66678  -1.72595   0.74163
C     5.27811  -1.84530  -0.50953
C     4.66395  -1.28560  -1.63502
C     3.44539  -0.61601  -1.50758
C     0.27013  -0.72882  -0.59014
C     0.06035  -0.88735  -2.09466
C     0.43520  -2.12655   0.02838
H    -6.59957  -1.39173  -0.77448
H    -5.60636  -0.03769  -1.59591
H    -4.35055  -1.99770   1.84809
H    -5.59965  -2.81313   0.86711
H    -3.86571  -3.12491   0.57570
H    -3.32774   0.33875  -1.06081
H    -2.11212  -1.52526   1.06973
H    -1.13057   0.90974  -0.54131
H    -0.49984  -0.10281   2.25643
H    -2.51209   3.86359   1.50903
H    -1.90293   3.81732   3.19776
H    -3.49939   3.08446   2.79882
H     1.82638   4.18286  -0.46853
H     3.61294   3.99959  -0.32195
H     2.79623   3.67889  -1.89524
H     2.96787  -0.96700   1.84519
H     5.14298  -2.15438   1.62687
H     6.23294  -2.36710  -0.60764
H     5.13730  -1.36659  -2.61628
H     2.97794  -0.17147  -2.38937
H     0.89757  -1.43975  -2.54708
H    -0.85499  -1.47414  -2.26834
H    -0.04421   0.07533  -2.60675
H     0.57635  -2.09443   1.11816
H    -0.45943  -2.72937  -0.18231
H     1.29760  -2.64576  -0.41179
