29
Generated by autodE on: 2022-07-28. E = -840.946036 Ha
C    -3.67016   3.14002  -0.56495
O    -3.13467   2.29083   0.45291
C    -2.06888   1.53288   0.10376
O    -1.56761   1.56781  -1.02239
C    -1.67787   0.66448   1.16772
O    -0.71819  -0.24507   1.02450
C     0.29555  -0.36292   0.21214
C     0.84029   0.81272  -0.52876
O     1.33067   0.75506  -1.63784
O     0.84147   1.90083   0.23971
C     1.27772   3.12377  -0.37218
C     0.94484  -1.65916   0.20108
C     0.32252  -2.76020   0.83771
C     0.93879  -4.00674   0.85746
C     2.18097  -4.19233   0.23699
C     2.80292  -3.11413  -0.40164
C     2.19928  -1.85902  -0.42213
H    -4.04419   2.54885  -1.41463
H    -2.90811   3.84704  -0.92669
H    -4.49797   3.68780  -0.09882
H    -2.31783   0.46818   2.02511
H     0.66667   3.33976  -1.25945
H     1.13950   3.90416   0.38455
H     2.33670   3.05332  -0.65869
H    -0.65241  -2.62727   1.30774
H     0.44348  -4.84510   1.35233
H     2.65911  -5.17426   0.24853
H     3.77232  -3.25043  -0.88605
H     2.70134  -1.03016  -0.91853
