29
Generated by autodE on: 2022-06-23. E = -840.950865 Ha
C     4.46232   0.14929  -0.07348
O     3.05163  -0.09657  -0.07153
C     2.66624  -1.37826  -0.21585
O     3.45313  -2.30904  -0.34282
C     1.23148  -1.57313  -0.20981
O     0.48459  -0.51708  -0.07066
C    -0.78295  -0.18195  -0.01018
C    -1.83820  -1.19974  -0.11741
O    -3.03771  -0.97377  -0.08641
O    -1.33902  -2.43607  -0.25757
C    -2.28617  -3.50727  -0.37405
C    -1.00704   1.25225   0.16875
C    -2.29699   1.81609   0.29461
C    -2.45603   3.19126   0.46927
C    -1.34675   4.03910   0.52299
C    -0.06306   3.49317   0.39918
C     0.10852   2.12360   0.22505
H     4.95184  -0.38726   0.75271
H     4.58071   1.23117   0.05780
H     4.91077  -0.16681  -1.02702
H     0.80088  -2.56353  -0.32127
H    -2.91911  -3.55812   0.52336
H    -2.91949  -3.36327  -1.26108
H    -1.69175  -4.42237  -0.47435
H    -3.17066   1.17152   0.25579
H    -3.46392   3.60196   0.56526
H    -1.47851   5.11471   0.66020
H     0.81482   4.14236   0.43849
H     1.11420   1.71513   0.13099
