24
Generated by autodE on: 2022-05-31. E = -681.227822 Ha
N    -3.00967   2.27674  -0.64049
C    -2.17764   1.56699  -1.02206
C    -1.13658   0.62170  -1.48080
C    -0.85397   0.88297  -2.90596
N    -0.63241   1.05257  -4.03004
C     0.05435   0.73955  -0.63160
C     0.80484   0.47398   0.27576
C     1.36225  -0.30427   1.38785
C     2.46555  -1.15918   0.89935
N     3.30212  -1.86046   0.51208
C     1.86785   0.54587   2.48321
N     2.23385   1.20599   3.36167
C     0.17826  -1.20795   1.92393
C    -0.57474  -2.00202   0.84319
C    -1.79585  -1.34013   0.14771
C    -1.64575  -0.86742  -1.30817
H    -0.50440  -0.53251   2.45960
H     0.62550  -1.88914   2.66168
H     0.13503  -2.38080   0.08876
H    -0.94929  -2.89660   1.36188
H    -2.59301  -2.09722   0.11585
H    -2.19704  -0.52451   0.77241
H    -0.92972  -1.50038  -1.85214
H    -2.60997  -0.92239  -1.83315
