41
Generated by autodE on: 2022-05-31. E = -1194.651353 Ha. Imaginary frequency = -46.9 cm-1
C    -2.55305   1.49521   3.92505
O    -1.27356   0.89299   3.69455
C    -0.69931   1.14113   2.50440
O    -1.18903   1.88588   1.66944
C     0.50406   0.31817   2.37868
O     1.56711   0.56526   1.66094
C     1.93176   1.50290   0.82283
C     1.35990   2.87319   0.77756
C     3.19601   1.22678   0.23480
N     4.22734   1.03799  -0.27640
C     0.24444  -0.00980  -0.88899
C    -0.37708  -0.71144  -0.11257
C    -1.37715  -1.76393   0.17309
C    -2.13665  -1.53384   1.41793
N    -2.78518  -1.37884   2.36418
C    -0.69581  -3.07096   0.28844
N    -0.16608  -4.09987   0.33820
C    -2.39615  -1.76965  -1.03517
C    -1.87833  -2.31406  -2.37168
C    -0.59512  -1.75955  -3.01829
C    -0.49708  -0.23327  -3.21140
C     0.58205   0.42296  -2.26160
C     0.55209   1.89055  -2.40988
N     0.49639   3.03907  -2.54658
C     1.92496  -0.06435  -2.64768
N     2.94628  -0.48909  -2.99013
H    -3.26429   1.20368   3.13991
H    -2.46219   2.59111   3.95018
H    -2.89103   1.12202   4.89868
H     0.63545  -0.54289   3.03222
H     1.39295   3.30249   1.79626
H     1.96242   3.49573   0.10524
H     0.30991   2.88290   0.46021
H    -3.25841  -2.37818  -0.72610
H    -2.73797  -0.72885  -1.12373
H    -1.74830  -3.40436  -2.27894
H    -2.71511  -2.17085  -3.07501
H    -0.52164  -2.23118  -4.00922
H     0.28340  -2.12705  -2.46503
H    -1.44754   0.27205  -2.98703
H    -0.21565   0.02647  -4.24135
