46
Generated by autodE on: 2022-10-07. E = -1504.223259 Ha
C    -1.90426  -3.66438  -0.91265
N    -1.51725  -2.46303  -0.20113
C    -1.95427  -1.25583  -0.58906
O    -2.89701  -1.07619  -1.36671
C    -1.21127  -0.04674   0.02378
C    -2.18671   0.75723   0.87903
C    -2.06274   0.78982   2.27369
C    -2.97065   1.51908   3.04886
C    -4.01577   2.21869   2.44093
C    -4.14642   2.18678   1.04821
C    -3.23852   1.46323   0.27272
O    -0.14112  -0.53754   0.85351
C     1.11850  -0.04847   0.43322
C     1.89480  -1.12007  -0.35756
O     2.84751  -0.88974  -1.06813
O     1.45902  -2.34809  -0.07030
C     2.01533  -3.42505  -0.83553
C     1.89974   0.35018   1.69792
O     1.41682   1.03721   2.57076
O     3.13142  -0.13939   1.72485
C     3.97485   0.27817   2.81065
C     0.76642   1.21691  -0.37569
C     1.93950   1.85914  -1.13877
O     2.92589   2.16115  -0.41424
O     1.81885   2.06822  -2.36811
C    -0.53842   0.83123  -1.08351
C    -0.37136   0.09854  -2.43110
O    -0.88241   0.62979  -3.44401
O     0.24119  -1.00594  -2.40224
H    -2.98770  -3.66825  -1.09174
H    -1.63965  -4.54615  -0.31466
H    -1.39206  -3.73022  -1.88849
H    -0.61264  -2.46077   0.26557
H    -1.24481   0.25328   2.75147
H    -2.85609   1.53952   4.13549
H    -4.72379   2.78883   3.04718
H    -4.95823   2.73186   0.56052
H    -3.34916   1.43923  -0.81176
H     1.49558  -4.33119  -0.50350
H     1.83396  -3.25176  -1.90559
H     3.09554  -3.51423  -0.65158
H     4.92734  -0.24443   2.66928
H     3.52442   0.00436   3.77470
H     4.12471   1.36637   2.76425
H     0.49148   1.95228   0.39655
H    -1.13815   1.72855  -1.26372
