46
Generated by autodE on: 2022-10-07. E = -1504.123600 Ha. Imaginary frequency = -324.6 cm-1
C    -1.52819  -2.56605  -2.74679
N    -1.01849  -1.88394  -1.57618
C    -1.83669  -1.11492  -0.84037
O    -3.06349  -1.06086  -0.99649
C    -1.14192  -0.27908   0.21330
C    -1.97105   0.51644   1.12932
C    -1.87873   0.28789   2.51545
C    -2.72844   0.95403   3.39757
C    -3.67239   1.86439   2.91107
C    -3.76675   2.09747   1.53387
C    -2.93118   1.42335   0.64413
O    -0.01116  -0.83478   0.60375
C     1.19185  -0.36658   0.96784
C     2.26640  -1.34629   0.73722
O     3.45607  -1.07955   0.68625
O     1.79011  -2.58926   0.55591
C     2.72867  -3.56456   0.09111
C     1.35517   0.84570   1.76822
O     0.49409   1.69648   1.93277
O     2.59376   0.97380   2.27745
C     2.87434   2.20551   2.95150
C     1.27907   0.97549  -1.10799
C     2.02031   0.00747  -2.00842
O     3.00509   0.49167  -2.61302
O     1.64619  -1.20098  -2.05446
C    -0.04883   1.33457  -1.22922
C    -0.88885   1.12137  -2.48405
O    -2.04083   1.63752  -2.47305
O    -0.38098   0.49835  -3.45156
H    -0.72477  -3.17812  -3.17686
H    -2.37348  -3.22040  -2.48739
H    -1.87089  -1.84899  -3.51253
H    -0.00644  -1.65394  -1.58427
H    -1.14914  -0.42807   2.89688
H    -2.65124   0.76255   4.47038
H    -4.33357   2.39090   3.60347
H    -4.49852   2.81219   1.14976
H    -2.98219   1.61343  -0.42820
H     3.56072  -3.68082   0.80046
H     2.17072  -4.50469   0.00717
H     3.12061  -3.26913  -0.89324
H     3.92731   2.15006   3.25195
H     2.23361   2.32024   3.83814
H     2.71728   3.06117   2.27824
H     1.93772   1.60951  -0.51059
H    -0.39948   2.15408  -0.59847
