36
Generated by autodE on: 2022-06-15. E = -899.796724 Ha
C    -0.25137  -3.03935   1.58930
O    -0.46222  -1.63630   1.46884
C    -1.19076  -1.21896   0.38708
O    -1.76185  -2.03653  -0.33613
C    -1.18748   0.20295   0.23746
C    -1.92102   0.87763  -0.78388
O    -2.72288   0.39198  -1.58212
O    -1.62406   2.21757  -0.81980
C    -2.34211   2.99930  -1.77178
N    -0.35216   0.98120   1.11167
C    -1.02906   1.83352   2.10179
C     0.94496   0.81667   1.15063
C     1.74114   1.40324   2.26536
C     1.63462   0.04772   0.09488
C     1.42875   0.35298  -1.26256
C     2.10456  -0.36593  -2.24628
C     2.96636  -1.41050  -1.88947
C     3.17154  -1.71735  -0.54157
C     2.52207  -0.97994   0.45071
H    -1.20354  -3.58018   1.69928
H     0.36086  -3.18022   2.48901
H     0.28511  -3.43472   0.71265
H    -3.42663   2.95238  -1.58871
H    -1.98995   4.03115  -1.64720
H    -2.13975   2.65978  -2.79894
H    -2.04662   2.02545   1.75166
H    -0.49580   2.78363   2.22847
H    -1.07188   1.30448   3.06607
H     2.77742   1.05110   2.23378
H     1.74920   2.50253   2.16876
H     1.29410   1.16480   3.24253
H     0.75745   1.16651  -1.53917
H     1.95502  -0.11308  -3.29818
H     3.48288  -1.98085  -2.66488
H     3.84368  -2.53030  -0.25880
H     2.68079  -1.22061   1.50354
