20
Generated by autodE on: 2022-06-15. E = -8132.181205 Ha
F    -2.46855   1.59527  -2.04458
C    -1.72549   0.49653  -1.72255
Br   -0.95394  -0.18189  -3.45355
C    -0.62231   0.79294  -0.83119
C     0.13711   0.54472   0.08145
C     0.68943  -0.16210   1.20134
Br    2.67447  -0.16960   1.14851
Br    0.11733   0.75391   2.87959
C     0.15516  -1.60706   1.16889
C    -1.36713  -1.75100   0.95700
C    -1.90943  -1.80855  -0.49871
C    -2.61511  -0.56877  -1.07878
H     0.45930  -2.09084   2.10830
H     0.68781  -2.12106   0.35309
H    -1.63158  -2.70638   1.43350
H    -1.90206  -0.97968   1.53484
H    -2.66325  -2.60875  -0.52375
H    -1.11363  -2.13792  -1.18718
H    -3.35488  -0.86868  -1.83605
H    -3.16409  -0.03861  -0.28198
