37
Generated by autodE on: 2022-10-21. E = -954.220871 Ha
C     3.18252  -1.85822   1.60475
N     2.35396  -1.23367   0.59297
C     2.42299   0.07462   0.35045
O     3.21300   0.84461   0.91168
C     1.44044   0.60538  -0.71700
O     0.76680  -0.42821  -1.40513
C    -0.63241  -0.48559  -1.07271
C    -1.40915  -0.55200  -2.38895
C    -0.87228  -1.79454  -0.26933
O     0.02072  -2.64823  -0.15466
N    -2.09622  -1.95690   0.23580
C    -2.46506  -3.14572   0.97987
C    -0.87302   0.79561  -0.28057
C    -2.19229   1.29163   0.10148
C    -2.32945   2.66820   0.69451
O    -3.20520   0.59527  -0.06261
C     0.32230   1.43121  -0.11195
O     0.49859   2.58078   0.51283
C     1.61749   3.42847   0.17991
H     3.05121  -1.37242   2.58496
H     2.89682  -2.91380   1.69140
H     4.25074  -1.80069   1.34136
H     1.61819  -1.78310   0.13032
H     2.03905   1.19667  -1.43054
H    -1.17581   0.33868  -2.99026
H    -1.10394  -1.45074  -2.94580
H    -2.49102  -0.59170  -2.21384
H    -2.75926  -1.18319   0.12382
H    -2.41677  -4.04602   0.34664
H    -1.79436  -3.30140   1.83958
H    -3.49172  -3.02893   1.34788
H    -1.86281   3.42674   0.04901
H    -1.81159   2.71672   1.66495
H    -3.39585   2.88851   0.83293
H     1.52424   4.30532   0.83113
H     2.56279   2.90795   0.37013
H     1.54488   3.73853  -0.87307
