24
Generated by autodE on: 2022-10-26. E = -609.406820 Ha
C     3.28536   0.72645   2.23925
N     2.22039   0.56622   1.27412
C     2.32209   1.06734   0.01650
O     3.33690   1.67734  -0.37700
C     1.19049   0.86415  -0.86859
O     0.16136   0.21395  -0.37897
C    -0.97788  -0.10934  -0.92361
C    -1.23266   0.29348  -2.32143
C    -1.83808  -0.84937   0.01376
O    -1.48394  -1.06664   1.18674
N    -3.02971  -1.27621  -0.46350
C    -3.94827  -2.01875   0.37415
H     3.47337   1.78873   2.46978
H     3.00394   0.21390   3.16748
H     4.23095   0.29383   1.87337
H     1.36653   0.08900   1.54340
H     1.18683   1.23028  -1.89420
H    -1.12622   1.39068  -2.42558
H    -0.48116  -0.15772  -2.99793
H    -2.23183   0.01006  -2.67044
H    -3.27247  -1.12458  -1.43509
H    -4.21874  -1.44414   1.27426
H    -4.86010  -2.22818  -0.19808
H    -3.51191  -2.97515   0.70686
