13
Generated by autodE on: 2022-10-21. E = -344.660258 Ha
C     2.98054   1.04271   0.03638
O     2.27930  -0.19794  -0.26895
C     1.00562  -0.19413  -0.15084
C    -0.20940  -0.24483  -0.05443
C    -1.64327  -0.27971   0.06806
C    -2.30208   1.00232   0.50756
O    -2.28560  -1.29927  -0.17289
H     2.62917   1.83427  -0.63955
H     4.04222   0.83152  -0.13038
H     2.79709   1.31488   1.08482
H    -2.06375   1.80892  -0.20464
H    -3.38980   0.86197   0.56755
H    -1.90578   1.30932   1.48908
