40
Generated by autodE on: 2022-10-21. E = -1146.909228 Ha
C     3.68818   2.06316   2.44995
N     2.33971   2.01273   1.92430
C     1.63646   0.85442   1.95284
O     1.97088  -0.14260   2.60557
N     0.43423   0.87259   1.24742
C    -0.12876  -0.39295   0.78689
C    -1.55613  -0.72203   1.32041
O    -2.37980   0.12983   0.50622
C    -1.96367  -0.40741  -0.75767
C    -2.16465  -1.90622  -0.54589
O    -2.37365  -2.71102  -1.59730
C    -2.25180  -4.11672  -1.35987
C    -1.92749  -2.08607   0.76498
F    -1.79753  -3.21464   1.47931
C    -0.42682  -0.17215  -0.72731
C     0.03541   1.28579  -0.98557
C     1.33268   1.27314  -1.78259
O     2.43565   1.52262  -1.34519
O     1.10241   0.91544  -3.04881
C     2.24593   0.79716  -3.90916
N     0.22475   1.92218   0.31701
C    -0.81996   2.85792   0.72865
H     4.00273   3.11151   2.54038
H     4.41388   1.53524   1.80570
H     3.72130   1.60292   3.44679
H     2.09049   2.62121   1.14667
H     0.57126  -1.20418   1.00914
H    -1.71079  -0.55435   2.39197
H    -2.50570   0.04298  -1.59669
H    -2.43317  -4.61375  -2.32107
H    -2.99796  -4.45517  -0.62400
H    -1.24020  -4.36278  -1.00036
H     0.08528  -0.88245  -1.38590
H    -0.71072   1.83721  -1.57386
H     1.85870   0.48850  -4.88695
H     2.94217   0.04059  -3.51947
H     2.76448   1.76302  -3.99337
H    -0.53756   3.29817   1.69527
H    -1.81287   2.38893   0.81915
H    -0.86872   3.67029  -0.01081
