23
Generated by autodE on: 2022-10-26. E = -625.450721 Ha
C     2.59700   0.55690   1.94160
N     1.46196   0.11843   2.73014
C     0.19738  -0.07295   2.27032
O    -0.71592  -0.44611   3.02611
N     0.12310   0.12372   0.89986
N    -1.03510   0.26553   0.31519
C    -2.28221   0.60832   1.06030
C    -1.16391   0.18040  -1.00280
C    -0.09882  -0.17219  -1.93796
O     1.06981  -0.42819  -1.70622
O    -0.61404  -0.18133  -3.18828
C     0.28998  -0.50878  -4.24740
H     2.73213  -0.07066   1.04860
H     2.49291   1.60125   1.60371
H     3.49993   0.48511   2.56200
H     1.58882  -0.05313   3.72157
H    -2.04982   1.38919   1.79130
H    -3.02343   0.96397   0.33926
H    -2.63970  -0.28318   1.58290
H    -2.14793   0.38756  -1.41256
H    -0.29701  -0.46341  -5.17231
H     0.70109  -1.52021  -4.11054
H     1.11840   0.21427  -4.28977
