17
Generated by autodE on: 2022-10-21. E = -521.360590 Ha
C    -2.88789   0.21945   0.14173
O    -1.88653  -0.78266  -0.04949
C    -0.62885  -0.33999  -0.20257
C    -0.02629   0.85738  -0.24131
F    -0.51317   2.09953  -0.08855
C     1.48255   0.56285  -0.27079
C     1.87586  -0.05195   1.09756
C     1.28455  -1.24982   1.11600
C     0.54554  -1.34353  -0.24213
O     1.46961  -0.62778  -1.08633
H    -3.84578  -0.30683   0.23932
H    -2.68939   0.79892   1.05739
H    -2.92786   0.90084  -0.72324
H     2.12433   1.35221  -0.67855
H     2.46682   0.44897   1.86361
H     1.25229  -2.00403   1.90134
H     0.30260  -2.34068  -0.62605
