40
Generated by autodE on: 2022-10-21. E = -1146.806508 Ha. Imaginary frequency = -240.1 cm-1
C     2.84603   2.97576   1.93323
N     2.11620   2.07450   2.80889
C     1.42065   0.97107   2.42833
O     1.08406   0.09668   3.24098
N     1.20207   0.80192   1.06458
C     0.16198  -1.05237   0.28129
C    -1.15064  -1.05287   1.09430
O    -1.82784   0.06300   0.48381
C    -1.74396  -0.44177  -0.86101
C    -2.39313  -1.83118  -0.67735
O    -3.04470  -2.41055  -1.69684
C    -3.45333  -3.76617  -1.49760
C    -2.02659  -2.19618   0.56221
F    -2.17414  -3.35842   1.21924
C    -0.21941  -0.65497  -0.98103
C     0.56155   1.62760  -0.95058
C     1.73932   1.21602  -1.71772
O     2.83516   0.89188  -1.29248
O     1.46018   1.27031  -3.03684
C     2.51266   0.88466  -3.92699
N     0.56393   1.73100   0.38553
C    -0.42761   2.60606   1.03801
H     2.25163   3.85347   1.62873
H     3.17406   2.44872   1.02697
H     3.73624   3.34064   2.46322
H     2.30290   2.12530   3.80612
H     1.03518  -1.63711   0.55768
H    -1.06740  -0.95703   2.18130
H    -2.23276   0.21471  -1.58934
H    -3.96290  -4.08000  -2.41732
H    -4.14886  -3.84245  -0.64658
H    -2.58019  -4.41351  -1.31855
H     0.27413  -0.89544  -1.92055
H    -0.19752   2.19920  -1.48088
H     2.10393   0.98161  -4.93976
H     2.81629  -0.15632  -3.74092
H     3.38575   1.54315  -3.80822
H     0.06613   3.52485   1.38275
H    -1.20907   2.86775   0.31727
H    -0.87428   2.07797   1.88684
