21
Generated by autodE on: 2022-07-26. E = -549.949894 Ha
C    -2.61047   2.93017  -0.51922
C    -2.27094   1.89386   0.51056
O    -2.88387   1.77454   1.57478
N    -1.20025   1.08193   0.15014
N    -0.96137   0.20054   1.09188
N    -0.08894  -0.71138   1.16338
C     0.85213  -0.95359   0.16150
C     1.71851  -2.02818   0.46954
C     2.72090  -2.41193  -0.41341
C     2.88093  -1.72922  -1.62598
C     2.03030  -0.66516  -1.94153
C     1.01929  -0.26919  -1.06519
H    -1.73558   3.57365  -0.70339
H    -2.85720   2.43970  -1.47427
H    -3.45822   3.53875  -0.18121
H    -1.59532   0.26386   1.91403
H     1.57728  -2.54663   1.41940
H     3.38057  -3.24433  -0.15918
H     3.66768  -2.02682  -2.32284
H     2.15374  -0.13154  -2.88675
H     0.36260   0.55692  -1.31571
