16
Generated by autodE on: 2022-05-28. E = -346.852369 Ha
C     2.48058  -0.33635  -0.50949
C     1.02199  -0.40793  -0.23518
C     0.02748  -1.08848  -0.81948
C    -1.26142  -0.59868  -0.12250
C    -1.48285   0.87449  -0.54419
C    -0.49422   1.55227   0.04731
C     0.30669   0.48019   0.82113
O    -0.76236  -0.40085   1.21889
H     2.77961  -1.02366  -1.31447
H     3.06940  -0.57332   0.39359
H     2.76404   0.68995  -0.80555
H     0.06689  -1.77888  -1.66179
H    -2.13285  -1.26291  -0.14312
H    -2.25193   1.22318  -1.23320
H    -0.23174   2.60755  -0.02282
H     0.90904   0.81475   1.67387
