37
Generated by autodE on: 2022-05-28. E = -896.774417 Ha. Imaginary frequency = -328.9 cm-1
C    -1.73303   3.64125   0.48214
C    -1.79605   2.31360  -0.23290
O    -2.63723   2.07971  -1.10522
N    -0.87480   1.34554   0.08598
N    -0.20091   1.46155   1.22751
N     0.74553   0.61799   1.51992
C     1.77628   0.38621   0.59715
C     2.72505  -0.58426   0.97819
C     3.83346  -0.84954   0.17810
C     4.03197  -0.13456  -1.00922
C     3.10828   0.84852  -1.37946
C     1.98258   1.10666  -0.59620
C    -0.56943  -1.26538   1.07172
C     0.07963  -2.16626   0.01212
C    -0.92234  -3.31756  -0.25059
C    -1.94003  -2.74893  -0.90709
C    -1.54709  -1.25759  -1.02366
O    -0.12555  -1.37301  -1.17104
C    -1.64569  -0.68048   0.40415
C    -2.95312  -0.31375   1.02427
H    -0.71526   4.05788   0.46214
H    -2.01364   3.50396   1.54132
H    -2.43918   4.33930   0.01586
H    -0.73895   1.74317   2.05679
H     2.57024  -1.12291   1.91499
H     4.55227  -1.61193   0.48745
H     4.90279  -0.33747  -1.63647
H     3.25996   1.42083  -2.29799
H     1.27012   1.86746  -0.90743
H    -0.54573  -1.48574   2.13701
H     1.13221  -2.43676   0.14364
H    -0.80618  -4.34403   0.09677
H    -2.87843  -3.18485  -1.24832
H    -2.00370  -0.66091  -1.81974
H    -3.53613  -1.23593   1.20082
H    -3.55173   0.33817   0.37313
H    -2.80952   0.17917   1.99824
