14
Generated by autodE on: 2022-06-19. E = -270.683224 Ha
C    -0.38600   1.34554   0.75296
C    -0.79768   0.27883  -0.22090
C    -2.15879   0.42563  -0.82421
C    -0.00530  -0.77560  -0.55795
C     1.33134  -1.03601  -0.04489
O     1.95006  -0.35865   0.77295
H    -1.16843   2.10983   0.85917
H     0.54940   1.83173   0.43412
H    -0.17638   0.91126   1.74368
H    -2.92083   0.45878  -0.02562
H    -2.23270   1.39246  -1.35266
H    -2.40358  -0.38644  -1.52253
H    -0.38078  -1.50925  -1.27732
H     1.80715  -1.95609  -0.46328
