32
Generated by autodE on: 2022-07-27. E = -744.211466 Ha
C     4.24339  -0.01207   1.64578
N     3.52536  -0.13076   0.39134
C     2.29873   0.39892   0.23492
O     1.73733   1.04319   1.13062
C     1.68174   0.23007  -1.12403
C     2.50989   0.43187  -2.35286
N     0.37726  -0.00014  -1.21963
C    -0.26865   0.15822  -2.53940
C    -0.38852  -0.53709  -0.18185
C     0.24092  -1.43354   0.69310
N     0.73720  -2.20617   1.42439
C    -1.76098  -0.11113   0.07342
C    -2.24617   1.14661  -0.35334
C    -3.55972   1.53566  -0.08805
C    -4.42020   0.69991   0.63130
C    -3.94503  -0.53720   1.08497
C    -2.64039  -0.94010   0.80866
H     3.66089  -0.44803   2.47267
H     5.19711  -0.54619   1.55980
H     4.44618   1.04233   1.89044
H     3.92934  -0.68042  -0.35980
H     2.16421   1.30797  -2.92683
H     3.55955   0.60395  -2.09079
H     2.45488  -0.43901  -3.02810
H    -0.15895   1.18811  -2.90111
H    -1.32507  -0.10526  -2.45826
H     0.21307  -0.52734  -3.24940
H    -1.58352   1.83643  -0.87835
H    -3.90756   2.51281  -0.43281
H    -5.44527   1.01126   0.84419
H    -4.60190  -1.20002   1.65398
H    -2.28964  -1.91353   1.15937
