32
Generated by autodE on: 2022-06-19. E = -744.211469 Ha
C     4.32020   1.43719  -0.17074
N     3.53831   0.27560   0.20698
C     2.32420   0.04905  -0.32691
O     1.83117   0.79311  -1.18474
C     1.63499  -1.20736   0.12143
C     2.41085  -2.47810   0.25943
N     0.31883  -1.19726   0.30016
C    -0.38310  -2.49212   0.42290
C    -0.41711  -0.03439   0.53907
C     0.21688   1.00302   1.23728
N     0.71558   1.87634   1.84262
C    -1.75949   0.16345   0.00135
C    -2.63191   1.10751   0.59213
C    -3.90746   1.32814   0.07741
C    -4.36043   0.61035  -1.03685
C    -3.50586  -0.31861  -1.63932
C    -2.22019  -0.53191  -1.14049
H     4.57311   1.41569  -1.24239
H     3.76258   2.36578   0.02898
H     5.24842   1.44502   0.41281
H     3.88737  -0.34087   0.93344
H     3.47340  -2.30878   0.05334
H     2.31465  -2.90351   1.27343
H     2.05284  -3.24472  -0.44748
H     0.03792  -3.04040   1.27615
H    -0.25439  -3.08848  -0.48895
H    -1.44322  -2.31119   0.61109
H    -2.29947   1.66697   1.46964
H    -4.55945   2.06279   0.55676
H    -5.36327   0.78023  -1.43492
H    -3.83527  -0.87337  -2.52159
H    -1.55988  -1.23017  -1.65720
