46
Generated by autodE on: 2022-06-19. E = -1014.877400 Ha. Imaginary frequency = -286.8 cm-1
C     4.56394   0.12271   1.74082
N     3.70266   0.24579   0.58170
C     2.43113   0.67670   0.69863
O     1.98495   1.05859   1.78876
C     1.62763   0.78937  -0.57971
C     2.38284   1.57547  -1.63071
N     0.29054   1.15666  -0.38859
C    -0.28706   2.16136  -1.28845
C    -0.56188   0.37435   0.32563
C    -0.09127  -0.47609   1.37799
N     0.12773  -1.22366   2.24489
C    -2.03094   0.60924   0.40243
C    -2.85162   0.59435  -0.74106
C    -4.22905   0.77880  -0.62483
C    -4.81361   0.97289   0.63059
C    -4.01005   0.97559   1.77431
C    -2.63190   0.78912   1.66237
C    -0.11201  -1.38296  -1.33690
C    -0.85583  -2.37269  -0.61391
O    -2.06566  -2.59322  -0.77178
C     1.30146  -1.28260  -1.41438
C     2.15042  -2.22081  -0.57820
C     1.85688  -1.06587  -2.80697
H     4.14900  -0.58523   2.47711
H     5.54599  -0.24103   1.41450
H     4.69511   1.09358   2.24352
H     4.02876  -0.11659  -0.30602
H     2.58809   2.60440  -1.28801
H     3.35273   1.10416  -1.82441
H     1.85015   1.62800  -2.58568
H    -1.22557   2.53008  -0.86736
H     0.40444   3.00459  -1.37641
H    -0.47794   1.74021  -2.28622
H    -2.41506   0.42635  -1.72421
H    -4.85063   0.76199  -1.52280
H    -5.89326   1.11483   0.71729
H    -4.45627   1.12412   2.76013
H    -2.01214   0.79120   2.56102
H    -0.69023  -0.85593  -2.10179
H    -0.28949  -2.97683   0.12781
H     3.21724  -1.98746  -0.68238
H     1.89567  -2.20353   0.48841
H     2.01765  -3.25452  -0.94138
H     1.83056  -2.03212  -3.34186
H     2.90448  -0.73627  -2.79765
H     1.25994  -0.35049  -3.38936
