45
Generated by autodE on: 2022-05-31. E = -1221.261779 Ha
C    -3.89928   3.47283   0.85546
N    -3.29105   2.31340   0.23630
C    -2.00583   2.27768  -0.14253
O    -1.24165   3.24734  -0.09094
C    -1.54382   0.93592  -0.76020
C    -1.68883   1.07463  -2.27472
O    -2.39067  -0.13720  -0.34051
C    -1.85299  -0.81093   0.80223
C    -2.40250  -0.23353   2.10821
C    -2.22653  -2.29959   0.70637
C    -2.77166  -2.80990  -0.59170
O    -2.04226  -3.01935   1.67325
C    -0.31348  -0.60272   0.72806
C     0.51514  -1.71233   0.00268
O     0.32819  -1.40396  -1.37678
C     0.81628  -0.05704  -1.31730
C     2.15918  -0.25000  -0.63016
C     3.28221   0.69347  -0.75584
O     3.18324   1.75538  -1.34255
O     4.39010   0.26202  -0.15621
C     5.53412   1.12958  -0.20147
C     1.98065  -1.30040   0.20144
C     2.84994  -1.84040   1.17738
N     3.52535  -2.32502   1.99221
C    -0.12205   0.58837  -0.25590
H    -4.98573   3.44359   0.69926
H    -3.49851   4.39001   0.40345
H    -3.70165   3.50819   1.94060
H    -3.78794   1.42760   0.23514
H    -1.05362   1.89130  -2.64461
H    -1.40867   0.13829  -2.77492
H    -2.73420   1.30446  -2.52567
H    -2.05002   0.79595   2.26048
H    -2.05499  -0.84777   2.94954
H    -3.50251  -0.23814   2.09617
H    -3.71061  -2.28801  -0.83347
H    -2.94152  -3.89205  -0.52404
H    -2.06695  -2.57761  -1.40485
H     0.08628  -0.42148   1.73123
H     0.27428  -2.75380   0.23248
H     0.84618   0.41529  -2.30155
H     5.30654   2.08566   0.29130
H     5.83122   1.31421  -1.24369
H     6.33090   0.60312   0.33554
H     0.34818   1.47033   0.18897
