25
Generated by autodE on: 2022-05-31. E = -593.347508 Ha
C     0.39942   2.40986  -2.74940
N     0.24770   1.40732  -1.71685
C     0.11564   0.09801  -2.02295
O     0.12041  -0.31107  -3.19690
C    -0.03534  -0.85038  -0.89570
C    -0.18370  -2.30767  -1.14219
O    -0.03999  -0.28681   0.27390
C    -0.14021  -0.67933   1.53883
C    -0.26429  -2.10271   1.95982
C    -0.10103   0.41432   2.47745
C     0.03508   1.82745   1.94519
O    -0.17982   0.20689   3.70203
H     0.50240   3.39338  -2.27509
H     1.29257   2.21963  -3.36649
H    -0.47327   2.43180  -3.42250
H     0.23907   1.69305  -0.74528
H    -1.15179  -2.68548  -0.77823
H     0.61299  -2.89167  -0.65769
H    -0.13032  -2.47447  -2.22397
H     0.61083  -2.70410   1.66866
H    -0.33450  -2.11112   3.05454
H    -1.16486  -2.58859   1.55537
H     0.97431   1.94952   1.38254
H     0.03264   2.52430   2.79309
H    -0.79594   2.07909   1.26791
