25
Generated by autodE on: 2022-07-27. E = -593.338063 Ha
C    -1.62898   3.05952   0.68020
N    -1.11075   1.84354   0.08380
C     0.09315   1.81586  -0.52140
O     0.77500   2.83501  -0.70695
C     0.52340   0.52196  -1.11433
C     1.17879   0.53374  -2.44747
O     0.34755  -0.64614  -0.57933
C     0.09372  -1.08479   0.66337
C     0.17933  -0.19462   1.84399
C    -0.07058  -2.50788   0.74430
C    -0.02160  -3.31652  -0.53660
O    -0.26731  -3.06700   1.84150
H    -2.59638   2.83958   1.14721
H    -0.94031   3.44509   1.44863
H    -1.76896   3.84789  -0.07662
H    -1.65954   0.99277   0.15232
H     2.20919   0.92400  -2.35979
H     0.64564   1.19206  -3.15174
H     1.22870  -0.48607  -2.85249
H     0.37302  -0.82328   2.72355
H     1.00742   0.52781   1.72089
H    -0.72910   0.39782   2.04729
H     0.87726  -3.08540  -1.12828
H    -0.03075  -4.38387  -0.27912
H    -0.89408  -3.09364  -1.17206
