20
Generated by autodE on: 2022-05-31. E = -627.786338 Ha
C    -3.64034  -0.94359  -0.28342
O    -2.24741  -0.78721  -0.59469
C    -1.54263   0.02684   0.19478
O    -2.00650   0.63661   1.14028
C    -0.13259   0.08760  -0.22058
C     0.89061   0.68425   0.42572
C     0.88790   1.41189   1.63437
N     0.93882   2.02227   2.62527
C     2.15273   0.32000  -0.41781
C     2.38265  -1.19328  -0.22137
C     1.36554  -1.78020  -0.85746
C     0.52790  -0.61545  -1.42866
O     1.56224   0.34001  -1.72124
H    -3.76122  -1.35015   0.73098
H    -4.15733   0.02423  -0.35391
H    -4.03833  -1.64425  -1.02585
H     3.00845   0.99476  -0.32298
H     3.18746  -1.62851   0.36910
H     1.10003  -2.83347  -0.93500
H    -0.11781  -0.81628  -2.28784
