45
Generated by autodE on: 2022-05-31. E = -1221.137183 Ha. Imaginary frequency = -43.9 cm-1
C    -4.28911   3.50493   0.86320
N    -3.84141   2.32308   0.15092
C    -2.58911   2.22506  -0.33337
O    -1.80958   3.18652  -0.38454
C    -2.22183   0.90705  -0.94195
C    -1.86391   0.88128  -2.38557
O    -2.45964  -0.24414  -0.38753
C    -2.56550  -0.67043   0.87330
C    -2.77277   0.23639   2.03139
C    -2.55111  -2.10655   0.99228
C    -2.45065  -2.93745  -0.26958
O    -2.61468  -2.65223   2.10939
C     0.17980  -0.28587   1.07323
C     0.78116  -1.51752   0.37328
O     0.45699  -1.24549  -0.99491
C     1.02543   0.07587  -1.02286
C     2.46381  -0.26081  -0.57584
C     3.64920   0.50050  -0.99516
O     3.58172   1.49609  -1.69303
O     4.78692  -0.01476  -0.52811
C     6.00054   0.66847  -0.87650
C     2.32213  -1.27222   0.30793
C     3.28573  -1.94007   1.09203
N     4.04061  -2.52599   1.75837
C     0.32225   0.72059   0.18886
H    -4.14854   4.40668   0.24940
H    -5.35475   3.39569   1.09748
H    -3.72801   3.63875   1.80334
H    -4.43236   1.49778   0.16009
H    -1.11742   1.66150  -2.59494
H    -2.74786   1.10453  -3.01185
H    -1.46260  -0.09922  -2.67030
H    -2.54666  -0.33307   2.94202
H    -2.11749   1.11985   1.99478
H    -3.81203   0.59957   2.11101
H    -1.60202  -2.62483  -0.89354
H    -2.33812  -3.99255   0.01227
H    -3.36201  -2.82237  -0.87865
H    -0.11044  -0.26020   2.11995
H     0.46063  -2.51083   0.70058
H     0.92991   0.55944  -1.99803
H     5.98096   1.69996  -0.49643
H     6.13155   0.68209  -1.96811
H     6.81010   0.10250  -0.40227
H     0.15761   1.78832   0.31004
