26
Generated by autodE on: 2022-06-22. E = -648.492762 Ha
C     2.94520  -1.30729   1.40735
O     1.71347  -0.88565   0.81986
C     1.57863   0.44679   0.59294
O     2.47932   1.23250   0.87265
C     0.28301   0.73187   0.01077
C    -0.69104  -0.36505  -0.24014
C    -1.53635  -0.81583   0.78684
C    -2.45298  -1.84311   0.54983
C    -2.53837  -2.42720  -0.71811
C    -1.70429  -1.98148  -1.74863
C    -0.78620  -0.95557  -1.51154
N    -0.10722   1.99115  -0.31781
C     0.79631   3.14762  -0.12624
N    -1.25117   2.31708  -0.81136
H     2.86921  -2.39564   1.52072
H     3.79804  -1.05652   0.75864
H     3.09382  -0.83747   2.39132
H    -1.46513  -0.35800   1.77618
H    -3.10222  -2.18936   1.35751
H    -3.25507  -3.23091  -0.90309
H    -1.76667  -2.43661  -2.73992
H    -0.13149  -0.60652  -2.31364
H     1.03849   3.25165   0.93630
H     0.25410   4.02285  -0.49340
H     1.72126   2.98956  -0.68957
H    -1.80291   1.45308  -0.89622
