34
Generated by autodE on: 2022-10-21. E = -878.429935 Ha
C     3.06516  -1.95867   0.67249
O     3.19683  -0.52893   0.66502
C     2.34798   0.17302  -0.05745
C     1.32259  -0.14863  -0.90144
C     0.76297  -1.38498  -1.27151
N     0.25281  -2.37764  -1.61527
C     0.68941   1.21363  -1.22874
O     1.83567   2.07254  -1.22212
C     2.32430   1.68902   0.06829
C     1.11479   2.07826   0.98119
C     0.86351   1.25087   2.25440
N    -0.28910   0.38609   2.00046
C    -0.79435   0.64409   0.84775
C    -1.94965  -0.09250   0.29760
C    -2.55183   0.31484  -0.90572
C    -3.61734  -0.40854  -1.44762
C    -4.09205  -1.55067  -0.79824
C    -3.49860  -1.96532   0.40126
C    -2.43834  -1.24347   0.94396
C    -0.07250   1.71178   0.05232
H     3.85190  -2.33591   1.33564
H     3.20591  -2.35870  -0.34229
H     2.07579  -2.24152   1.06071
H     0.14023   1.27740  -2.17269
H     3.28278   2.16116   0.30838
H     1.17615   3.15437   1.18115
H     1.72781   0.63585   2.55067
H     0.64129   1.89748   3.11782
H    -2.19353   1.20453  -1.42542
H    -4.07550  -0.07855  -2.38275
H    -4.92111  -2.11991  -1.22523
H    -3.86357  -2.86031   0.91069
H    -1.96552  -1.56789   1.87146
H    -0.72102   2.55928  -0.20811
