18
Generated by autodE on: 2022-10-21. E = -514.386968 Ha
C    -2.67319  -0.66529  -0.70262
O    -1.54803  -1.32737  -0.10331
C    -0.48065  -0.61374   0.17495
C    -0.13296   0.69734   0.02951
C    -0.80328   1.80348  -0.50961
N    -1.31707   2.76008  -0.94369
C     1.35260   0.71470   0.51583
C     2.18684  -0.06274  -0.52144
C     1.81515  -1.33903  -0.38075
C     0.76886  -1.31487   0.75114
O     1.27536  -0.25537   1.57464
H    -3.44218  -1.43343  -0.84261
H    -2.38533  -0.23685  -1.67387
H    -3.04683   0.12458  -0.03454
H     1.72912   1.68333   0.85891
H     2.86997   0.38825  -1.24036
H     2.09982  -2.22162  -0.95168
H     0.57621  -2.23958   1.30484
