34
Generated by autodE on: 2022-10-21. E = -878.292075 Ha. Imaginary frequency = -228.8 cm-1
C     3.12405  -1.75781   0.71941
O     3.28296  -0.33318   0.70210
C     2.46519   0.37422  -0.05721
C     1.46592   0.06064  -0.93249
C     0.89581  -1.16078  -1.31584
N     0.38981  -2.15142  -1.67753
C     0.92503   1.45457  -1.35819
O     2.16617   2.19701  -1.38059
C     2.50473   1.90600  -0.00535
C     1.23422   2.37819   0.72344
C     0.73309   0.50146   2.59898
N    -0.22475   0.12125   1.81235
C    -0.90018   0.20643   0.79951
C    -2.12887  -0.41548   0.34536
C    -2.56715  -0.15961  -0.96713
C    -3.74087  -0.74462  -1.44245
C    -4.48740  -1.58586  -0.61088
C    -4.06055  -1.84478   0.69823
C    -2.88759  -1.26539   1.17703
C     0.21644   2.09690  -0.14298
H     3.87237  -2.14385   1.42129
H     3.30299  -2.17308  -0.28369
H     2.11403  -2.02512   1.06296
H     0.40470   1.48780  -2.32082
H     3.46164   2.34181   0.30139
H     1.23843   3.01168   1.60594
H     1.61480  -0.13417   2.71529
H     0.51582   1.25651   3.36063
H    -1.97262   0.49527  -1.60654
H    -4.07487  -0.54594  -2.46306
H    -5.40700  -2.04350  -0.98316
H    -4.64621  -2.50271   1.34429
H    -2.54600  -1.46394   2.19497
H    -0.77545   2.54086  -0.18684
