48
Generated by autodE on: 2022-06-29. E = -1185.619029 Ha
C    -1.53741   4.58138   0.35930
N    -0.84419   3.31109   0.42646
C    -1.40480   2.21325   0.94551
O    -2.52129   2.18817   1.47938
C    -0.57195   0.93861   0.87069
O     0.68011   1.18731   0.26393
C     1.22949   0.01156  -0.33878
C     1.74118   0.40266  -1.72949
C     2.47377  -0.44852   0.45378
O     3.03873  -1.51401   0.17715
N     2.93946   0.42609   1.35051
C     4.09514   0.13849   2.17527
C     0.05627  -1.05467  -0.31487
C    -0.13060  -1.81445  -1.63771
C     0.99855  -2.64455  -2.18647
O    -1.20260  -1.76932  -2.21608
C     0.24998  -2.06055   0.86072
C    -0.14767  -3.49345   0.67337
O     0.67094  -1.65215   1.92618
C    -1.23521  -0.20661   0.05477
C    -2.27575  -0.95885   0.89219
C    -1.87954   0.42272  -1.21683
C    -3.35279   0.24289  -1.46423
O    -1.22725   1.17584  -1.92082
H    -0.80440   5.39060   0.24748
H    -2.11185   4.74341   1.28138
H    -2.23689   4.61907  -0.49308
H     0.02751   3.18238  -0.07856
H    -0.43680   0.58911   1.90799
H     2.36769  -0.38633  -2.15881
H     2.36188   1.30332  -1.61439
H     0.90829   0.63317  -2.40130
H     2.35669   1.23442   1.54571
H     3.87599  -0.64930   2.91553
H     4.39297   1.05035   2.70728
H     4.93594  -0.20315   1.55421
H     0.63245  -3.67146  -2.33533
H     1.88543  -2.64098  -1.54452
H     1.25937  -2.24770  -3.17989
H    -1.02964  -3.60416   0.02797
H    -0.32521  -3.95263   1.65435
H     0.69127  -4.02016   0.18924
H    -2.65983  -1.83726   0.35800
H    -1.85705  -1.28856   1.85110
H    -3.11539  -0.29512   1.12634
H    -3.67638  -0.79985  -1.36637
H    -3.90300   0.83764  -0.71644
H    -3.59064   0.62628  -2.46481
