24
Generated by autodE on: 2022-06-29. E = -576.119932 Ha
C     3.34186  -0.14840   0.56334
C     1.88754   0.21089   0.65154
O     1.49075   1.09010   1.40974
C     0.91488  -0.53372  -0.21367
C     1.40997  -1.67869  -1.05196
C    -0.37023  -0.12485  -0.19212
C    -0.91209   1.02477   0.62997
C    -0.79418   2.38732   0.01149
O    -1.57356   0.79093   1.62940
C    -1.45290  -0.79057  -1.01051
C    -2.11926  -1.96850  -0.37133
O    -1.76496  -0.32933  -2.09387
H     3.70270  -0.02590  -0.47041
H     3.92477   0.48586   1.24271
H     3.48575  -1.20895   0.82515
H     0.61211  -2.12653  -1.65826
H     2.20141  -1.33996  -1.73895
H     1.84987  -2.46768  -0.42155
H    -1.11358   3.15993   0.72431
H     0.22607   2.57931  -0.34643
H    -1.46075   2.40275  -0.86896
H    -2.93529  -2.34561  -1.00232
H    -1.37145  -2.75782  -0.19104
H    -2.49860  -1.66116   0.61745
