31
Generated by autodE on: 2022-06-09. E = -817.571839 Ha
C     4.69786  -2.04436   0.35273
N     3.69574  -1.01702   0.56153
C     2.41402  -1.21150   0.21981
O     2.00420  -2.26898  -0.28754
C     1.45846  -0.08526   0.47181
C     1.78903   1.13496   1.24644
N     0.25744  -0.36879   0.02983
C    -0.91019   0.35328  -0.03886
C    -0.86487   1.79594  -0.32295
O     0.17446   2.35026  -0.72809
N    -2.02081   2.48727  -0.16207
C    -2.14280   3.84475  -0.64958
C    -2.12544  -0.42367  -0.11270
O    -3.27124   0.02720  -0.17277
O    -1.89504  -1.76022  -0.09511
C    -3.03635  -2.61526  -0.20076
H     4.77102  -2.31567  -0.71233
H     4.45311  -2.95651   0.91903
H     5.66892  -1.66508   0.69159
H     3.98400  -0.12398   0.94539
H     0.89171   1.49458   1.77216
H     2.13736   1.95734   0.60322
H     2.56545   0.91302   1.99242
H     0.19511  -1.34768  -0.29434
H    -2.86005   1.92734  -0.01981
H    -2.04788   3.90893  -1.74825
H    -1.36593   4.48857  -0.21125
H    -3.12554   4.23968  -0.36171
H    -2.65083  -3.64078  -0.15460
H    -3.56081  -2.45353  -1.15431
H    -3.73418  -2.43778   0.63068
