30
Generated by autodE on: 2022-06-09. E = -1462.564580 Ha
Cl   -2.84099   0.54804  -1.22703
C    -1.52808   1.71941  -0.69880
Cl   -1.55886   3.12814  -1.85901
C    -0.25883   1.03387  -0.70572
C     0.63979   0.41377  -0.17647
C     1.45668  -0.22386   0.84704
C     2.02063  -1.58323   0.47784
C     1.30612  -2.46552  -0.34529
C     1.80998  -3.73809  -0.62707
C     3.03373  -4.14553  -0.08543
C     3.74989  -3.27213   0.73913
C     3.24491  -1.99885   1.01851
C     0.53157  -0.31286   2.10471
C    -0.24748   0.96773   2.47094
C    -1.65731   1.17778   1.84715
C    -1.82275   2.22163   0.72466
H     2.29539   0.45037   1.08842
H     0.34965  -2.15037  -0.77047
H     1.24499  -4.41401  -1.27368
H     3.42885  -5.13971  -0.30740
H     4.70792  -3.58143   1.16412
H     3.80701  -1.31590   1.66111
H     1.17856  -0.60628   2.94618
H    -0.17646  -1.14263   1.94564
H    -0.38806   0.93553   3.56240
H     0.38349   1.85368   2.28377
H    -2.32319   1.51695   2.65504
H    -2.07243   0.21283   1.51254
H    -1.14388   3.07069   0.90183
H    -2.84861   2.61908   0.72044
