20
Generated by autodE on: 2022-06-30. E = -548.990073 Ha
C    -0.24410   2.96791   0.00133
N    -0.14893   1.78715  -0.08524
C     0.02721   0.48980  -0.04590
C     1.44943   0.05010  -0.05989
O     2.36929   0.88406  -0.08965
N     1.66174  -1.27784  -0.03750
C     2.99832  -1.83072  -0.03772
C    -1.14867  -0.40248   0.03799
O    -1.02662  -1.64403   0.05916
N    -2.36573   0.17726   0.09263
C    -3.57388  -0.61796   0.18722
H    -0.35015   3.80801  -0.69176
H     0.82941  -1.87013  -0.00210
H     2.92936  -2.92571  -0.03264
H     3.57159  -1.51130   0.84838
H     3.56500  -1.51885  -0.93031
H    -2.45002   1.18717   0.08642
H    -4.43877   0.05630   0.19454
H    -3.66850  -1.30541  -0.66818
H    -3.58904  -1.22240   1.10849
