20
Generated by autodE on: 2022-06-19. E = -457.715333 Ha
C     3.13052  -0.22688  -0.50470
N     1.73013  -0.53572  -0.26728
C     1.35204  -1.85704   0.00244
C     0.08771  -2.20453   0.28989
C    -1.04640  -1.21139   0.35151
C    -0.53912   0.19286   0.06690
C    -1.44847   1.34955   0.07898
N    -2.74834   1.08192   0.36254
O    -1.07966   2.51913  -0.15266
C     0.77339   0.43252  -0.21220
H     3.74237  -0.42357   0.39164
H     3.52822  -0.83301  -1.33387
H     3.22847   0.83325  -0.76940
H     2.16442  -2.58491  -0.04044
H    -0.13038  -3.25698   0.48518
H    -1.84257  -1.49767  -0.36624
H    -1.54069  -1.25991   1.34336
H    -3.08672   0.14726   0.55253
H    -3.40935   1.85068   0.38039
H     1.11135   1.45073  -0.41142
