20
Generated by autodE on: 2022-06-19. E = -661.125192 Ha
C     3.63548   1.46198   0.75121
N     2.21649   1.35299   0.48314
C     1.63010   0.15698   0.30666
O     2.24099  -0.91928   0.35678
C     0.16243   0.17813   0.03996
N    -0.39519  -0.99465  -0.13284
C    -0.84077  -2.07200  -0.28060
C    -1.37155  -3.30768  -0.45398
N    -1.83083  -4.37475  -0.60421
C    -0.68539   1.37011  -0.04190
O    -0.27648   2.51525   0.09708
O    -1.96534   1.07020  -0.28667
C    -2.87997   2.17163  -0.38641
H     4.23471   1.04507  -0.07436
H     3.89170   2.52158   0.87164
H     3.91277   0.92400   1.67197
H     1.62832   2.18262   0.42204
H    -3.86266   1.72714  -0.58106
H    -2.89971   2.74202   0.55331
H    -2.59279   2.83663  -1.21359
