21
Generated by autodE on: 2022-06-13. E = -864.050915 Ha
N    -0.08728   1.30985  -3.28096
C    -0.18139   0.98029  -2.17307
C    -0.30403   0.52783  -0.78276
Cl   -1.48862   1.73100   0.00963
C     0.94885   0.53310  -0.05010
C     1.73218   0.07949   0.75850
C     2.33590  -0.81585   1.73063
C     1.20463  -1.74085   2.24901
C     0.29283  -2.35744   1.16639
C    -0.94121  -1.53910   0.68705
C    -0.90874  -0.90106  -0.71412
H     3.12224  -1.41079   1.23549
H     2.81606  -0.27696   2.56241
H     1.68436  -2.55012   2.82208
H     0.58417  -1.17470   2.96338
H     0.90271  -2.66040   0.29736
H    -0.09660  -3.29561   1.59093
H    -1.20109  -0.76870   1.43153
H    -1.80065  -2.22606   0.66852
H    -0.31167  -1.52295  -1.40112
H    -1.92379  -0.83762  -1.13304
