47
Generated by autodE on: 2022-06-13. E = -1496.268930 Ha. Imaginary frequency = -363.0 cm-1
N    -0.13509  -1.40433   3.67594
C    -0.90950  -0.90931   2.96805
C    -1.86418  -0.22510   2.08130
Cl   -3.36730  -1.32958   2.04890
C    -2.30474   1.12806   2.67681
C    -1.19347   2.18823   2.80703
C    -1.08419   3.25842   1.69896
C    -0.13073   3.01766   0.51989
C    -0.62457   2.07827  -0.59357
C    -0.82224   0.70286  -0.11232
C    -1.28722  -0.07579   0.74808
O    -0.74170  -1.92172   0.34288
N    -0.30808  -1.80042  -0.87565
C     0.55625  -0.81934  -1.19627
C     1.69433  -0.48726  -0.30483
C     2.44570   0.68109  -0.53761
C     3.50118   1.03106   0.30454
C     3.83985   0.21404   1.38764
C     3.11586  -0.96086   1.61406
C     2.05365  -1.30999   0.77987
C     0.61496  -0.48531  -2.64352
C    -0.56172  -0.12324  -3.32340
C    -0.53443   0.15138  -4.69163
C     0.66984   0.07324  -5.39768
C     1.84608  -0.28366  -4.72973
C     1.82129  -0.55984  -3.36215
H    -2.73648   0.91181   3.66464
H    -3.12061   1.49938   2.03915
H    -0.21462   1.70099   2.95783
H    -1.39941   2.72136   3.74752
H    -0.73633   4.18166   2.19005
H    -2.09411   3.48984   1.31554
H     0.07858   3.99164   0.04677
H     0.83544   2.64395   0.89874
H    -1.58867   2.44884  -0.98475
H     0.07923   2.11306  -1.43988
H    -0.98231  -2.04938  -1.60878
H     2.19471   1.32907  -1.37695
H     4.06215   1.94826   0.11119
H     4.66573   0.48855   2.04793
H     3.37526  -1.61187   2.45215
H     1.48964  -2.21896   0.97854
H    -1.49710  -0.03536  -2.76650
H    -1.45471   0.43837  -5.20521
H     0.69326   0.29451  -6.46725
H     2.78840  -0.35193  -5.27796
H     2.73987  -0.84926  -2.84978
