46
Generated by autodE on: 2022-10-21. E = -997.853462 Ha
C    -2.30164   3.22945   2.08279
O    -1.81868   1.92640   1.79337
C    -0.75071   1.81586   0.85605
O    -1.15266   2.36719  -0.37960
C    -2.30590   1.78629  -0.97584
C     0.45436   2.63159   1.34336
C     1.75897   2.59976   0.54310
C     2.56878   1.29095   0.62121
C     2.60163   0.39891  -0.61873
C     1.22529  -0.12239  -1.17655
C     0.62432   0.83970  -2.23284
C     1.54747  -1.33636  -1.95481
N     1.83214  -2.24190  -2.62282
C     0.27370  -0.46793  -0.03676
C    -0.49286   0.31016   0.77532
C    -1.16099  -0.61856   1.70456
N    -0.86269  -1.86061   1.54425
C     0.08539  -1.90647   0.42140
C     1.38864  -2.55544   0.90750
C    -0.68671  -2.72426  -0.65567
C    -0.51762  -4.21216  -0.65391
O    -1.43281  -2.15398  -1.43119
H    -1.67158   3.74947   2.82362
H    -2.37545   3.84932   1.17561
H    -3.30821   3.10440   2.50708
H    -2.20636   0.69442  -1.08254
H    -2.40634   2.23511  -1.97313
H    -3.21381   2.00319  -0.39005
H     0.11499   3.67655   1.39518
H     0.65238   2.30709   2.37741
H     2.37871   3.41176   0.95376
H     1.57195   2.88320  -0.50360
H     3.62222   1.53832   0.82793
H     2.23253   0.70031   1.48833
H     3.22361  -0.47530  -0.37720
H     3.09937   0.92003  -1.45163
H    -0.30071   0.41662  -2.64741
H     0.39355   1.80896  -1.78817
H     1.34903   0.97383  -3.04837
H    -1.85363  -0.29465   2.48286
H     2.11291  -2.68884   0.09471
H     1.18071  -3.53672   1.35232
H     1.83950  -1.91586   1.67987
H    -1.22947  -4.66670  -1.35467
H    -0.66358  -4.61525   0.35941
H     0.51124  -4.46083  -0.95924
