14
Generated by autodE on: 2022-10-21. E = -324.799912 Ha
C     2.38897  -0.47293   0.72245
N     1.41329   0.01250   0.20853
C     0.26351   0.47699  -0.17405
C     0.14553   1.85925  -0.75281
C    -0.87996  -0.42851   0.02128
C    -2.22767   0.08768  -0.41266
O    -0.73973  -1.54751   0.52083
H     3.14566  -1.09347   0.22051
H     1.12977   2.34529  -0.78946
H    -0.26326   1.83029  -1.77567
H    -0.52842   2.48736  -0.14768
H    -2.21611   0.34651  -1.48364
H    -2.48298   1.00926   0.13526
H    -2.99263  -0.67681  -0.22486
