32
Generated by autodE on: 2022-10-21. E = -672.916391 Ha
C    -1.80037   3.17703  -0.75691
O    -0.64136   2.36053  -0.62736
C    -0.78269   1.00911  -1.02556
O    -1.07604   0.90500  -2.39678
C    -0.11513   1.49087  -3.26446
C     0.48271   0.34693  -0.63335
C     1.17702  -0.34400   0.07898
C     1.58286  -1.20085   1.19878
C     2.97299  -0.85908   1.77104
C     1.57805  -2.60557   0.74422
N     1.57251  -3.71756   0.41252
C     0.46553  -1.01486   2.28271
C    -0.99236  -1.13860   1.80073
C    -1.70604   0.12819   1.24866
C    -1.90114   0.25521  -0.27450
H    -1.45705   4.21928  -0.69839
H    -2.52222   2.99619   0.05685
H    -2.30090   3.02146  -1.72548
H    -0.06509   2.58462  -3.14074
H     0.88998   1.06847  -3.08610
H    -0.42599   1.25644  -4.29139
H     2.97899   0.19227   2.09092
H     3.75520  -1.00681   1.01339
H     3.18792  -1.49900   2.63871
H     0.63272  -0.02297   2.73057
H     0.66335  -1.76129   3.06774
H    -1.56558  -1.47240   2.67901
H    -1.07393  -1.96378   1.07180
H    -1.20671   1.03559   1.62769
H    -2.71392   0.14416   1.68995
H    -2.84491   0.77671  -0.49329
H    -1.97976  -0.73940  -0.73852
