52
Generated by autodE on: 2022-06-28. E = -1341.862654 Ha
C    -0.39081   5.38298   0.18410
O    -0.46257   4.14735   0.90970
C    -1.16647   3.16259   0.34876
O    -1.84308   3.29329  -0.64854
C    -1.07515   1.89646   1.18571
O    -2.04457   0.97023   0.74927
C    -1.58323  -0.39187   0.82820
C    -2.64904  -1.18529   1.58098
C    -1.42229  -0.94712  -0.58986
C    -1.41327  -0.09804  -1.70381
C    -1.18936  -0.60737  -2.98758
C    -0.99288  -1.97625  -3.17961
C    -1.03649  -2.83542  -2.07646
C    -1.25023  -2.32556  -0.79495
C    -0.19003  -0.27331   1.60522
C    -0.38927  -0.36119   3.12452
C     0.80446  -1.36701   1.21297
O     0.88834  -2.39790   1.87048
C     1.67850  -1.18161   0.03807
O     2.56610  -2.16308  -0.25691
C     2.09912  -3.46415  -0.64098
C     1.68822  -0.01035  -0.67125
O     2.35641   0.23566  -1.80052
C     2.69073  -0.81767  -2.71339
C     0.92196   1.17477  -0.20898
O     0.90394   2.18519  -0.89349
C     0.28143   1.14989   1.17684
C     1.32067   1.79392   2.11204
H     0.22408   6.05612   0.79229
H    -1.39472   5.80769   0.04273
H     0.08117   5.21771  -0.79550
H    -1.27810   2.20766   2.22486
H    -3.55920  -1.23306   0.96574
H    -2.31692  -2.21105   1.78843
H    -2.89871  -0.69669   2.53047
H    -1.58212   0.96832  -1.56842
H    -1.17134   0.07490  -3.84075
H    -0.81532  -2.37402  -4.18132
H    -0.89633  -3.91008  -2.21222
H    -1.26095  -3.01123   0.05270
H     0.57161  -0.24478   3.64234
H    -1.07567   0.41459   3.48708
H    -0.79300  -1.34001   3.40297
H     2.97622  -4.12312  -0.60605
H     1.32965  -3.83926   0.04392
H     1.70365  -3.43413  -1.66755
H     2.92032  -0.31914  -3.66385
H     1.83147  -1.49072  -2.85016
H     3.56428  -1.38431  -2.36794
H     2.21159   1.15508   2.19637
H     1.62694   2.76831   1.70997
H     0.90015   1.95217   3.11306
