26
Generated by autodE on: 2022-06-28. E = -652.320020 Ha
C     3.83879   1.67059  -0.26976
O     2.67954   0.84256  -0.20432
C     2.89961  -0.50641  -0.27547
O     4.03929  -0.97155  -0.39031
C     1.72115  -1.29037  -0.20482
O     0.54752  -0.64417  -0.07768
C    -0.64584  -1.13740   0.00921
C    -0.79912  -2.60694  -0.03053
C    -1.70628  -0.15491   0.14225
C    -3.06095  -0.54408   0.23070
C    -4.06547   0.41427   0.35935
C    -3.74510   1.77456   0.40275
C    -2.40420   2.17396   0.31518
C    -1.39516   1.22655   0.18633
H     4.53050   1.45637   0.55972
H     4.37445   1.53386  -1.22205
H     3.48030   2.70495  -0.19354
H     1.74508  -2.37552  -0.24942
H    -0.37565  -3.00126  -0.97284
H    -1.84090  -2.92820   0.05539
H    -0.21298  -3.06348   0.78877
H    -3.33448  -1.59863   0.19762
H    -5.10767   0.09437   0.42619
H    -4.53504   2.52206   0.50440
H    -2.14671   3.23503   0.34851
H    -0.35322   1.54108   0.11900
