52
Generated by autodE on: 2022-06-28. E = -1341.803507 Ha. Imaginary frequency = -215.1 cm-1
C     0.32178   4.03391  -2.05828
O    -0.33520   2.96026  -1.37084
C    -0.57154   3.14539  -0.06373
O    -0.32351   4.18567   0.52961
C    -1.08448   1.96722   0.61973
O    -1.43050   0.93406  -0.15401
C    -1.90623  -0.20791   0.31641
C    -2.77447  -0.19309   1.52597
C    -1.94926  -1.27053  -0.67751
C    -1.44453  -1.04960  -1.97910
C    -1.41664  -2.08217  -2.90909
C    -1.88923  -3.35585  -2.56601
C    -2.39177  -3.58599  -1.28275
C    -2.42349  -2.55519  -0.34333
C     0.26097  -0.47849   1.64581
C    -0.22905  -1.29540   2.80879
C     0.77382  -1.23649   0.50190
O     0.65925  -2.46894   0.41978
C     1.44063  -0.50794  -0.60238
O     1.72895  -1.23853  -1.72071
C     2.95748  -1.96861  -1.66479
C     1.77380   0.80583  -0.47396
O     2.39821   1.59174  -1.36118
C     2.37855   1.29611  -2.76064
C     1.53421   1.50187   0.82807
O     2.12464   2.55543   1.06338
C     0.58959   0.88459   1.78617
C     0.45260   1.59309   3.10577
H     0.43614   3.70168  -3.09585
H    -0.28684   4.94870  -2.01848
H     1.30570   4.22434  -1.60799
H    -1.62036   2.13790   1.55087
H    -2.90468  -1.19630   1.94170
H    -3.76987   0.17890   1.21857
H    -2.39972   0.46253   2.31848
H    -1.06958  -0.06235  -2.24683
H    -1.02045  -1.89619  -3.90969
H    -1.86196  -4.16628  -3.29791
H    -2.75815  -4.57702  -1.00651
H    -2.80633  -2.75775   0.65653
H    -0.75856  -2.19277   2.46391
H    -0.88984  -0.72847   3.47405
H     0.62934  -1.63559   3.41546
H     3.04721  -2.50969  -2.61632
H     2.95203  -2.68942  -0.83309
H     3.81459  -1.28384  -1.55110
H     3.07740   0.48666  -3.01215
H     2.69602   2.22024  -3.26011
H     1.36430   1.02727  -3.08747
H     1.25235   1.27275   3.79549
H     0.53496   2.67896   2.97155
H    -0.50910   1.36862   3.58482
