43
Generated by autodE on: 2022-06-19. E = -905.180599 Ha
C     3.73704  -0.95800  -1.59804
C     3.38847  -1.09126  -0.14522
O     4.16158  -1.55606   0.68012
C     2.02968  -0.63240   0.30623
N     1.21474  -0.08516  -0.51286
C    -0.04010   0.26787   0.19092
C    -1.14515  -0.71442  -0.23445
C    -2.49260  -0.37791  -0.02500
C    -3.51474  -1.26982  -0.35389
C    -3.21047  -2.51520  -0.91404
C    -1.87493  -2.85494  -1.13932
C    -0.85149  -1.96267  -0.80048
C    -0.44507   1.67879  -0.25164
C    -0.47503   1.96807  -1.62645
C    -0.87042   3.22371  -2.08777
C    -1.25501   4.21734  -1.17968
C    -1.23677   3.93829   0.18772
C    -0.83211   2.67903   0.64854
C     0.32550   0.15021   1.71856
C    -0.79695  -0.21590   2.67840
C     1.55530  -0.79653   1.72953
C     1.28624  -2.26500   2.08784
H     3.03582  -1.55273  -2.20481
H     4.76503  -1.30342  -1.76636
H     3.62823   0.08794  -1.92235
H    -2.74694   0.59390   0.40028
H    -4.55533  -0.98754  -0.17616
H    -4.00990  -3.21180  -1.17737
H    -1.62127  -3.82077  -1.58313
H     0.18388  -2.24821  -0.98432
H    -0.18491   1.19515  -2.33945
H    -0.88164   3.42792  -3.16131
H    -1.56832   5.20080  -1.53809
H    -1.53910   4.70244   0.90792
H    -0.83366   2.48919   1.72179
H     0.71134   1.13882   2.00449
H    -1.23052  -1.20076   2.45630
H    -0.41742  -0.23801   3.71226
H    -1.61280   0.52063   2.63934
H     2.32647  -0.41808   2.41831
H     0.51818  -2.70909   1.43908
H     2.20762  -2.85631   1.98523
H     0.94595  -2.35038   3.13026
