12
Generated by autodE on: 2022-06-19. E = -157.299003 Ha
C     1.54853  -0.58787   0.28487
C     0.67351   0.61938   0.12568
C    -0.64634   0.64921  -0.11828
C    -1.57223  -0.51757  -0.29132
H     2.04394  -0.58531   1.27191
H     2.36022  -0.58487  -0.46410
H     0.99881  -1.53462   0.18445
H     1.18841   1.58373   0.22261
H    -1.11923   1.63588  -0.20379
H    -2.38337  -0.48850   0.45767
H    -2.06652  -0.48243  -1.27830
H    -1.06355  -1.48808  -0.20180
