31
Generated by autodE on: 2022-06-19. E = -747.797988 Ha
C     2.77946   3.56705   0.25235
C     1.30920   3.31681   0.06521
O     0.42660   4.08351   0.45093
C     0.95195   2.15270  -0.72785
N     0.54566   1.04484  -0.43914
C     0.01386  -0.10581  -0.20274
C     0.90180  -1.28606  -0.12010
C     2.10846  -1.30921  -0.84616
C     2.96948  -2.40230  -0.75850
C     2.64505  -3.49145   0.05824
C     1.45459  -3.47322   0.79151
C     0.58855  -2.38154   0.70662
C    -1.45575  -0.14609  -0.03254
C    -2.14898   1.00884   0.38465
C    -3.53750   0.99614   0.51073
C    -4.26211  -0.16651   0.22573
C    -3.58476  -1.31419  -0.19780
C    -2.19515  -1.30727  -0.32909
H     2.92706   4.21967   1.12422
H     3.33467   2.62443   0.37355
H     3.17371   4.07788  -0.64244
H     2.36680  -0.46388  -1.48768
H     3.89767  -2.40627  -1.33469
H     3.31921  -4.34835   0.12522
H     1.19869  -4.31303   1.44174
H    -0.32597  -2.37315   1.30054
H    -1.59306   1.92097   0.61250
H    -4.05692   1.89907   0.84009
H    -5.34932  -0.17674   0.33111
H    -4.14230  -2.22284  -0.43680
H    -1.68518  -2.20309  -0.68434
