42
Generated by autodE on: 2022-05-30. E = -991.662804 Ha
C     4.17755   0.90290   1.74847
N     2.98126   0.22891   1.28228
C     2.59391   0.26563   0.00563
O     3.23191   0.77936  -0.91500
C     1.21775  -0.37589  -0.28676
C     1.36981  -1.15094  -1.54219
N     1.45921  -1.80149  -2.49872
N     0.71025  -1.18152   0.80704
C    -0.75099  -1.28383   0.73458
C    -1.32633  -1.60870   2.11803
C    -1.12303  -2.40814  -0.17037
N    -1.38167  -3.31619  -0.84523
C    -1.19497   0.09754   0.08400
C    -2.27568  -0.13017  -0.98631
C    -3.64542  -0.54790  -0.52008
O    -2.04067   0.05694  -2.16661
C    -1.64640   1.17573   1.11908
C    -2.10046   2.43833   0.34702
C    -0.76870   3.01113  -0.21914
C     0.28903   2.02308   0.31815
C    -0.30254   1.66075   1.69266
C     0.12225   0.71662  -0.49188
H     4.46613   0.49148   2.72374
H     4.01394   1.98825   1.85553
H     4.99850   0.74730   1.03522
H     2.32334  -0.16562   1.94969
H     1.16749  -2.08896   0.90130
H    -0.92125  -2.57185   2.46128
H    -1.03708  -0.83249   2.83563
H    -2.42126  -1.68474   2.08412
H    -4.23130  -0.90762  -1.37559
H    -4.15010   0.33133  -0.08724
H    -3.61191  -1.31253   0.26735
H    -2.38977   0.80713   1.83440
H    -2.84193   2.23481  -0.43723
H    -2.56772   3.13832   1.05428
H    -0.57373   4.02285   0.16458
H    -0.76176   3.06160  -1.31758
H     1.30902   2.42584   0.30360
H     0.26038   0.89128   2.23277
H    -0.42414   2.53852   2.34516
H     0.02873   0.93322  -1.55977
