42
Generated by autodE on: 2022-05-30. E = -991.603550 Ha. Imaginary frequency = -305.9 cm-1
C     4.61633   1.09871  -0.01387
N     3.45205   0.31900  -0.39157
C     2.55238  -0.08300   0.51657
O     2.67068   0.10597   1.73443
C     1.30885  -0.74936   0.00238
C     1.33459  -1.36888  -1.28301
N     1.39307  -1.81438  -2.35712
N     0.55658  -1.29204   1.01549
C    -0.74157  -1.64817   0.95430
C    -1.52762  -1.74156   2.22872
C    -1.19174  -2.45739  -0.13079
N    -1.61229  -3.15237  -0.96554
C    -1.28488   0.53458  -0.17372
C    -2.21335  -0.03379  -1.15413
C    -3.66060  -0.16044  -0.74695
O    -1.83405  -0.41663  -2.26491
C    -1.71728   1.43794   0.98204
C    -1.98768   2.82819   0.32404
C    -0.56599   3.28100  -0.12403
C     0.35273   2.11995   0.37758
C    -0.37568   1.73328   1.67977
C     0.01920   0.94909  -0.53432
H     5.12986   0.63038   0.83754
H     5.30510   1.14146  -0.86611
H     4.34001   2.12696   0.27260
H     3.25061   0.18932  -1.37858
H     0.88873  -0.94714   1.92390
H    -2.59474  -1.59049   2.01446
H    -1.19342  -0.97430   2.94010
H    -1.41411  -2.73594   2.69228
H    -4.10152   0.83821  -0.59599
H    -4.22197  -0.69364  -1.52523
H    -3.74598  -0.69563   0.21171
H    -2.53503   1.06234   1.60830
H    -2.69859   2.76071  -0.51140
H    -2.41000   3.51951   1.06897
H    -0.26962   4.22174   0.36330
H    -0.48417   3.42633  -1.21100
H     1.41280   2.39085   0.44971
H    -0.44672   2.57464   2.38488
H     0.06546   0.88288   2.20809
H     0.34547   0.94457  -1.57561
