19
Generated by autodE on: 2022-10-26. E = -440.340928 Ha
C     0.92065   2.14073   1.01607
C     0.75982   1.03312   0.05340
O     1.52135   1.03827  -0.99002
N     2.43528   2.03080  -1.19000
C    -0.17050  -0.08263   0.14611
C    -0.19749  -1.08521  -0.85302
C    -1.08643  -2.15135  -0.76428
C    -1.97147  -2.25018   0.31796
C    -1.95543  -1.26690   1.31132
C    -1.06744  -0.19396   1.23058
H     0.24607   2.06844   1.87396
H     0.76565   3.10090   0.49093
H     1.97055   2.16768   1.36059
H     2.83420   1.70876  -2.08157
H     0.48778  -1.01788  -1.69876
H    -1.09116  -2.91508  -1.54560
H    -2.66782  -3.08913   0.38429
H    -2.64097  -1.33327   2.15928
H    -1.07541   0.56086   2.01705
