19
Generated by autodE on: 2022-10-20. E = -440.340932 Ha
C    -1.85926  -1.66987  -0.46086
C    -1.21198  -0.36769  -0.20621
O    -1.97218   0.67606  -0.17258
N    -3.31884   0.57197  -0.36336
C     0.20580  -0.12022   0.01209
C     1.13476  -1.18305   0.02828
C     2.49201  -0.93804   0.23763
C     2.95444   0.36617   0.43537
C     2.04257   1.43045   0.42255
C     0.68746   1.19552   0.21467
H    -2.63076  -1.84713   0.31054
H    -1.15336  -2.50517  -0.48588
H    -2.41457  -1.61309  -1.41485
H    -3.57438   1.56385  -0.27121
H     0.79749  -2.20881  -0.12102
H     3.19329  -1.77560   0.24650
H     4.01788   0.55482   0.59856
H     2.39446   2.45336   0.57577
H    -0.01369   2.03083   0.20537
