36
Generated by autodE on: 2022-10-20. E = -1322.053845 Ha. Imaginary frequency = -277.6 cm-1
C     3.89646  -0.36079  -1.41255
O     2.66570  -0.97027  -1.02378
C     2.14405  -0.61912   0.16013
C     1.02421  -1.08205   0.74118
Cl   -0.07145  -2.29372   0.18383
C     0.82164  -0.21818   1.98718
O     2.21446  -0.06781   2.38532
C     2.63521   0.49053   1.11784
C     1.67052   1.69274   1.01757
N     1.28382   1.81865  -1.35119
O     0.13323   1.12162  -1.25039
C    -0.89856   1.50892  -0.54156
C    -1.12008   2.96096  -0.26987
C    -2.01421   0.55480  -0.54857
C    -2.12068  -0.42205  -1.55779
C    -3.17903  -1.32836  -1.55524
C    -4.14553  -1.28329  -0.54488
C    -4.04912  -0.31591   0.46165
C    -2.99855   0.60120   0.45777
C     0.50539   1.24181   1.56974
H     4.14672  -0.77433  -2.39798
H     4.70417  -0.60308  -0.70351
H     3.77788   0.72973  -1.49472
H     0.20514  -0.64814   2.78380
H     3.70529   0.71902   1.10282
H     2.01117   2.71625   0.88967
H     1.04302   2.79326  -1.12944
H    -0.25974   3.46693   0.18492
H    -1.33674   3.46175  -1.23325
H    -1.98815   3.10229   0.38336
H    -1.36747  -0.46290  -2.34498
H    -3.25054  -2.07667  -2.34814
H    -4.97290  -1.99672  -0.54305
H    -4.79718  -0.27579   1.25684
H    -2.92761   1.34239   1.25589
H    -0.31746   1.81844   1.98388
