51
Generated by autodE on: 2022-06-02. E = -1191.945048 Ha
C    -5.74354 -10.00673   2.71421
N    -5.07538  -8.85990   3.29983
C    -5.15260  -7.64554   2.75077
O    -5.83468  -7.41660   1.74176
C    -4.28057  -6.56207   3.43249
C    -4.81149  -5.09561   3.34055
O    -4.14825  -4.18984   3.85111
N    -5.99643  -4.90458   2.75642
C    -6.52604  -3.56926   2.55768
N    -4.23635  -6.83356   4.87165
C    -2.99202  -6.96085   5.18168
C    -2.61950  -7.30764   6.60488
C    -2.16379  -6.18517   7.48234
O    -2.78033  -8.45365   6.98478
C    -2.06651  -6.84098   4.04375
C    -2.82242  -6.61635   2.93484
C    -2.40541  -6.47227   1.47367
C    -2.63572  -7.83949   0.77960
C    -3.24665  -5.39906   0.75518
C    -0.90248  -6.13681   1.28021
C    -0.36871  -4.78634   1.77468
C    -0.52984  -4.45517   3.26048
C     0.06027  -5.47215   4.24020
C    -0.57407  -6.86866   4.20806
F    -0.28046  -7.49994   5.43613
H    -6.81479  -9.80321   2.56773
H    -5.30642 -10.26419   1.73602
H    -5.63075 -10.86293   3.38967
H    -4.54260  -8.97359   4.15677
H    -6.36589  -5.68777   2.21459
H    -5.92506  -3.00150   1.82710
H    -6.52812  -3.01041   3.50417
H    -7.55529  -3.64587   2.18590
H    -1.75901  -6.57235   8.42701
H    -1.42692  -5.55447   6.96515
H    -3.04176  -5.54820   7.68960
H    -2.28061  -7.78260  -0.26119
H    -3.69655  -8.11698   0.75078
H    -2.07575  -8.63733   1.29037
H    -2.88503  -5.29161  -0.27901
H    -4.30568  -5.68020   0.70930
H    -3.16688  -4.41913   1.24563
H    -0.73152  -6.17203   0.19218
H    -0.29446  -6.95855   1.68146
H    -0.83800  -3.97704   1.19138
H     0.70522  -4.75453   1.52068
H    -0.03523  -3.48848   3.45021
H    -1.59210  -4.29847   3.49954
H     1.14487  -5.58310   4.07923
H    -0.07814  -5.09196   5.26486
H    -0.11188  -7.50324   3.44453
