26
Generated by autodE on: 2022-06-02. E = -490.101597 Ha
C    -1.61740  -2.57011   0.45981
C    -0.40520  -1.79683  -0.08260
C     0.75144  -2.77413  -0.36463
C     0.04058  -0.74832   0.84192
C     0.43170   0.32498   1.25296
C     0.80425   1.73363   1.14349
F    -0.26518   2.53617   1.58818
C     1.07085   2.03441  -0.33601
C     0.00873   1.51391  -1.32661
C     0.16225   0.06918  -1.88527
C    -0.80702  -1.02084  -1.37905
H    -1.97714  -3.28129  -0.30030
H    -1.34929  -3.13883   1.36352
H    -2.44308  -1.88723   0.71151
H     1.62427  -2.25496  -0.78732
H     0.42103  -3.54034  -1.08343
H     1.06934  -3.28076   0.55938
H     1.67460   2.00695   1.76000
H     1.15634   3.13052  -0.41905
H     2.06111   1.62023  -0.58786
H     0.03256   2.19981  -2.18758
H    -0.99151   1.64292  -0.87893
H     0.01013   0.12903  -2.97446
H     1.20527  -0.26772  -1.75951
H    -1.79702  -0.56463  -1.21145
H    -0.94324  -1.77918  -2.16848
