25
Generated by autodE on: 2022-06-02. E = -701.717821 Ha
C    -3.03375   0.14866   2.82883
N    -2.27383   0.49846   1.64847
C    -1.14687  -0.15450   1.32084
O    -0.67949  -1.08976   1.99090
C    -0.45724   0.30353   0.08084
N     0.63164  -0.36515  -0.20261
C     1.58493  -1.04234  -0.34593
C     2.75260  -1.85452  -0.49905
C     2.92271  -2.88989   0.57872
O     3.51947  -1.68849  -1.44277
C    -0.89977   1.40668  -0.80077
O    -1.93825   2.05187  -0.55865
N    -0.13458   1.68424  -1.87497
C    -0.48677   2.74609  -2.79731
H    -2.43035   0.25837   3.74473
H    -3.90377   0.81291   2.90049
H    -3.38905  -0.89394   2.78665
H    -2.56205   1.25212   1.02071
H     2.92873  -3.88632   0.10845
H     2.12312  -2.84045   1.33154
H     3.90046  -2.73462   1.06195
H     0.70871   1.14993  -2.05138
H    -0.52170   3.72329  -2.28991
H    -1.47242   2.56792  -3.25578
H     0.26921   2.78693  -3.59057
