51
Generated by autodE on: 2022-06-02. E = -1191.814862 Ha. Imaginary frequency = -217.8 cm-1
C    -5.72249 -10.16182   2.52613
N    -5.28725  -9.06739   3.37108
C    -5.49888  -7.78297   3.02700
O    -6.16371  -7.47121   2.01922
C    -4.87809  -6.74873   3.88862
C    -5.06998  -5.26947   3.74864
O    -4.40723  -4.48363   4.44224
N    -5.99570  -4.87741   2.85671
C    -6.13196  -3.48844   2.47401
N    -4.21460  -7.09979   4.96158
C    -3.22216  -7.20481   5.61866
C    -2.74941  -7.38377   6.99580
C    -2.41117  -6.10524   7.70100
O    -2.62104  -8.50601   7.45405
C    -1.71092  -6.93576   3.78448
C    -2.34359  -6.76463   2.73912
C    -2.36193  -6.48029   1.28416
C    -2.76926  -7.73813   0.49563
C    -3.28522  -5.31587   0.89932
C    -0.86609  -6.14210   0.98311
C    -0.29978  -4.83171   1.56300
C    -0.50623  -4.45983   3.04492
C     0.14005  -5.30877   4.15068
C    -0.35296  -6.76105   4.31974
F    -0.23383  -7.11398   5.67965
H    -6.75768 -10.00076   2.19507
H    -5.08711 -10.26391   1.62970
H    -5.67322 -11.09554   3.09986
H    -4.67174  -9.27688   4.14998
H    -6.36881  -5.61999   2.25933
H    -5.27407  -3.14534   1.86940
H    -6.19751  -2.84756   3.36456
H    -7.04812  -3.36746   1.88212
H    -2.47845  -6.25765   8.78705
H    -1.37442  -5.84238   7.43508
H    -3.06484  -5.28405   7.37187
H    -2.68772  -7.54506  -0.58581
H    -3.81081  -8.01657   0.71376
H    -2.11935  -8.59092   0.74457
H    -3.10991  -5.03878  -0.15219
H    -4.33603  -5.61144   1.00418
H    -3.11373  -4.42853   1.52378
H    -0.75234  -6.09602  -0.11412
H    -0.26093  -6.99959   1.31923
H    -0.71477  -3.99413   0.97760
H     0.78371  -4.82906   1.34935
H    -0.09062  -3.44512   3.16533
H    -1.58028  -4.36077   3.26061
H     1.23506  -5.33168   4.02904
H    -0.06267  -4.80652   5.11049
H     0.30839  -7.45954   3.78212
