32
Generated by autodE on: 2022-06-30. E = -893.561319 Ha
C    -4.38109  -1.79637   0.33518
N    -3.24757  -0.91909   0.11573
C    -1.98842  -1.35124   0.26678
O    -1.70023  -2.50991   0.60597
C    -0.89375  -0.35690   0.02890
N     0.28644  -0.86364   0.28951
C     1.57622  -0.43177   0.18938
C     1.94762   0.80041  -0.37758
N     2.30409   1.80785  -0.85019
C     2.56263  -1.39198   0.65668
O     2.26978  -2.48998   1.11743
O     3.82122  -0.94866   0.52808
C     4.86264  -1.83217   0.96275
C    -1.11391   1.03886  -0.38338
C    -0.71003   2.09157   0.45781
C    -0.93274   3.41453   0.07782
C    -1.55528   3.70038  -1.14164
C    -1.96176   2.65819  -1.98081
C    -1.74785   1.33140  -1.60445
H    -4.30729  -2.69570  -0.29515
H    -5.30048  -1.25616   0.08101
H    -4.43638  -2.12121   1.38660
H    -3.41258   0.05085  -0.13380
H     0.22192  -1.84110   0.63369
H     5.80362  -1.29918   0.78345
H     4.75530  -2.06070   2.03319
H     4.84266  -2.76813   0.38553
H    -0.22362   1.86751   1.40917
H    -0.61795   4.22680   0.73649
H    -1.72501   4.73797  -1.43805
H    -2.44462   2.87839  -2.93536
H    -2.05668   0.51680  -2.26235
