32
Generated by autodE on: 2022-07-27. E = -893.550190 Ha
C    -2.30430  -0.52356  -2.86246
N    -1.79144  -0.62339  -1.50971
C    -0.48097  -0.51358  -1.25631
O     0.38180  -0.41152  -2.13187
C    -0.07976  -0.60816   0.19499
N     0.89195   0.15822   0.64791
C     1.45922   1.30988   0.12544
C     2.74986   1.64149   0.57572
N     3.82264   1.91066   0.95779
C     0.69677   2.22033  -0.69449
O    -0.49940   2.11870  -0.94541
O     1.44962   3.24947  -1.13951
C     0.76763   4.25938  -1.88966
C    -0.63826  -1.63026   1.07854
C    -0.69383  -1.41674   2.47283
C    -1.18880  -2.40661   3.31988
C    -1.64389  -3.61981   2.79365
C    -1.60179  -3.83905   1.41200
C    -1.10806  -2.85597   0.55781
H    -3.38961  -0.67771  -2.84326
H    -1.84561  -1.28466  -3.51162
H    -2.08833   0.46861  -3.29101
H    -2.44115  -0.67381  -0.73114
H     1.29118  -0.13403   1.54562
H     1.53132   4.99471  -2.16956
H    -0.01200   4.74071  -1.28051
H     0.30863   3.83061  -2.79271
H    -0.38109  -0.45852   2.89281
H    -1.23450  -2.22256   4.39534
H    -2.03785  -4.39161   3.45855
H    -1.95116  -4.78674   0.99684
H    -1.06161  -3.04884  -0.51436
