29
Generated by autodE on: 2022-06-30. E = -766.672198 Ha
C     3.90118  -1.85561  -0.13786
O     3.02362  -0.73591  -0.29767
C     1.70589  -1.00732  -0.40326
O     1.27400  -2.14929  -0.37064
C     0.94396   0.23007  -0.54451
C    -0.35398   0.53478  -0.27164
C    -1.52030  -0.22788   0.15419
C    -2.52659   0.42533   0.90073
C    -3.65250  -0.26878   1.34112
C    -3.81165  -1.62184   1.02453
C    -2.83317  -2.27618   0.26793
C    -1.69696  -1.59202  -0.16104
C    -0.38685   2.09273  -0.37146
C     0.40087   2.63496   0.83868
C     1.67468   2.32749   0.57606
C     1.63172   1.59960  -0.78424
O     0.55659   2.29884  -1.42876
H     3.66091  -2.40881   0.78205
H     3.82323  -2.53532  -0.99925
H     4.91388  -1.44039  -0.07470
H    -2.41899   1.48080   1.15651
H    -4.41237   0.25052   1.92942
H    -4.69876  -2.16335   1.36127
H    -2.95741  -3.33015   0.00845
H    -0.93569  -2.10447  -0.74468
H    -1.36003   2.54179  -0.59184
H    -0.04395   3.09728   1.71895
H     2.56910   2.47098   1.18114
H     2.54442   1.58804  -1.38672
