49
Generated by autodE on: 2022-06-20. E = -946.683884 Ha
C    -5.37839  -0.63833  -1.94285
C    -4.44456  -1.13550  -1.10629
C    -4.74869  -2.27318  -0.16747
C    -3.09405  -0.56216  -1.09893
C    -2.07443  -0.96290  -0.31579
C    -0.72237  -0.33742  -0.32528
C    -0.25530   0.19837   1.05169
C    -0.88344   1.52359   1.40298
C    -2.08426   1.55749   2.12682
C    -2.72529   2.77137   2.39117
C    -2.16920   3.97130   1.93643
C    -0.97094   3.94720   1.21452
C    -0.33550   2.73148   0.94675
N     1.20650   0.23007   0.96875
C     1.60192  -0.52287   0.00507
C     3.04829  -0.65254  -0.30026
C     3.58368  -1.75560  -0.98973
C     4.95519  -1.84130  -1.24419
C     5.81612  -0.82458  -0.82429
C     5.29636   0.28074  -0.14020
C     3.92998   0.36341   0.12025
C     0.47417  -1.24823  -0.75004
C     0.32107  -2.68181  -0.20647
C     0.61120  -1.25706  -2.27513
H    -5.14761   0.18943  -2.62058
H    -6.39376  -1.04366  -1.97194
H    -5.78937  -2.61066  -0.27342
H    -4.58500  -1.97510   0.88157
H    -4.08363  -3.13215  -0.35696
H    -2.92386   0.26643  -1.79660
H    -2.22758  -1.77913   0.39634
H    -0.72874   0.52087  -1.01662
H    -0.53285  -0.52653   1.83747
H    -2.51869   0.62083   2.48593
H    -3.65995   2.78030   2.95743
H    -2.66652   4.92167   2.14505
H    -0.52950   4.88073   0.85649
H     0.59613   2.71694   0.37730
H     2.93884  -2.56780  -1.32042
H     5.35051  -2.71082  -1.77438
H     6.88718  -0.89070  -1.02973
H     5.96054   1.08357   0.18876
H     3.52317   1.22431   0.65150
H     1.22869  -3.27497  -0.38487
H    -0.51534  -3.19082  -0.70918
H     0.12373  -2.68660   0.87631
H     0.88215  -0.26004  -2.65593
H     1.36166  -1.97714  -2.62934
H    -0.35578  -1.53892  -2.72248
