49
Generated by autodE on: 2022-06-20. E = -946.589378 Ha. Imaginary frequency = -327.7 cm-1
C    -5.68648  -0.75431   0.03046
C    -4.47960  -1.34892  -0.13052
C    -4.29756  -2.81379   0.18535
C    -3.32941  -0.59051  -0.60307
C    -2.06812  -1.08479  -0.77670
C    -0.94277  -0.30631  -1.21069
C    -0.43878   0.21735   1.34781
C    -0.89196   1.58723   1.25407
C    -2.22822   1.88322   1.60211
C    -2.73507   3.17219   1.43092
C    -1.92080   4.19113   0.92516
C    -0.58744   3.90916   0.59070
C    -0.07428   2.62543   0.75159
N     0.79025  -0.15174   1.07155
C     1.55847  -0.52798   0.19889
C     2.97991  -0.79031   0.12178
C     3.47231  -2.09818   0.29818
C     4.83762  -2.35032   0.15972
C     5.71995  -1.31581  -0.17108
C     5.22945  -0.01877  -0.36063
C     3.86761   0.24892  -0.22093
C     0.30333  -0.79189  -1.61685
C     0.54275  -2.27794  -1.77718
C     1.13654   0.08797  -2.52540
H    -5.82778   0.30824  -0.19190
H    -6.55567  -1.31267   0.38896
H    -5.23773  -3.26855   0.52857
H    -3.53669  -2.96056   0.97004
H    -3.94657  -3.37168  -0.69877
H    -3.50616   0.46923  -0.82054
H    -1.89023  -2.14478  -0.57081
H    -1.13016   0.76065  -1.36594
H    -1.06948  -0.51474   1.85882
H    -2.86499   1.08892   1.99730
H    -3.77354   3.38363   1.69776
H    -2.31739   5.20085   0.79713
H     0.05583   4.70247   0.20181
H     0.96347   2.41263   0.48491
H     2.78158  -2.90516   0.54895
H     5.21465  -3.36481   0.30894
H     6.78693  -1.52037  -0.28384
H     5.91308   0.79316  -0.61944
H     3.48112   1.25852  -0.37341
H     1.61829  -2.50244  -1.83404
H     0.08611  -2.64019  -2.71645
H     0.11662  -2.86627  -0.95182
H     1.01289   1.15402  -2.28051
H     2.20786  -0.15856  -2.47548
H     0.82450  -0.05460  -3.57672
