44
Generated by autodE on: 2022-06-10. E = -1273.709755 Ha
C     3.08255  -1.28292   4.30839
N     2.81316  -0.46510   3.14217
C     1.74813  -0.67663   2.36542
O     0.91450  -1.56518   2.57553
C     1.53103   0.31901   1.19671
C     2.85012   0.82194   0.56952
O     3.71925   1.34430   1.28247
N     2.98910   0.69080  -0.75287
C     4.16946   1.17289  -1.44645
C     0.62207  -0.26168   0.22092
C    -0.30146  -0.36930  -0.55297
C    -1.57536  -0.01456  -1.16777
C    -2.78618  -0.69203  -0.46400
O    -3.91960  -0.54406  -0.92292
N    -2.52189  -1.39391   0.64394
C    -3.58135  -2.02388   1.40950
C    -1.58264  -0.42496  -2.64917
F    -2.60336   0.10471  -3.33235
F    -1.65399  -1.76175  -2.78221
F    -0.45074  -0.02648  -3.26033
C    -1.70916   1.53806  -1.03760
C    -1.42663   2.11296   0.36386
C     0.04037   2.45883   0.74921
C     0.75094   1.56089   1.78136
H     3.98335  -0.90454   4.80646
H     2.24182  -1.24794   5.01881
H     3.24676  -2.33641   4.03069
H     3.44934   0.28179   2.85968
H     2.21961   0.30186  -1.29059
H     4.26821   2.26594  -1.35246
H     5.07970   0.71115  -1.03514
H     4.08537   0.91291  -2.50825
H    -1.56467  -1.44176   0.98321
H    -4.13066  -2.75363   0.79487
H    -3.13629  -2.54318   2.26644
H    -4.30220  -1.27737   1.77853
H    -2.73493   1.79062  -1.34125
H    -1.02702   1.99730  -1.76925
H    -1.87079   1.45935   1.13253
H    -2.00219   3.04951   0.41363
H     0.65789   2.55237  -0.15930
H     0.02626   3.46487   1.19538
H     1.48730   2.14620   2.35013
H     0.01449   1.17119   2.50052
