55
Generated by autodE on: 2022-06-10. E = -1650.461843 Ha. Imaginary frequency = -228.7 cm-1
C    -0.34338  10.72982   6.81800
N    -0.04546  10.64083   5.40252
C    -0.64211   9.72995   4.62539
O    -1.38098   8.84423   5.07133
C    -0.30203   9.77473   3.11574
C    -0.14745  11.21115   2.55594
O     0.49049  12.07877   3.17191
N    -0.65435  11.42737   1.33773
C    -0.60627  12.73377   0.71183
C     1.08813   9.08207   2.87620
C     1.27491   7.65404   3.40293
C     0.35275   6.52264   2.90399
C     0.16076   6.41887   1.37459
C    -1.24360   6.88209   0.84017
C    -1.12672   7.20700  -0.67571
O    -1.23245   8.36515  -1.08071
N    -0.85769   6.17569  -1.49019
C    -0.67809   6.36764  -2.91848
C    -2.30571   5.78732   1.06999
F    -2.63649   5.67207   2.36447
F    -1.87674   4.57328   0.66748
F    -3.43937   6.03462   0.38850
C    -1.59708   8.10531   1.57329
N    -4.04490   8.67768   1.09577
N    -4.01762   9.42561   2.08119
C    -3.41228  10.06663   2.89918
C    -3.56332  11.13004   3.88009
O    -4.45563  11.16702   4.70324
O    -2.55560  11.99298   3.79914
C    -2.48062  13.02396   4.79685
C    -1.30122   9.00217   2.35618
H     0.02417   9.84376   7.35934
H    -1.42870  10.80458   6.99437
H     0.14658  11.62092   7.22925
H     0.41709  11.40981   4.91150
H    -1.19095  10.68330   0.89945
H    -0.93942  12.64201  -0.32913
H    -1.26318  13.44900   1.23433
H     0.41777  13.13420   0.72651
H     1.26074   9.11051   1.78953
H     1.85428   9.72393   3.33604
H     1.22965   7.66310   4.50455
H     2.31516   7.38607   3.15017
H     0.79399   5.57785   3.25775
H    -0.62055   6.59812   3.40469
H     0.90501   7.04211   0.85728
H     0.33365   5.38948   1.03271
H    -0.76162   5.24122  -1.10806
H    -0.50235   5.39123  -3.38541
H     0.18203   7.02333  -3.12645
H    -1.57218   6.82422  -3.37010
H    -4.69828   7.89484   1.23672
H    -3.33409  13.70951   4.69911
H    -1.54097  13.55103   4.60043
H    -2.47152  12.58058   5.80169
