46
Generated by autodE on: 2022-06-21. E = -1089.942107 Ha
C     1.34790   3.07165  -1.80193
N     0.33509   2.55841  -0.89421
C    -0.99269   2.59237  -1.33273
C    -1.99198   2.16765  -0.54301
C    -1.62098   1.68169   0.82606
C    -0.35846   0.78225   0.77374
C     0.12356   0.55428   2.21679
N     0.67752   1.61638   2.82794
O    -0.02469  -0.52679   2.79351
C    -0.60283  -0.59840   0.07879
C    -2.02641  -1.04845  -0.11229
C    -2.71241  -1.61026   0.97536
C    -4.04211  -2.01596   0.84212
C    -4.69941  -1.87555  -0.38497
C    -4.01719  -1.32644  -1.47442
C    -2.68917  -0.91005  -1.33903
O     0.04239  -0.48185  -1.20197
N     1.20119   0.28971  -0.98778
C     2.32631  -0.47955  -0.60230
C     3.51135   0.17004  -0.20667
C     4.64325  -0.57666   0.12225
C     4.62645  -1.97375   0.05112
C     3.45630  -2.61544  -0.36420
C     2.31399  -1.88208  -0.69277
C     0.76720   1.40547  -0.12235
H     2.29510   3.20689  -1.25900
H     1.03527   4.05182  -2.18785
H     1.54019   2.40080  -2.65909
H    -1.15970   3.01247  -2.32870
H    -3.02825   2.18321  -0.87941
H    -1.39505   2.54643   1.47592
H    -2.43599   1.12868   1.31070
H     0.94659   1.53663   3.80409
H     0.75031   2.52251   2.37871
H    -0.07420  -1.35711   0.67280
H    -2.19680  -1.71744   1.93182
H    -4.56545  -2.44799   1.69852
H    -5.73836  -2.19657  -0.49186
H    -4.52172  -1.21699  -2.43756
H    -2.16348  -0.47626  -2.18895
H     3.55539   1.25927  -0.17347
H     5.55210  -0.05391   0.43043
H     5.51614  -2.55264   0.30775
H     3.42500  -3.70559  -0.43579
H     1.40983  -2.39051  -1.02411
H     1.63475   1.70601   0.47261
