26
Generated by autodE on: 2022-07-27. E = -632.167704 Ha
C    -1.03922   1.03051  -0.69032
O     0.07032   0.48010  -0.35935
N     1.25266   0.99535  -0.82161
C     2.29298   0.24063  -0.33622
C     3.59007   0.65619  -0.73779
C     4.72378  -0.02927  -0.31368
C     4.61436  -1.14903   0.52352
C     3.33957  -1.56668   0.92663
C     2.19142  -0.89309   0.51203
C    -2.27815   0.49984  -0.21159
C    -2.34494  -0.63641   0.63119
C    -3.57894  -1.10496   1.06527
C    -4.76139  -0.45852   0.67354
C    -4.70484   0.66506  -0.15960
C    -3.47494   1.14475  -0.60172
H    -0.99200   1.90898  -1.34349
H     3.67652   1.52816  -1.39022
H     5.70902   0.31441  -0.64024
H     5.50607  -1.68522   0.85503
H     3.23498  -2.43751   1.57985
H     1.21140  -1.23938   0.84014
H    -1.42450  -1.13799   0.93470
H    -3.62701  -1.98150   1.71506
H    -5.72718  -0.83350   1.01946
H    -5.62523   1.16776  -0.46425
H    -3.42294   2.02083  -1.25224
