20
Generated by autodE on: 2022-06-21. E = -457.715315 Ha
C    -3.09900  -0.52236   0.46122
N    -1.80820   0.11537   0.25982
C    -1.75234   1.48620  -0.02207
C    -0.60346   2.12260  -0.29976
C     0.73622   1.42899  -0.33475
C     0.57173  -0.05687  -0.05838
C     1.72555  -0.97066  -0.06333
N     2.93324  -0.40736  -0.31853
O     1.63211  -2.19714   0.14819
C    -0.64943  -0.59954   0.21007
H    -2.94487  -1.56145   0.77832
H    -3.69869  -0.52255  -0.46479
H    -3.67105   0.00055   1.24318
H    -2.71511   1.99984   0.00331
H    -0.63997   3.19499  -0.50474
H     1.42519   1.89492   0.39995
H     1.22554   1.59740  -1.31581
H     3.75394  -1.00302  -0.32585
H     3.05343   0.58409  -0.48142
H    -0.73861  -1.66911   0.40656
