35
Generated by autodE on: 2022-06-16. E = -621.067743 Ha
C    -0.49143  -2.10036   1.57543
C    -0.79851  -0.74327   0.96001
C    -0.09656  -0.48715  -0.38812
C     1.36242  -0.12266  -0.25282
C     2.34405  -1.12157  -0.32117
C     3.69368  -0.81014  -0.12932
C     4.07927   0.50994   0.12340
C     3.10624   1.51395   0.18427
C     1.75750   1.19958  -0.00102
O    -0.83778   0.56018  -1.00934
C    -2.11606   0.77584  -0.34511
C    -3.17313   0.88886  -1.43761
C    -2.03553   2.08806   0.43973
C    -2.27272  -0.44044   0.61061
C    -3.01508  -1.63665   0.01517
H    -1.06868  -2.25360   2.50097
H    -0.72532  -2.92676   0.88704
H     0.57672  -2.17553   1.83323
H    -0.45296   0.03724   1.65658
H    -0.16984  -1.40240  -1.00611
H     2.04576  -2.15228  -0.53048
H     4.44685  -1.60007  -0.18527
H     5.13395   0.75682   0.26738
H     3.40055   2.54899   0.37591
H     0.99971   1.98383   0.04236
H    -2.96593   1.76908  -2.06629
H    -4.17645   1.01003  -1.00184
H    -3.17670   0.00144  -2.08536
H    -1.30489   2.02379   1.25938
H    -3.01633   2.34194   0.87069
H    -1.73035   2.90839  -0.22836
H    -2.81058  -0.11715   1.51565
H    -4.04807  -1.37140  -0.25323
H    -2.52207  -2.02497  -0.89002
H    -3.06986  -2.45824   0.74479
