23
Generated by autodE on: 2022-06-16. E = -463.652508 Ha
C    -3.46139  -0.07637  -1.00264
C    -2.78183   0.01476   0.30367
C    -3.47771   0.10507   1.61067
O    -1.48463   0.02051   0.34050
C    -0.61460  -0.04829  -0.68059
C     0.77417  -0.02421  -0.37495
C     1.28189   0.07072   0.95243
C     2.65281   0.09019   1.19557
C     3.57806   0.01684   0.14401
C     3.09492  -0.07697  -1.16999
C     1.72804  -0.09756  -1.42990
H    -4.55172  -0.06943  -0.88084
H    -3.16347   0.76551  -1.66004
H    -3.16129  -0.99923  -1.53908
H    -4.13504  -0.76923   1.77116
H    -2.75254   0.15968   2.43436
H    -4.13117   0.99606   1.65128
H    -1.01035  -0.12003  -1.69165
H     0.58211   0.12886   1.78862
H     3.00882   0.16375   2.22730
H     4.65170   0.03237   0.34374
H     3.79823  -0.13515  -2.00565
H     1.37138  -0.17112  -2.46112
