35
Generated by autodE on: 2022-06-16. E = -620.941072 Ha. Imaginary frequency = -241.0 cm-1
C    -0.82725  -2.92868   0.97394
C    -1.09575  -1.49386   1.34478
C     0.17164  -0.64227  -0.76987
C     1.38155   0.05753  -0.41058
C     2.41022  -0.67112   0.24488
C     3.62090  -0.07198   0.57811
C     3.86231   1.27532   0.26851
C     2.87323   2.00057  -0.40479
C     1.65798   1.40737  -0.75000
O    -0.96849  -0.05859  -1.18804
C    -1.70366   0.86086  -0.59565
C    -2.96181   1.17880  -1.32422
C    -1.15609   1.80597   0.41106
C    -2.30743  -0.88398   1.19170
C    -3.47964  -1.53683   0.50947
H    -1.23769  -3.61363   1.74115
H    -1.29640  -3.20990   0.01843
H     0.24977  -3.13810   0.89615
H    -0.34829  -1.00922   1.98007
H     0.26128  -1.64291  -1.19322
H     2.23259  -1.71876   0.50160
H     4.38698  -0.65884   1.09231
H     4.81117   1.74553   0.53628
H     3.05528   3.04234  -0.68299
H     0.93008   1.97789  -1.32643
H    -2.82365   2.04379  -2.00231
H    -3.75714   1.45362  -0.61473
H    -3.29132   0.32205  -1.92872
H    -0.45929   1.31481   1.10114
H    -1.98833   2.24212   0.98136
H    -0.61048   2.64174  -0.06832
H    -2.50397   0.03444   1.74818
H    -4.30526  -0.82814   0.35149
H    -3.19915  -1.94965  -0.47458
H    -3.88207  -2.38157   1.09945
