47
Generated by autodE on: 2022-06-04. E = -1483.237621 Ha
C    -3.00762  -2.48310  -2.83384
N    -2.12717  -2.16175  -1.72978
C    -2.22315  -1.03595  -1.01884
O    -3.08983  -0.16874  -1.16314
C    -1.12579  -0.86920   0.06251
C    -1.66401  -1.23915   1.46016
O    -0.92293  -1.51447   2.37948
O    -2.98162  -1.22031   1.53500
C    -3.56481  -1.43137   2.83311
N     0.08439  -1.63780  -0.21280
C     1.14602  -0.72687  -0.73153
C     1.25768  -0.86435  -2.25605
C     2.45673  -1.00395   0.00991
C     3.61827  -1.42934  -0.64496
C     4.79215  -1.67296   0.07670
C     4.82068  -1.49099   1.46090
C     3.66471  -1.06371   2.12338
C     2.49477  -0.82139   1.40283
C     0.58666   0.66131  -0.40120
C     1.33624   1.93598  -0.67369
F     1.04206   2.89745   0.21902
F     1.04657   2.42125  -1.89731
F     2.66795   1.75953  -0.63514
C    -0.67755   0.58909   0.02632
C    -1.60015   1.68148   0.43542
O    -2.19920   1.66487   1.49312
O    -1.67473   2.65830  -0.45960
C    -2.49724   3.78662  -0.11958
H    -2.60173  -2.12528  -3.79487
H    -3.14344  -3.57144  -2.89552
H    -3.98419  -2.00909  -2.67179
H    -1.27298  -2.69563  -1.57807
H    -3.23771  -0.63670   3.51831
H    -4.64903  -1.38646   2.68375
H    -3.26977  -2.41263   3.22936
H     0.40189  -2.04153   0.66669
H     2.00124  -0.17117  -2.67412
H     0.28387  -0.64661  -2.71605
H     1.54477  -1.89119  -2.52157
H     3.62293  -1.57399  -1.72499
H     5.68884  -2.00640  -0.45108
H     5.73881  -1.67988   2.02216
H     3.67500  -0.91417   3.20559
H     1.59822  -0.48943   1.93061
H    -3.53663   3.46535   0.03702
H    -2.43301   4.47182  -0.97203
H    -2.11817   4.27113   0.79147
