34
Generated by autodE on: 2022-06-04. E = -840.614246 Ha
C     4.50904  -1.99757   0.74278
N     3.30416  -1.19889   0.72184
C     2.33418  -1.39992  -0.19642
O     2.40241  -2.33771  -1.02929
C     1.18781  -0.49168  -0.20877
N     0.26781  -0.85857  -1.19380
C    -1.00158  -0.62922  -1.42323
C    -1.56059  -1.11616  -2.72157
C    -1.89702   0.03477  -0.46304
C    -2.90291   0.90278  -0.92049
C    -3.76932   1.51937  -0.01478
C    -3.66290   1.25255   1.35239
C    -2.68554   0.36031   1.81216
C    -1.80464  -0.23778   0.91538
C     1.16588   0.75902   0.48264
O     1.90423   1.06600   1.43094
O     0.27093   1.64353  -0.01402
C     0.02395   2.82639   0.74338
H     4.27628  -3.07204   0.81294
H     5.10785  -1.71444   1.61792
H     5.12457  -1.85024  -0.16177
H     3.19518  -0.38796   1.32828
H     0.72421  -1.52166  -1.83803
H    -2.49649  -1.67129  -2.55802
H    -0.83902  -1.75258  -3.25313
H    -1.80169  -0.26010  -3.37470
H    -2.99338   1.11937  -1.98613
H    -4.53229   2.20962  -0.38155
H    -4.34212   1.73331   2.06007
H    -2.60714   0.13562   2.87825
H    -1.03629  -0.91872   1.28501
H     0.91757   3.46720   0.78356
H    -0.78903   3.35196   0.22741
H    -0.28791   2.57640   1.76863
