13
Generated by autodE on: 2022-06-04. E = -642.534041 Ha
C    -4.12015   0.09482  -0.71873
O    -2.69515   0.30461  -0.68053
C    -2.00285  -0.48854   0.12646
O    -2.46478  -1.36355   0.82612
C    -0.57864  -0.18436   0.07856
C     0.61231   0.02082   0.08176
C     2.05895   0.27245   0.07637
F     2.62813  -0.13381   1.21946
F     2.32328   1.57807  -0.06847
F     2.65315  -0.38095  -0.93152
H    -4.51000   0.83307  -1.42776
H    -4.34247  -0.92524  -1.06224
H    -4.55212   0.25285   0.27946
