34
Generated by autodE on: 2022-06-17. E = -749.311179 Ha
C    -3.17030  -0.91548  -1.56348
C    -2.24795  -0.92995  -0.35422
C    -0.74198  -1.17017  -0.67926
C    -0.21840  -2.51057  -0.18321
C    -0.07246   0.06240   0.04263
C     1.39774  -0.03009   0.31583
C     2.29780  -0.11783  -0.75916
C     3.67012  -0.22248  -0.52620
C     4.16278  -0.24377   0.78351
C     3.27219  -0.16251   1.85671
C     1.89673  -0.05775   1.62441
N    -0.96782   0.21890   1.20431
C    -2.18097   0.38678   0.44586
C    -3.39495   0.85124   1.19327
O    -1.81209   1.44965  -0.56284
C    -0.50988   1.25639  -0.82829
O     0.11147   1.91162  -1.63340
H    -3.13690  -1.88889  -2.07696
H    -2.87185  -0.14039  -2.28545
H    -4.21479  -0.72747  -1.26916
H    -2.58918  -1.70076   0.35331
H    -0.56543  -1.08972  -1.76228
H     0.83002  -2.67003  -0.47522
H    -0.81836  -3.32793  -0.61395
H    -0.28596  -2.58002   0.91303
H     1.92077  -0.10630  -1.78298
H     4.35892  -0.29026  -1.37169
H     5.23698  -0.32660   0.96511
H     3.64631  -0.18291   2.88308
H     1.20882  -0.00337   2.46921
H    -0.74657   1.07188   1.72473
H    -3.68129   0.09126   1.93401
H    -4.23552   1.00273   0.50200
H    -3.18855   1.79862   1.71318
