12
Generated by autodE on: 2022-06-17. E = -157.300303 Ha
C    -1.96327  -0.02104  -0.05655
C    -0.51226  -0.01460  -0.43127
C     0.51226   0.01471   0.43127
C     1.96327   0.02096   0.05655
H    -2.10299   0.00121   1.03573
H    -2.47421  -0.91779  -0.45009
H    -2.49190   0.84738  -0.48842
H    -0.28944  -0.03564  -1.50735
H     0.28944   0.03581   1.50735
H     2.10298  -0.00001  -1.03575
H     2.47467   0.91692   0.45127
H     2.49145  -0.84831   0.48728
