22
Generated by autodE on: 2022-06-17. E = -591.970301 Ha
C    -4.02379   0.68951   0.21481
C    -2.64873   0.16355   0.27711
N    -1.53904   0.73630  -0.12984
C    -0.42958  -0.09025   0.10213
C     0.93521   0.25529  -0.24015
C     1.98971  -0.64439   0.04444
C     3.30757  -0.32567  -0.27866
C     3.61991   0.89307  -0.89265
C     2.58664   1.79093  -1.18022
C     1.26376   1.48144  -0.86151
C    -0.93294  -1.25538   0.70157
O    -0.48382  -2.31551   1.12813
O    -2.37056  -1.02644   0.78468
H    -4.65932   0.01181  -0.37735
H    -4.02799   1.68684  -0.24315
H    -4.44996   0.75045   1.22897
H    -1.51473   1.66186  -0.55345
H     1.75992  -1.59665   0.52227
H     4.10180  -1.04015  -0.04709
H     4.65408   1.13902  -1.14371
H     2.81018   2.74702  -1.66038
H     0.48410   2.20711  -1.10434
