34
Generated by autodE on: 2022-06-17. E = -749.249745 Ha. Imaginary frequency = -477.5 cm-1
C    -3.35738  -0.97692  -1.49048
C    -2.31462  -1.22129  -0.42021
C    -1.00100  -1.52422  -0.80486
C    -0.12303  -2.43089  -0.00158
C     0.08194   0.52657   0.16406
C     1.48190   0.23803   0.41601
C     2.42373   0.29242  -0.63460
C     3.76032  -0.03116  -0.40602
C     4.19234  -0.41531   0.86897
C     3.26829  -0.47015   1.91722
C     1.92852  -0.14862   1.69690
N    -0.90976   0.50573   1.12525
C    -2.11283   0.61863   0.47623
C    -3.36261   0.94565   1.21732
O    -1.84781   1.34083  -0.67088
C    -0.49532   1.16433  -0.98509
O    -0.05437   1.54507  -2.06354
H    -3.72682  -1.93682  -1.89002
H    -2.93368  -0.40846  -2.33202
H    -4.23352  -0.42789  -1.11409
H    -2.68031  -1.74000   0.47603
H    -0.71304  -1.34406  -1.84577
H     0.93880  -2.34134  -0.27115
H    -0.41513  -3.48601  -0.16366
H    -0.22649  -2.24163   1.08086
H     2.09255   0.58792  -1.62957
H     4.47275   0.01569  -1.23335
H     5.24042  -0.66878   1.04359
H     3.59186  -0.76585   2.91813
H     1.22889  -0.19509   2.53386
H    -0.84054  -0.06584   1.96406
H    -3.45012   0.28679   2.09270
H    -4.24520   0.80857   0.58016
H    -3.34000   1.99284   1.56033
