43
Generated by autodE on: 2022-06-20. E = -958.556231 Ha
C    -4.62628   2.38578  -0.28504
C    -3.89317   1.36079  -0.76469
C    -4.43956   0.40195  -1.78890
C    -2.52333   1.16300  -0.27977
C    -1.68992   0.18299  -0.67405
C    -0.29228   0.04835  -0.16815
C     0.11808  -1.36510   0.38037
C    -0.61044  -2.45772  -0.29895
N    -1.16638  -3.33636  -0.81559
C    -0.21132  -1.47380   1.90064
C    -1.64023  -1.31873   2.31800
O     0.69837  -1.65466   2.68229
N     1.54715  -1.49372   0.12988
C     2.06406  -0.28060  -0.49949
C     2.68306   0.67975   0.50306
O     2.33480   0.80004   1.66146
O     3.65989   1.40242  -0.04999
C     4.26049   2.41601   0.77021
C     0.83041   0.35663  -1.20757
C     0.94727   1.86308  -1.43974
C     0.60741  -0.34883  -2.55228
H    -5.65139   2.56201  -0.62278
H    -4.21576   3.07481   0.45937
H    -4.42520  -0.63325  -1.40920
H    -3.82565   0.40878  -2.70493
H    -5.47307   0.65699  -2.06218
H    -2.17063   1.88207   0.46869
H    -2.01994  -0.54803  -1.41668
H    -0.14907   0.74986   0.66630
H    -1.76175  -1.65328   3.35621
H    -1.91272  -0.25265   2.24752
H    -2.32030  -1.86686   1.65067
H     2.01174  -1.70325   1.01356
H     2.83813  -0.51391  -1.24409
H     5.02181   2.89862   0.14681
H     4.72513   1.96515   1.65866
H     3.50489   3.15022   1.08539
H     1.80786   2.09496  -2.08429
H     0.03770   2.23170  -1.93734
H     1.05830   2.42046  -0.49717
H     0.51720  -1.43931  -2.44756
H     1.45735  -0.14390  -3.22051
H    -0.30435   0.02453  -3.04085
