23
Generated by autodE on: 2022-06-20. E = -351.520143 Ha
C     2.94238   1.00294   2.11725
C     2.23472   0.79348   1.00138
C     2.80474   1.10995  -0.35676
C     0.88225   0.25102   1.08935
C     0.05615   0.00163   0.03650
C    -1.28143  -0.53474   0.17404
C    -2.14088  -0.77688  -0.84076
C    -1.79905  -0.50106  -2.28486
C    -3.51715  -1.31506  -0.57914
H     3.95743   1.40783   2.08149
H     2.52512   0.77384   3.10251
H     2.82319   0.21377  -0.99892
H     2.18839   1.85932  -0.88087
H     3.82937   1.49993  -0.27777
H     0.51827   0.03513   2.10124
H     0.40790   0.21899  -0.97634
H    -1.61455  -0.75103   1.19595
H    -0.79304  -0.85887  -2.55346
H    -2.52140  -0.98181  -2.96097
H    -1.82296   0.58204  -2.49904
H    -3.70806  -1.46933   0.49315
H    -4.28643  -0.62774  -0.97609
H    -3.66865  -2.27506  -1.10478
