20
Generated by autodE on: 2022-06-20. E = -606.997763 Ha
C    -4.48155  -0.61951   0.12199
O    -3.18085  -0.72219  -0.47693
C    -2.16205  -0.21368   0.21691
O    -2.26353   0.32394   1.30837
C    -0.89134  -0.37915  -0.49329
N     0.17829   0.08223   0.09861
C     1.48825   0.09904  -0.25402
C     1.90716  -0.46032  -1.47641
N     2.25402  -0.92437  -2.49032
C     2.38116   0.72293   0.71840
C     3.84710   0.76929   0.39566
O     1.90927   1.18456   1.76217
H    -4.74708   0.43544   0.28253
H    -5.17686  -1.08334  -0.58662
H    -4.50361  -1.15349   1.08305
H    -0.82523  -0.86247  -1.46778
H     0.03533   0.52952   1.02388
H     4.01295   1.30761  -0.55139
H     4.38991   1.26995   1.20703
H     4.23875  -0.25185   0.26040
