43
Generated by autodE on: 2022-06-20. E = -958.509786 Ha. Imaginary frequency = -424.1 cm-1
C    -5.22190  -0.20413  -1.18573
C    -3.94530  -0.08727  -1.61925
C    -3.53287  -0.52622  -2.99967
C    -2.93796   0.45845  -0.72566
C    -1.62735   0.68329  -1.04611
C    -0.68128   1.18060  -0.11225
C    -0.06959  -0.95779   1.47754
C    -0.91942  -1.72681   0.66271
N    -1.66066  -2.34221  -0.00116
C    -0.46544  -0.53788   2.81342
C    -1.88123  -0.80816   3.24676
O     0.34955   0.04699   3.54077
N     1.23377  -0.71993   1.11617
C     1.56774  -0.33968  -0.14766
C     3.02465  -0.11633  -0.34397
O     3.79502   0.16306   0.55731
O     3.37734  -0.21958  -1.62460
C     4.74430   0.08133  -1.94657
C     0.68020   1.47953  -0.41251
C     1.37107   2.35116   0.61979
C     1.04163   1.79412  -1.85643
H    -6.00638  -0.61574  -1.82654
H    -5.50628   0.10959  -0.17693
H    -2.76403  -1.31422  -2.93888
H    -3.09123   0.30735  -3.56975
H    -4.38974  -0.91763  -3.56538
H    -3.27269   0.70911   0.28729
H    -1.27527   0.43142  -2.04907
H    -1.05643   1.45414   0.87655
H    -2.06111  -0.34749   4.22644
H    -2.59484  -0.40566   2.50960
H    -2.06247  -1.89325   3.31195
H     1.79313  -0.31983   1.87409
H     1.05777  -0.85954  -0.96126
H     4.83378  -0.04907  -3.03080
H     5.42158  -0.60740  -1.42190
H     4.98258   1.11719  -1.66532
H     2.45855   2.39405   0.46795
H     0.98579   3.38272   0.54882
H     1.17103   1.99342   1.64113
H     0.76452   0.98795  -2.55003
H     2.11979   1.97519  -1.96156
H     0.51631   2.70939  -2.17639
