56
Generated by autodE on: 2022-06-06. E = -1598.059596 Ha
C    -5.06320   1.32011  -3.96145
N    -5.61939   0.06392  -3.48827
C    -5.47656  -0.31695  -2.21866
O    -4.84367   0.31548  -1.37709
C    -6.03104  -1.73473  -1.84814
C    -7.05800  -2.22420  -2.80049
N    -7.77840  -2.64947  -3.60297
O    -4.90201  -2.57135  -2.03416
C    -4.65157  -3.37841  -0.88259
C    -4.94001  -4.77851  -1.28150
N    -5.19894  -5.84940  -1.64141
C    -3.17816  -3.17687  -0.52589
C    -2.77906  -1.91021  -0.07993
C    -1.44017  -1.66933   0.22942
C    -0.49053  -2.68739   0.08798
C    -0.88582  -3.94428  -0.37640
C    -2.22678  -4.18843  -0.68549
C    -5.67602  -2.90687   0.17456
C    -6.44435  -1.93743  -0.37300
C    -7.51537  -1.04822   0.30519
C    -8.46429  -1.80854   1.13882
N    -9.30834  -2.32015   1.74518
C    -8.50908  -0.38143  -0.70480
F    -9.39918   0.37631  -0.05468
F    -7.88639   0.40892  -1.58778
F    -9.20315  -1.29855  -1.39057
C    -6.83591   0.11962   1.11367
C    -6.36129  -0.16445   2.53672
C    -5.37521  -1.31522   2.75477
C    -6.04092  -2.70229   2.73586
C    -5.73158  -3.63062   1.52975
C    -6.82451  -4.72530   1.43449
C    -4.40767  -4.34856   1.87121
H    -5.51303   2.17242  -3.42870
H    -5.27217   1.41620  -5.03312
H    -3.97490   1.34879  -3.80159
H    -6.16737  -0.50002  -4.13075
H    -3.51334  -1.11005   0.00954
H    -1.13692  -0.68088   0.58165
H     0.55700  -2.49843   0.33350
H    -0.15003  -4.74188  -0.50014
H    -2.52585  -5.17625  -1.04027
H    -5.99962   0.45673   0.49112
H    -7.55935   0.94352   1.17100
H    -5.89566   0.77571   2.87426
H    -7.23584  -0.31856   3.19187
H    -4.90798  -1.16267   3.73938
H    -4.55370  -1.25920   2.02332
H    -5.72874  -3.26985   3.62435
H    -7.12193  -2.58698   2.85760
H    -6.54263  -5.50941   0.71877
H    -6.94268  -5.19674   2.42250
H    -7.79612  -4.31778   1.13143
H    -3.58195  -3.64464   2.03678
H    -4.56702  -4.90973   2.80302
H    -4.10078  -5.07696   1.11076
