30
Generated by autodE on: 2022-06-06. E = -820.287760 Ha
C     2.00881  -2.70815  -1.54571
C     2.26190  -1.20581  -1.32060
C     3.75898  -0.95432  -1.08395
C     1.43584  -0.71972  -0.21445
C     0.54081  -0.21421   0.42871
C    -0.67166   0.59962   0.56750
C    -0.29925   1.98048   0.92983
N    -0.00519   3.07322   1.18032
C    -1.60832   0.05262   1.66883
F    -2.72622   0.78486   1.76220
F    -1.00761   0.07103   2.86666
F    -1.96018  -1.21031   1.40764
C    -1.39660   0.59687  -0.82193
C    -0.49850   0.93164  -2.02784
C     0.24393  -0.23041  -2.74708
C     1.76744  -0.36591  -2.54459
H     0.94747  -2.91204  -1.74982
H     2.30596  -3.29100  -0.66077
H     2.60269  -3.05544  -2.40537
H     3.95432   0.10847  -0.87578
H     4.12793  -1.54939  -0.23460
H     4.32974  -1.24230  -1.98043
H    -1.83623  -0.40383  -0.94487
H    -2.22461   1.31745  -0.75629
H     0.21570   1.72587  -1.75097
H    -1.17046   1.39352  -2.76661
H     0.09427  -0.07850  -3.82716
H    -0.25565  -1.18670  -2.51896
H     2.20753   0.64208  -2.46806
H     2.21096  -0.83465  -3.43866
