26
Generated by autodE on: 2022-07-27. E = -777.668657 Ha
C    -2.48733   3.44727  -2.81458
N    -2.36988   2.14985  -2.18192
C    -1.29660   1.77694  -1.45144
O    -0.30834   2.49511  -1.25213
C    -1.35913   0.41541  -0.87431
C    -2.43157  -0.47527  -1.03835
N    -3.35956  -1.16387  -1.22185
O    -0.27342   0.10540  -0.17874
C     0.15874  -0.90518   0.50858
C    -0.63743  -2.07463   0.67270
N    -1.24989  -3.05020   0.84229
C     1.47539  -0.79050   1.10304
C     2.23129   0.39015   0.92192
C     3.49511   0.49538   1.49089
C     4.02464  -0.56307   2.24278
C     3.27985  -1.73344   2.42517
C     2.01196  -1.85268   1.86174
H    -2.59698   3.34480  -3.90572
H    -1.58324   4.02941  -2.60342
H    -3.36115   3.99604  -2.42899
H    -3.13902   1.49656  -2.29604
H     1.81400   1.20975   0.33575
H     4.07602   1.40904   1.34861
H     5.01888  -0.47368   2.68577
H     3.68963  -2.55919   3.01026
H     1.43501  -2.76786   2.00760
