26
Generated by autodE on: 2022-06-06. E = -777.670835 Ha
C     3.52441   2.55013   0.31088
N     2.48373   1.55382   0.15206
C     2.74032   0.36343  -0.42714
O     3.85305   0.04734  -0.87576
C     1.62277  -0.58926  -0.51952
C     1.83615  -1.87566  -1.04339
N     2.04241  -2.93035  -1.50301
O     0.43059  -0.16048  -0.11946
C    -0.75405  -0.67937   0.01919
C    -0.96140  -2.07307  -0.17883
N    -1.18291  -3.20974  -0.30090
C    -1.83649   0.20587   0.39555
C    -3.10949  -0.32138   0.70499
C    -4.14641   0.53169   1.07246
C    -3.93385   1.91329   1.13502
C    -2.67450   2.44322   0.82163
C    -1.63084   1.60335   0.44996
H     4.01056   2.76438  -0.65258
H     4.30390   2.21819   1.01693
H     3.07360   3.47388   0.69313
H     1.58149   1.70885   0.58904
H    -3.28105  -1.39862   0.66315
H    -5.12678   0.11569   1.31304
H    -4.75024   2.57921   1.42264
H    -2.50993   3.52198   0.86074
H    -0.65786   2.01962   0.18644
