56
Generated by autodE on: 2022-06-06. E = -1597.954043 Ha. Imaginary frequency = -226.4 cm-1
C    -6.38244   1.37079  -4.46572
N    -6.35275   0.02002  -3.93879
C    -5.40419  -0.36045  -3.06414
O    -4.41924   0.32304  -2.77791
C    -5.57881  -1.71154  -2.43951
C    -6.62042  -2.59851  -2.81597
N    -7.51888  -3.26648  -3.14232
O    -4.42831  -2.14635  -1.95308
C    -4.11644  -3.23972  -1.29579
C    -4.74284  -4.48052  -1.62137
N    -5.18212  -5.52702  -1.87973
C    -2.80406  -3.19507  -0.65284
C    -2.32305  -1.95370  -0.19092
C    -1.08913  -1.88330   0.44953
C    -0.32494  -3.04241   0.63549
C    -0.79453  -4.27400   0.16526
C    -2.02753  -4.35449  -0.47816
C    -5.86233  -2.75021   0.46202
C    -6.43081  -1.75953  -0.02239
C    -7.35151  -0.65255   0.38149
C    -8.58468  -1.28231   0.89520
N    -9.54281  -1.78967   1.30508
C    -7.80954   0.28992  -0.75587
F    -8.77364   1.11543  -0.32498
F    -6.80069   1.04780  -1.19628
F    -8.31036  -0.39599  -1.79393
C    -6.66775   0.22310   1.48618
C    -6.53562  -0.36755   2.89212
C    -5.64014  -1.59787   3.11768
C    -6.29759  -2.96250   2.82909
C    -5.77222  -3.73773   1.58277
C    -6.73850  -4.90271   1.28980
C    -4.37409  -4.29023   1.87671
H    -6.66452   2.09878  -3.68650
H    -7.11530   1.41921  -5.28027
H    -5.39418   1.65024  -4.85651
H    -7.18402  -0.55114  -4.05331
H    -2.92700  -1.05711  -0.33636
H    -0.72259  -0.92122   0.81355
H     0.63880  -2.98458   1.14613
H    -0.19535  -5.17685   0.29971
H    -2.39262  -5.31668  -0.84215
H    -5.68006   0.49180   1.08514
H    -7.25573   1.14867   1.57127
H    -6.13424   0.45900   3.50014
H    -7.54100  -0.57068   3.29914
H    -5.34150  -1.57949   4.17683
H    -4.70392  -1.48713   2.54515
H    -6.15713  -3.64016   3.68609
H    -7.38458  -2.83566   2.72214
H    -6.40428  -5.49572   0.42800
H    -6.78308  -5.56567   2.16815
H    -7.75304  -4.52924   1.08558
H    -3.62890  -3.49402   2.00810
H    -4.42096  -4.87654   2.80662
H    -4.03008  -4.96298   1.08323
