34
Generated by autodE on: 2022-10-21. E = -3451.983622 Ha
C     4.54452   0.48180   0.64031
O     3.51045  -0.08721   1.44945
C     2.23672   0.12629   1.12301
C     1.55599   0.82819   0.19151
Br    2.08502   1.89463  -1.26903
C     0.09588   0.41905   0.37197
O     0.03203   0.19241   1.78890
C     1.16556  -0.67451   1.85992
C     0.73185  -1.82632   0.89255
C    -0.34124  -2.68793   1.48051
N    -1.51203  -2.61090   0.97657
C    -1.48273  -1.65262  -0.15868
C    -1.68046  -2.45781  -1.37714
N    -1.81591  -3.10712  -2.32910
C    -2.59299  -0.60987  -0.05160
C    -3.03015   0.07502  -1.19376
C    -3.98036   1.09262  -1.08551
C    -4.50425   1.43326   0.16573
C    -4.07203   0.74958   1.30539
C    -3.11897  -0.26753   1.19895
C    -0.03595  -1.02545  -0.19627
H     5.49291   0.16202   1.08932
H     4.48102   0.10850  -0.39251
H     4.48722   1.58028   0.64692
H    -0.65676   1.14198   0.04446
H     1.40421  -0.96801   2.88827
H     1.59434  -2.41241   0.54603
H    -0.14633  -3.35434   2.32978
H    -2.62211  -0.18186  -2.17410
H    -4.31272   1.61990  -1.98268
H    -5.24871   2.22825   0.25127
H    -4.47729   1.00808   2.28649
H    -2.77906  -0.79290   2.09089
H     0.39499  -1.09368  -1.20016
