17
Generated by autodE on: 2022-10-21. E = -456.183609 Ha
C     2.76836   1.73374   0.00051
N     2.05153   0.77812  -0.07885
C     1.18896  -0.20293  -0.01268
C     1.71058  -1.52260   0.07271
N     2.12040  -2.61247   0.14191
C    -0.26093   0.05533  -0.01643
C    -0.75895   1.36990  -0.09638
C    -2.13417   1.60276  -0.08784
C    -3.03515   0.53542  -0.00423
C    -2.54575  -0.77261   0.07277
C    -1.17189  -1.01483   0.06781
H     3.26348   2.32143  -0.78402
H    -0.06926   2.21352  -0.16670
H    -2.50471   2.62867  -0.14979
H    -4.11127   0.72218  -0.00075
H    -3.23866  -1.61474   0.13826
H    -0.80253  -2.04060   0.13149
