34
Generated by autodE on: 2022-10-21. E = -3451.861928 Ha. Imaginary frequency = -290.2 cm-1
C     4.54057   0.99711   1.04819
O     3.52779   0.14799   1.59389
C     2.29809   0.19611   1.07792
C     1.65981   0.85506   0.08958
Br    2.21924   2.05387  -1.25175
C     0.24676   0.22098   0.05653
O     0.05206  -0.01634   1.46313
C     1.24471  -0.79551   1.63214
C     1.02576  -1.88481   0.55825
C    -0.77686  -3.02576   1.65623
N    -1.69102  -2.72630   0.93657
C    -2.16349  -2.06394  -0.11305
C    -2.11867  -2.73905  -1.36203
N    -2.07769  -3.27206  -2.39989
C    -2.89762  -0.80296   0.04651
C    -3.33200  -0.08937  -1.08725
C    -3.97091   1.14226  -0.94413
C    -4.19371   1.68119   0.32771
C    -3.77286   0.97151   1.45798
C    -3.13199  -0.25969   1.32373
C     0.40837  -1.22162  -0.45915
H     5.44776   0.80868   1.63577
H     4.72917   0.75439  -0.00811
H     4.25451   2.05563   1.14234
H    -0.55210   0.83418  -0.37431
H     1.40175  -1.11473   2.66835
H     1.57648  -2.82343   0.51415
H    -0.66940  -3.70589   2.50827
H    -3.15535  -0.49660  -2.08515
H    -4.29579   1.68544  -1.83468
H    -4.69468   2.64549   0.43765
H    -3.94629   1.37995   2.45643
H    -2.80822  -0.80292   2.21288
H     0.28511  -1.52441  -1.49668
