26
Generated by autodE on: 2022-06-19. E = -668.622247 Ha
C     3.06709  -1.59708  -1.38253
N     2.01368  -1.21092  -0.46925
C     1.10683  -0.25613  -0.81275
O     1.25814   0.45243  -1.83397
C    -0.03926  -0.10174   0.06322
O    -0.99384   0.85722  -0.32555
C    -0.72559   2.09403  -0.51682
C     0.56241   2.69171  -0.13811
C    -1.82087   2.89588  -1.09470
C    -0.50948  -1.05419   1.00906
O     0.12721  -2.04293   1.40339
O    -1.74671  -0.77138   1.49963
C    -2.26971  -1.68773   2.46140
H     2.68435  -2.09773  -2.29054
H     3.64378  -0.71828  -1.70683
H     3.74863  -2.28826  -0.86952
H     1.72880  -1.84485   0.27606
H     1.28319   2.54653  -0.96054
H     0.97392   2.15981   0.73626
H     0.43962   3.76539   0.05259
H    -2.72365   2.29215  -1.24644
H    -1.47807   3.30997  -2.05945
H    -2.02669   3.75958  -0.44162
H    -1.62500  -1.73891   3.35206
H    -2.37139  -2.69786   2.03606
H    -3.25826  -1.30242   2.74111
