38
Generated by autodE on: 2022-06-19. E = -1050.258337 Ha. Imaginary frequency = -211.1 cm-1
C    -1.88046   3.85741  -1.06680
N    -1.48474   2.46553  -1.13043
C    -0.20568   2.09376  -0.90703
O     0.68773   2.91810  -0.66886
C     0.06303   0.63161  -0.92400
C     1.36600   0.13068  -1.39613
O     1.49147  -0.71811  -2.26671
O     2.40278   0.72316  -0.79955
C     3.70854   0.33985  -1.24947
O    -1.04705  -0.09239  -1.24956
C    -1.33238  -1.33383  -0.96639
C    -2.74670  -1.70802  -1.20321
C    -0.30239  -2.38875  -0.83147
C    -1.42961  -0.58340   1.44510
C    -1.18713  -1.92480   1.96495
O    -2.07946  -2.77663   2.05664
C     0.20139  -2.25026   2.38643
C     1.18602  -1.33376   2.35838
C     0.92110   0.06736   1.95318
O     1.77828   0.93747   2.08805
C    -0.43241   0.37351   1.43990
H    -1.32720   4.46628  -1.79951
H    -2.95233   3.93012  -1.28792
H    -1.69611   4.28474  -0.06758
H    -2.18471   1.75246  -1.29918
H     3.87567  -0.73312  -1.07605
H     3.83093   0.56002  -2.31986
H     4.41449   0.93285  -0.65673
H    -3.38542  -0.82057  -1.29393
H    -2.81613  -2.31137  -2.12600
H    -3.09194  -2.34688  -0.37501
H    -0.74667  -3.27720  -0.36730
H     0.04119  -2.65528  -1.84644
H     0.57872  -2.06385  -0.26955
H    -2.46892  -0.30448   1.26639
H     0.37386  -3.27745   2.71716
H     2.20765  -1.56461   2.66977
H    -0.67662   1.43236   1.38510
