18
Generated by autodE on: 2022-05-30. E = -460.241414 Ha
C    -2.91425  -0.31322   0.63028
C    -1.80492   0.47105  -0.02002
O    -1.99035   1.59159  -0.49278
C    -0.47139  -0.13361  -0.07460
C     0.01170  -1.25322   0.49328
C     1.51626  -1.24949   0.15514
C     2.15121  -0.09469   0.96579
C     1.68039   1.01992   0.39891
C     0.75973   0.52931  -0.74003
O     1.47215  -0.65292  -1.15605
H    -3.85530   0.24847   0.56645
H    -2.66979  -0.50551   1.68729
H    -3.02872  -1.29315   0.14106
H    -0.49732  -1.98862   1.11545
H     2.03239  -2.21525   0.15817
H     2.78740  -0.22116   1.84098
H     1.82918   2.06216   0.67918
H     0.56097   1.21488  -1.56942
