20
Generated by autodE on: 2022-05-30. E = -702.145831 Ha
C     4.33757  -1.18626   0.37512
N     3.10197  -0.45276   0.17014
C     1.91581  -1.05397   0.29805
O     1.72043  -2.22955   0.58953
C     0.74038  -0.14954   0.04942
O     0.79598   1.08915  -0.26173
C    -0.67144   1.58688  -0.40837
O    -0.85835   2.73088  -0.69933
C    -1.36366   0.40582  -0.12051
C    -2.78410   0.15572  -0.08832
C    -3.22868  -1.24399   0.24835
O    -3.57654   1.06835  -0.33220
O    -0.45441  -0.61955   0.15051
H     4.42859  -2.00893  -0.35097
H     5.18070  -0.49838   0.24819
H     4.37009  -1.61701   1.38750
H     3.13707   0.53218  -0.08098
H    -2.85031  -1.53877   1.24030
H    -2.82016  -1.96137  -0.48145
H    -4.32519  -1.28670   0.23927
