38
Generated by autodE on: 2022-05-30. E = -1162.388557 Ha. Imaginary frequency = -298.2 cm-1
C    -2.76068   3.72195   0.10520
N    -2.24635   2.41344   0.46663
C    -2.26932   1.39685  -0.40291
O    -2.71619   1.44258  -1.54764
C    -1.64076   0.13066   0.09267
O    -1.36589  -0.08198   1.37288
C    -1.04977  -1.48084   1.52012
O    -0.64168  -1.91945   2.56544
C    -1.34807  -2.00126   0.22564
C    -1.30134  -3.37025  -0.25400
C    -1.81128  -3.62265  -1.64601
O    -0.83452  -4.25266   0.46470
O    -1.91103  -1.00285  -0.53068
C     0.88776  -0.96877  -0.61239
C     1.93241  -0.91508   0.51315
C     3.14297  -0.17111  -0.08814
C     2.73103   1.10267  -0.22260
C     3.39445   2.26921  -0.81830
C     4.83858   2.13502  -1.21922
O     2.76360   3.31165  -0.97823
C     1.26997   1.10685   0.29075
O     1.37780   0.12514   1.33328
C     0.43507   0.32447  -0.74635
H    -2.25986   4.09923  -0.79957
H    -2.57577   4.41429   0.93428
H    -3.84294   3.68045  -0.09344
H    -1.84699   2.26722   1.38971
H    -1.71689  -4.69007  -1.88185
H    -1.23598  -3.02541  -2.37222
H    -2.86394  -3.30874  -1.73126
H     0.80313  -1.78120  -1.33099
H     2.12210  -1.83435   1.07589
H     4.08656  -0.62960  -0.38104
H     5.44979   1.85821  -0.34560
H     4.95155   1.32893  -1.96158
H     5.19897   3.08180  -1.64181
H     0.86967   2.05815   0.65225
H     0.03107   0.76227  -1.65867
