40
Generated by autodE on: 2022-06-18. E = -769.898467 Ha
C     3.64001   2.11588  -2.82020
C     3.16599   1.91304  -1.57417
C     3.82563   2.52316  -0.36573
C     1.97729   1.07582  -1.37690
C     1.40439   0.79399  -0.19193
C     0.20887  -0.08748  -0.03688
C    -0.94040   0.53944   0.81817
C    -1.93619   1.18328  -0.14075
C    -1.67825   2.62027  -0.49234
O    -2.86699   0.54823  -0.61200
N    -1.45198  -0.56002   1.62669
C    -2.78810  -0.51226   2.17855
C    -0.93872  -1.82451   1.15001
C    -1.79252  -2.43399   0.09761
N    -2.51256  -2.89107  -0.69086
C     0.48606  -1.46965   0.64334
C     1.42364  -1.34798   1.85087
C     1.06008  -2.47221  -0.35430
H     4.52460   2.73282  -3.00164
H     3.15242   1.66693  -3.69099
H     3.12348   3.17221   0.18366
H     4.70166   3.12312  -0.64974
H     4.15257   1.74399   0.34284
H     1.53289   0.65431  -2.28629
H     1.82040   1.21018   0.73023
H    -0.19215  -0.31420  -1.03739
H    -0.53833   1.33394   1.47119
H    -0.61888   2.76026  -0.76277
H    -1.86361   3.24554   0.39727
H    -2.33125   2.94128  -1.31432
H    -2.87215  -1.23897   3.00274
H    -3.58919  -0.72951   1.44745
H    -2.97593   0.48962   2.59398
H    -0.89704  -2.56494   1.96688
H     1.49577  -2.31490   2.37204
H     1.07457  -0.59487   2.57051
H     2.43485  -1.06557   1.52370
H     1.19265  -3.46000   0.11470
H     2.04520  -2.12710  -0.70377
H     0.41296  -2.59077  -1.23612
