23
Generated by autodE on: 2022-06-18. E = -351.521383 Ha
C     3.54348  -0.89443   0.97053
C     2.52863  -0.51848   0.16149
C     2.75567  -0.24010  -1.30247
C     1.17847  -0.37588   0.70270
C     0.07805  -0.01094  -0.00215
C    -1.24049   0.11299   0.58517
C    -2.38763   0.46634  -0.04794
C    -2.48282   0.79931  -1.50987
C    -3.68601   0.55035   0.70382
H     3.37511  -1.09595   2.03296
H     4.56305  -1.00947   0.59219
H     2.13837  -0.90120  -1.93322
H     2.47135   0.79398  -1.55906
H     3.80986  -0.38651  -1.57686
H     1.06701  -0.58836   1.77284
H     0.18135   0.20251  -1.06951
H    -1.30297  -0.10647   1.65794
H    -3.20655   0.12976  -2.00742
H    -2.87319   1.82375  -1.64345
H    -1.52643   0.72565  -2.04318
H    -4.43578  -0.13414   0.26770
H    -4.11815   1.56431   0.62665
H    -3.56706   0.30287   1.76891
