17
Generated by autodE on: 2022-07-27. E = -418.319693 Ha
C    -0.36288   1.72770  -2.32573
C    -0.03178   0.69187  -1.27358
O     0.14765  -0.49411  -1.60486
C     0.11717   1.17393   0.06803
N     0.48237   0.40175   1.12039
C     1.20537   1.10419   2.20572
C     0.30640  -0.91396   1.28203
C    -0.62826  -1.69020   0.57550
N    -1.43887  -2.39626   0.11695
H    -0.31767   2.75869  -1.94990
H     0.32272   1.61136  -3.17951
H    -1.38267   1.53306  -2.69892
H     0.16154   2.24541   0.25245
H     1.27527   0.45566   3.08442
H     0.64806   2.01400   2.46130
H     2.20602   1.37930   1.84733
H     0.81358  -1.38453   2.12389
