17
Generated by autodE on: 2022-06-18. E = -418.325973 Ha
C     3.35150   0.43195  -0.36264
C     1.90468   0.43263   0.07708
O     1.57683   1.04155   1.11557
C     0.98577  -0.28989  -0.75132
N    -0.34164  -0.40267  -0.51177
C    -1.13108  -1.18616  -1.48911
C    -0.99612   0.13585   0.52554
C    -2.38053  -0.03403   0.68418
N    -3.53133  -0.14337   0.86445
H     3.69813   1.47341  -0.45950
H     3.96368  -0.04053   0.42316
H     3.51588  -0.09582  -1.31155
H     1.34187  -0.79494  -1.64475
H    -0.46322  -1.58174  -2.25873
H    -1.88443  -0.53252  -1.94745
H    -1.63057  -2.01251  -0.96804
H    -0.41578   0.71285   1.24293
