40
Generated by autodE on: 2022-06-18. E = -769.826151 Ha. Imaginary frequency = -333.5 cm-1
C     3.33276   3.51096  -1.66850
C     2.93982   2.62634  -0.72309
C     3.41391   2.75022   0.70341
C     2.04157   1.53056  -1.06777
C     1.58775   0.58313  -0.20171
C     0.69578  -0.48879  -0.56659
C    -1.36360   0.77001   0.25794
C    -1.85227   0.38849  -1.04765
C    -1.63647   1.42464  -2.12689
O    -2.43428  -0.67807  -1.29284
N    -1.36542   0.02474   1.38029
C    -0.79508   0.67668   2.57254
C    -1.28243  -1.35313   1.37793
C    -2.29248  -2.20469   0.83581
N    -3.06084  -3.04250   0.57419
C     0.51855  -1.68551   0.17130
C     1.44773  -1.98868   1.33367
C     0.13538  -2.90834  -0.63659
H     4.00336   4.34124  -1.43042
H     2.98812   3.42302  -2.70356
H     2.56393   2.86021   1.39721
H     4.07704   3.61769   0.82930
H     3.96205   1.84724   1.01993
H     1.71518   1.48337  -2.11316
H     1.92357   0.61910   0.83765
H     0.38588  -0.51375  -1.61421
H    -1.11104   1.81888   0.40777
H    -0.67444   1.94630  -2.01106
H    -2.43502   2.18393  -2.06487
H    -1.68969   0.94323  -3.11284
H    -1.13761   0.15429   3.47294
H    -1.13185   1.71855   2.60818
H     0.30317   0.65321   2.52782
H    -0.96724  -1.74586   2.34805
H     1.08822  -2.85380   1.91003
H     1.56186  -1.14450   2.02612
H     2.45148  -2.24208   0.94832
H    -0.26755  -3.71214  -0.00330
H     1.03321  -3.30960  -1.13965
H    -0.60641  -2.66724  -1.41062
