19
Generated by autodE on: 2022-10-26. E = -531.718693 Ha
C    -1.90319  -0.18668  -1.11715
C    -1.17325   0.41898   0.06114
O    -1.72331   1.29187   0.73265
C     0.11192  -0.15222   0.48322
N     1.01084  -0.73014  -0.35005
C     1.27483  -0.67874  -1.64202
C     0.67065   0.21802  -2.54522
N     0.23778   0.98030  -3.31498
C     0.50508  -0.33919   1.89118
C    -0.33615   0.22112   3.00030
O     1.53451  -0.98204   2.13658
H    -1.43702  -1.09557  -1.51938
H    -2.00160   0.55247  -1.92647
H    -2.91814  -0.42839  -0.76543
H     1.68774  -1.27843   0.21496
H     2.08630  -1.31161  -2.00540
H    -1.38796  -0.08369   2.89685
H    -0.32183   1.32065   2.96504
H     0.06815  -0.12693   3.95962
