17
Generated by autodE on: 2022-10-21. E = -422.087861 Ha
C    -2.79230   0.55585   0.14942
O    -1.82478  -0.13206   0.94278
C    -0.60760  -0.34649   0.41023
C     0.39049  -1.10334   0.89512
C     1.57091  -0.79616  -0.04592
C     2.00510   0.67493   0.18227
C     1.00287   1.41256  -0.30340
C    -0.01833   0.37745  -0.83552
O     0.86943  -0.64782  -1.30537
H    -3.70750   0.60553   0.75308
H    -3.00364   0.01055  -0.78452
H    -2.46171   1.57971  -0.08732
H     0.43036  -1.69253   1.80876
H     2.36790  -1.54574  -0.10882
H     2.91399   0.98833   0.69562
H     0.85775   2.49218  -0.29921
H    -0.71610   0.70870  -1.61079
