36
Generated by autodE on: 2022-10-21. E = -953.807990 Ha. Imaginary frequency = -357.4 cm-1
C     3.16635  -2.23881  -0.09043
O     3.04367  -0.96016  -0.71229
C     2.43093  -0.01294   0.00909
C     1.87078   0.00088   1.23248
C     1.23535   1.39217   1.31671
O     2.21268   2.17939   0.57584
C     2.15065   1.35358  -0.61115
C     0.63773   1.42867  -0.92151
C    -0.06360  -0.76216  -1.66157
C    -0.88803  -0.11253  -2.61535
N    -1.50839   0.44507  -3.43068
N    -0.50879  -1.16835  -0.45526
C    -1.30931  -0.45404   0.38679
C    -2.59363   0.15061  -0.07375
C    -3.43909  -0.64483  -1.04107
O    -3.02335   1.18608   0.41911
C    -1.18299  -0.87303   1.80412
C    -1.92626  -0.11285   2.86460
O    -0.44830  -1.82062   2.08481
C     0.04090   1.49704   0.32503
H     3.75193  -2.16079   0.84008
H     3.68683  -2.89028  -0.80308
H     2.17490  -2.65981   0.14238
H     1.76819  -0.79601   1.96102
H     1.05908   1.80229   2.31678
H     2.83395   1.68809  -1.39878
H     0.25152   1.87224  -1.83590
H     0.79550  -1.30557  -2.05986
H     0.12523  -1.78623   0.06101
H    -2.90970  -1.47225  -1.52627
H    -3.87715   0.02259  -1.79609
H    -4.26489  -1.07022  -0.44493
H    -3.01236  -0.15882   2.69225
H    -1.64301   0.94997   2.84823
H    -1.68816  -0.54797   3.84346
H    -0.89571   1.99271   0.56993
