46
Generated by autodE on: 2022-06-05. E = -1375.631984 Ha
C     4.15030  -2.01810  -1.21655
O     3.20769  -0.93119  -1.13350
C     2.18857  -1.07762  -0.30664
O     2.00144  -2.01763   0.42936
C     1.22819   0.13957  -0.33746
C     1.56882   1.11271  -1.49501
C     2.53353   2.21389  -1.19520
O     1.03653   0.95537  -2.57524
O     1.40174   0.81108   0.90778
C     0.19635   0.85562   1.64701
C     0.43649   0.18582   2.94088
N     0.68805  -0.34134   3.94170
C    -0.23395   2.36710   1.79948
C    -0.78345   2.81674   3.10933
O    -0.09949   3.06334   0.82073
C    -0.81508   0.09078   0.80120
C    -0.21916  -0.31631  -0.32572
C    -0.84378  -1.17411  -1.43509
C     0.19827  -1.75390  -2.31099
N     0.97386  -2.25569  -3.00947
C    -1.51605  -2.34745  -0.83302
N    -2.06422  -3.26489  -0.38556
C    -1.85343  -0.41172  -2.37452
C    -3.13684   0.13090  -1.74518
C    -2.98305   1.35809  -0.82315
C    -3.13611   1.08452   0.67427
C    -2.25126  -0.04231   1.20566
F    -2.32223  -0.04550   2.60614
H     3.63605  -2.92388  -1.56660
H     4.90796  -1.70047  -1.94061
H     4.60488  -2.19845  -0.23296
H     3.38588   1.84466  -0.60746
H     2.01222   2.96514  -0.58072
H     2.86977   2.67250  -2.13384
H    -1.18744   3.83242   3.02006
H    -1.55576   2.11566   3.45942
H     0.02870   2.79966   3.85644
H    -1.27423   0.40045  -2.83120
H    -2.11560  -1.12511  -3.16942
H    -3.76735   0.41138  -2.60231
H    -3.68740  -0.67815  -1.23649
H    -3.74830   2.10240  -1.08846
H    -2.01328   1.84616  -1.01159
H    -4.17537   0.80609   0.91032
H    -2.91169   2.00291   1.23811
H    -2.64056  -1.01474   0.87779
