22
Generated by autodE on: 2022-06-05. E = -595.971278 Ha
N    -1.24180  -3.30810   1.31860
C    -0.87166  -2.44688   0.63801
C    -0.43506  -1.32031  -0.21106
C    -0.04229  -1.85280  -1.53423
N     0.24908  -2.23360  -2.58885
C     0.68849  -0.57328   0.37100
C     1.31409   0.43021   0.62727
C     1.64337   1.85007   0.72366
F     1.36692   2.29767   2.02150
C     0.73972   2.58341  -0.27561
C    -0.75644   2.21322  -0.22308
C    -1.25540   1.02019  -1.08647
C    -1.62705  -0.29570  -0.38005
H     2.70513   2.06057   0.52583
H     0.86645   3.65766  -0.06570
H     1.14397   2.40628  -1.28542
H    -1.05897   2.07252   0.82818
H    -1.30217   3.10449  -0.56679
H    -2.18186   1.34455  -1.58332
H    -0.54502   0.81765  -1.90596
H    -2.00763  -0.09993   0.63311
H    -2.41343  -0.82508  -0.93736
