20
Generated by autodE on: 2022-06-20. E = -457.715348 Ha
C    -3.11257   0.15876  -0.60731
N    -1.79422  -0.30597  -0.20729
C    -1.57013  -1.67708  -0.02872
C    -0.35372  -2.18648   0.22203
C     0.88855  -1.33759   0.33520
C     0.55640   0.12428   0.08481
C     1.60063   1.16136   0.11227
N     2.86049   0.73085   0.37316
O     1.37387   2.37204  -0.08849
C    -0.71949   0.53134  -0.16680
H    -3.15488   1.25207  -0.52180
H    -3.34544  -0.12244  -1.64885
H    -3.88428  -0.27228   0.04803
H    -2.46204  -2.30161  -0.10415
H    -0.26070  -3.26632   0.35861
H     1.35255  -1.47290   1.33408
H     1.66003  -1.69575  -0.37664
H     3.08353  -0.24253   0.53681
H     3.61135   1.41195   0.39700
H    -0.92849   1.58739  -0.34525
