21
Generated by autodE on: 2022-07-27. E = -570.106320 Ha
C     3.99627  -1.03784  -2.10253
N     3.40427  -0.50403  -0.89528
C     2.05993  -0.39195  -0.75437
O     1.27641  -0.74588  -1.65762
C     1.61800   0.16673   0.51609
N     0.33795   0.34050   0.82100
C    -0.81428   0.10039   0.17793
C    -2.01022   0.45028   0.89313
O    -2.03910   0.94292   2.02270
O    -3.12942   0.17957   0.18589
C    -4.37286   0.49683   0.81586
H     5.08742  -1.04309  -1.99144
H     3.73505  -0.43008  -2.98461
H     3.65707  -2.06872  -2.29616
H     4.00773  -0.20003  -0.13896
H     2.33236   0.47044   1.27971
H     0.17225   0.74782   1.75121
H    -0.80535  -0.33041  -0.81583
H    -4.44015   1.57359   1.03348
H    -4.49406  -0.06681   1.75331
H    -5.15676   0.21037   0.10429
