21
Generated by autodE on: 2022-06-20. E = -570.109183 Ha
C     4.64784  -1.17016   0.38617
N     3.60659  -0.20221   0.11896
C     2.28611  -0.48793   0.16786
O     1.83228  -1.61514   0.44955
C     1.38830   0.62534  -0.13511
N     0.09807   0.35242  -0.08943
C    -0.99417   1.09469  -0.29873
C    -2.25886   0.43204  -0.15481
O    -2.40574  -0.75572   0.13924
O    -3.30162   1.26388  -0.38085
C    -4.60772   0.69676  -0.25800
H     5.27713  -0.85382   1.23351
H     4.18215  -2.13123   0.63340
H     5.29853  -1.30865  -0.49233
H     3.87774   0.74717  -0.11816
H     1.72261   1.63178  -0.38631
H    -0.09304  -0.63419   0.15895
H    -0.89429   2.14544  -0.56275
H    -4.77678   0.31468   0.76026
H    -4.75016  -0.12413  -0.97716
H    -5.31372   1.50798  -0.47361
