41
Generated by autodE on: 2022-06-20. E = -1027.808429 Ha. Imaginary frequency = -398.1 cm-1
C     3.78239   0.08881  -2.48017
N     3.18583   0.42262  -1.20340
C     1.89595   0.81124  -1.10385
O     1.19223   1.00081  -2.10879
C     1.41133   1.00735   0.28437
N     0.23251   1.63101   0.50785
C    -0.91690   1.21574  -0.12019
C    -2.14833   1.63408   0.52887
O    -2.21660   2.09946   1.66247
O    -3.23895   1.38929  -0.22162
C    -4.50790   1.64561   0.38685
C    -0.71323  -0.97097   0.26676
N    -1.05273  -1.64024  -0.90891
C    -2.38348  -1.46083  -1.45944
C    -0.03739  -2.10381  -1.74317
C     1.22261  -2.29226  -1.31600
C     1.59030  -2.03819   0.12097
C     0.62778  -1.04799   0.76053
C     0.76557  -0.75189   2.20262
N     1.86842  -1.22407   2.83009
O    -0.08071  -0.07541   2.82012
H     3.97639   0.98843  -3.08800
H     3.11832  -0.57228  -3.05697
H     4.73501  -0.42617  -2.30476
H     3.71906   0.26921  -0.35423
H     2.17913   1.19411   1.03763
H     0.07010   1.87318   1.48689
H    -0.88981   1.08629  -1.19654
H    -4.61442   2.71217   0.63515
H    -4.62910   1.04820   1.30261
H    -5.26362   1.35587  -0.35292
H    -1.51883  -0.89926   0.99638
H    -2.63747  -2.31500  -2.10260
H    -2.46955  -0.53478  -2.05442
H    -3.11776  -1.40937  -0.64375
H    -0.34362  -2.31852  -2.76935
H     1.97532  -2.67300  -2.00799
H     1.57544  -2.99044   0.69426
H     2.62856  -1.67721   0.19206
H     2.59265  -1.73655   2.34368
H     2.01575  -0.97751   3.80273
