31
Generated by autodE on: 2022-10-06. E = -1063.052403 Ha
C    -2.36205   3.38167   0.72306
O    -1.37250   2.35999   0.91642
C    -1.28266   1.43924  -0.03898
O    -2.04054   1.37712  -0.98683
C    -0.20121   0.38633   0.21169
C    -0.93045  -0.90570   0.59335
C    -0.93284  -1.38349   1.91013
C    -1.60597  -2.56588   2.23442
C    -2.29073  -3.28078   1.24936
C    -2.30097  -2.80205  -0.06544
C    -1.62673  -1.62424  -0.39080
N     0.69336   0.79450   1.33993
N     1.89015   0.66258   1.05932
C     2.11246   0.13322  -0.29988
C     2.70897  -1.30881  -0.12580
O     1.90569  -2.26899  -0.17798
O     3.94364  -1.35531   0.08015
C     0.75300   0.23489  -1.00243
C     0.75821   1.46288  -1.93573
O     0.67486   2.59131  -1.37608
O     0.89268   1.24904  -3.16485
H    -3.36645   2.94053   0.65124
H    -2.29577   4.03623   1.59974
H    -2.14229   3.94827  -0.19347
H    -0.40263  -0.83296   2.68668
H    -1.59087  -2.92793   3.26530
H    -2.81426  -4.20573   1.50264
H    -2.83423  -3.35120  -0.84518
H    -1.64356  -1.25771  -1.41792
H     2.89881   0.74376  -0.76303
H     0.54340  -0.67190  -1.57493
