21
Generated by autodE on: 2022-10-06. E = -607.966444 Ha
C     3.90372   0.95296  -0.45143
O     2.79195   0.07542  -0.23117
C     1.57085   0.63857  -0.22938
O     1.38577   1.82899  -0.41363
C     0.51529  -0.34911   0.02051
N     0.93948  -1.57907   0.23288
N     1.28572  -2.64006   0.41812
C    -0.93844  -0.09765   0.08156
C    -1.49050   1.11118  -0.38549
C    -2.86885   1.32719  -0.32473
C    -3.72488   0.35136   0.19236
C    -3.18452  -0.85309   0.65423
C    -1.80915  -1.07638   0.60287
H     3.95612   1.71710   0.33780
H     4.79699   0.31827  -0.42207
H     3.82055   1.44467  -1.43152
H    -0.83820   1.87931  -0.79405
H    -3.27486   2.27267  -0.69254
H    -4.80215   0.52644   0.23549
H    -3.83735  -1.62749   1.06386
H    -1.41355  -2.02206   0.97890
