31
Generated by autodE on: 2022-10-06. E = -1062.996209 Ha. Imaginary frequency = -451.1 cm-1
C    -1.66579   3.76834   0.08782
O    -1.04034   2.59371   0.62403
C    -1.43234   1.42162   0.11274
O    -2.34539   1.30493  -0.68209
C    -0.57758   0.29595   0.57385
C    -1.09394  -1.09006   0.63802
C    -0.74940  -1.93643   1.70665
C    -1.17781  -3.26433   1.72543
C    -1.95192  -3.77212   0.67791
C    -2.28298  -2.93989  -0.39628
C    -1.85785  -1.61098  -0.42380
N     0.30569   0.66000   1.56040
N     1.44731   0.87097   1.64564
C     2.14900   0.46945  -0.28436
C     3.03892  -0.65300   0.21848
O     2.49992  -1.77820   0.41659
O     4.24901  -0.36676   0.42189
C     0.99060   0.19111  -1.01440
C     0.42508   1.14644  -2.04474
O    -0.27163   0.62686  -2.95964
O     0.66945   2.37809  -1.91125
H    -1.22175   4.61500   0.62383
H    -1.45319   3.84501  -0.98768
H    -2.75200   3.74064   0.25427
H    -0.14682  -1.55426   2.53235
H    -0.90474  -3.90466   2.56749
H    -2.28793  -4.81137   0.69451
H    -2.87130  -3.33013  -1.23027
H    -2.08260  -0.98116  -1.28210
H     2.62113   1.44778  -0.40805
H     0.75192  -0.85963  -1.18276
