10
Generated by autodE on: 2022-10-06. E = -455.051707 Ha
O     2.86316   0.64652  -0.46125
C     1.97003  -0.04153   0.10754
O     2.16961  -0.97458   0.93351
C     0.54007   0.30713  -0.25099
C    -0.53986  -0.30665   0.25127
C    -1.96991   0.04143  -0.10767
O    -2.86289  -0.64837   0.45923
O    -2.17014   0.97612  -0.93161
H     0.40491   1.12184  -0.97058
H    -0.40467  -1.12137   0.97085
