28
Generated by autodE on: 2022-10-06. E = -1003.526662 Ha. Imaginary frequency = -336.6 cm-1
N    -1.55464   1.39375   3.16719
C    -1.35605   1.52528   2.02491
C    -1.13242   1.69531   0.63251
C    -1.99765   2.54460  -0.10302
N    -2.73290   3.21724  -0.70969
N     0.05126   1.32847   0.10581
C     0.70529   0.36539  -0.22283
C     2.07087   0.00793  -0.49455
C     2.38947  -1.13342  -1.25506
C     3.72463  -1.43953  -1.50959
C     4.74198  -0.62637  -0.99980
C     4.43017   0.50483  -0.23453
C     3.10133   0.82842   0.01766
C    -0.73031  -1.33520  -0.15489
C     0.02516  -2.06091   0.94780
O     0.65526  -3.09745   0.60954
O    -0.02794  -1.56549   2.10578
C    -1.95080  -0.74909   0.07137
C    -2.83894  -0.26692  -1.04886
O    -2.32754  -0.17105  -2.19983
O    -4.02950   0.01932  -0.74151
H     1.59675  -1.77395  -1.63670
H     3.97362  -2.32017  -2.10473
H     5.78691  -0.87567  -1.19796
H     5.22760   1.13616   0.16261
H     2.84263   1.70859   0.60830
H    -0.49078  -1.58783  -1.19178
H    -2.37226  -0.73483   1.07854
