40
Generated by autodE on: 2022-06-18. E = -940.112657 Ha
C    -2.89912   2.31245  -1.57046
C    -2.84468   1.42489  -0.36259
O    -3.72164   1.41444   0.48711
C    -1.64487   0.52591  -0.20595
N    -0.59207   0.74541  -0.89671
C     0.45252  -0.20519  -0.50935
C     1.19257  -0.72549  -1.75947
C     1.47114   0.25081  -2.85958
O     1.55123  -1.88917  -1.80162
C     1.54882   0.49065   0.31444
C     1.52425   1.86934   0.55831
C     2.53359   2.46765   1.31919
C     3.57916   1.69782   1.83532
C     3.61312   0.32213   1.58381
C     2.60617  -0.27728   0.82546
C    -0.26209  -1.32673   0.30739
C    -0.59836  -2.54751  -0.51342
O    -0.49581  -3.68135  -0.08809
C    -1.57187  -0.61210   0.80711
C    -2.81069  -1.51973   0.80191
C    -1.35450  -0.03716   2.22009
H    -2.85960   1.70222  -2.48671
H    -3.82248   2.90505  -1.55072
H    -2.02221   2.97691  -1.59209
H     0.53619   0.41463  -3.42022
H     2.23255  -0.15719  -3.53669
H     1.78277   1.22669  -2.46156
H     0.70972   2.47600   0.16359
H     2.49815   3.54285   1.50984
H     4.36573   2.16717   2.43064
H     4.42736  -0.28916   1.97976
H     2.64215  -1.35043   0.62801
H     0.33597  -1.67062   1.15874
H    -1.03205  -2.35788  -1.52250
H    -3.66887  -0.99595   1.24181
H    -3.09072  -1.83408  -0.21467
H    -2.61338  -2.42304   1.39807
H    -2.21865   0.57209   2.52018
H    -0.45276   0.58968   2.26818
H    -1.24187  -0.86310   2.93892
