26
Generated by autodE on: 2022-06-18. E = -669.357274 Ha
C     4.33162   0.69782   0.59070
C     3.04837   1.31762   0.12495
O     2.80524   2.51830   0.11517
C     2.06158   0.39913  -0.41934
N     1.06138  -0.20089  -0.17467
C    -0.07252  -0.82231   0.00829
C     0.02704  -2.23817   0.42194
C     1.41636  -2.81569   0.55694
O    -0.96935  -2.91835   0.65536
C    -1.31341  -0.04218  -0.17687
C    -1.24398   1.36571  -0.26354
C    -2.39477   2.12693  -0.45977
C    -3.64368   1.50576  -0.56983
C    -3.72427   0.11325  -0.48362
C    -2.57645  -0.65792  -0.28978
H     4.94358   0.44165  -0.29066
H     4.87699   1.42033   1.21288
H     4.14148  -0.23281   1.14765
H     1.97536  -2.72151  -0.38783
H     1.98925  -2.27653   1.32826
H     1.33572  -3.87407   0.83406
H    -0.28128   1.87235  -0.16927
H    -2.31488   3.21483  -0.52126
H    -4.54571   2.10328  -0.72014
H    -4.69273  -0.38509  -0.57196
H    -2.65208  -1.74029  -0.22696
