14
Generated by autodE on: 2022-06-18. E = -270.687345 Ha
C    -0.75769  -2.13578  -0.65162
C    -0.63111  -0.68326  -0.30606
C    -1.89518   0.11035  -0.44921
C     0.56319  -0.17831   0.10111
C     0.81947   1.20419   0.46461
O     1.91786   1.61593   0.83040
H    -1.52786  -2.60997  -0.01885
H    -1.10507  -2.24832  -1.69330
H     0.18937  -2.67929  -0.52989
H    -2.67822  -0.32808   0.19256
H    -2.26535   0.02745  -1.48517
H    -1.79201   1.17221  -0.19852
H     1.43044  -0.84316   0.17380
H    -0.03787   1.91145   0.40174
