40
Generated by autodE on: 2022-06-18. E = -940.042257 Ha. Imaginary frequency = -332.0 cm-1
C    -3.43525   1.82925  -1.69048
C    -2.63407   1.86925  -0.42794
O    -2.81744   2.63003   0.50529
C    -1.55948   0.84513  -0.31487
N    -0.41995   0.84817  -0.74018
C     0.73055   0.20813  -0.78209
C     0.96238  -0.60753  -2.01084
C    -0.12900  -0.59833  -3.05098
O     1.98128  -1.27162  -2.15293
C     1.73462   0.51470   0.24906
C     1.50977   1.59191   1.13358
C     2.40535   1.86266   2.16522
C     3.54362   1.06659   2.33859
C     3.77362  -0.00262   1.46851
C     2.88437  -0.28105   0.42914
C    -0.62890  -1.52152   0.78878
C    -0.18153  -2.56466  -0.08316
O     0.89680  -3.16717   0.03780
C    -1.90163  -0.91890   0.78652
C    -3.03169  -1.49522  -0.04586
C    -2.33735  -0.26656   2.08510
H    -3.93918   0.85201  -1.76760
H    -4.17597   2.63974  -1.68805
H    -2.76316   1.91561  -2.55957
H    -1.08697  -0.92224  -2.61615
H     0.15273  -1.27392  -3.86778
H    -0.27842   0.42008  -3.44302
H     0.62744   2.22245   1.00950
H     2.21524   2.70304   2.83673
H     4.24609   1.27997   3.14743
H     4.65521  -0.63443   1.59997
H     3.06059  -1.12542  -0.23018
H     0.06805  -1.24829   1.58572
H    -0.86575  -2.84238  -0.91696
H    -3.88460  -0.80231  -0.07681
H    -2.72996  -1.71812  -1.07819
H    -3.38543  -2.43236   0.41628
H    -3.15433   0.45276   1.93675
H    -1.49847   0.24322   2.58108
H    -2.71165  -1.05111   2.76595
