28
Generated by autodE on: 2022-06-16. E = -781.993923 Ha
C    -2.83216   2.16399  -0.64383
O    -2.20514   0.86784  -0.61966
C    -1.03060   0.77808  -0.01179
O    -0.45416   1.69719   0.52423
C    -0.47514  -0.65787  -0.08288
C    -1.47499  -1.62271   0.58525
C    -1.32416  -1.82256   2.05986
O    -2.33071  -2.14976  -0.09412
C    -0.10394  -1.04235  -1.52212
C     1.27614  -0.40370  -1.67381
N     1.75908  -0.30476  -0.28953
C     2.62494   0.66583   0.12927
C     2.67265   0.94408   1.60554
O     3.34517   1.22032  -0.70245
O     0.76004  -0.72444   0.62377
H    -2.19467   2.88087  -1.17996
H    -3.00810   2.51784   0.38155
H    -3.78247   2.02681  -1.17110
H    -2.15758  -2.42157   2.44763
H    -0.36726  -2.33276   2.25614
H    -1.27283  -0.84608   2.56826
H    -0.82688  -0.67166  -2.25664
H    -0.05086  -2.13676  -1.59190
H     1.22685   0.60557  -2.10920
H     1.95437  -1.01600  -2.28264
H     3.50418   1.63058   1.80660
H     2.80183   0.01582   2.18091
H     1.72445   1.40215   1.92306
