22
Generated by autodE on: 2022-06-16. E = -703.259223 Ha
C    -2.29730   0.28098  -2.76653
O    -1.49727  -0.32312  -1.72392
C    -1.35792   0.35992  -0.61043
O    -1.83490   1.43681  -0.34322
C    -0.51504  -0.37643   0.40334
O     0.72199  -0.14688   0.51079
N     1.33977   0.70305  -0.37483
C     2.66072   0.80233   0.00623
C     3.44189   1.69781  -0.91985
O     3.17031   0.24213   0.97717
C    -1.14541  -1.30783   1.38689
C    -0.25072  -1.99638   2.36350
O    -2.35421  -1.44888   1.30687
H    -2.28927  -0.43355  -3.59607
H    -3.32088   0.44314  -2.40244
H    -1.84868   1.23622  -3.07141
H     4.25509   1.11060  -1.37519
H     3.90639   2.50161  -0.32773
H     2.81832   2.13394  -1.71043
H     0.36403  -2.73552   1.82166
H     0.44411  -1.28151   2.82911
H    -0.85837  -2.50620   3.12110
