25
Generated by autodE on: 2022-06-24. E = -631.239829 Ha
C    -3.07674   2.67785  -0.74094
C    -2.08486   1.66276  -0.48065
N    -1.28459   0.82442  -0.25384
C    -0.36577  -0.13747   0.00667
C    -0.88441  -1.46566   0.18677
O    -0.23490  -2.48428   0.43127
O    -2.24464  -1.51540   0.05635
C    -2.85106  -2.79398   0.23201
C     1.04150   0.26650   0.05043
C     1.41381   1.60072  -0.24276
C     2.74755   2.00673  -0.20492
C     3.76158   1.10150   0.12558
C     3.41012  -0.22025   0.41869
C     2.07856  -0.63669   0.38486
H    -4.06928   2.24156  -0.54258
H    -3.03428   3.01456  -1.78850
H    -2.92878   3.53460  -0.06485
H    -2.50020  -3.50922  -0.52794
H    -2.63662  -3.20342   1.23108
H    -3.93128  -2.63632   0.12049
H     0.64968   2.33432  -0.50681
H     2.99495   3.04564  -0.43865
H     4.80582   1.42071   0.15438
H     4.18509  -0.94544   0.68154
H     1.82712  -1.66853   0.61787
