26
Generated by autodE on: 2022-06-24. E = -689.460887 Ha
C     3.08230   0.69812  -0.73218
O     2.25090   0.59996   0.42908
C     0.93992   0.29805   0.19352
C     0.39105  -0.91672   0.47682
O     0.97010  -2.00906   0.97391
C     2.36325  -2.06806   1.29689
C    -1.07825  -1.14709   0.23838
O    -1.55223  -2.24478   0.49720
C    -1.91168  -0.04841  -0.31376
C    -3.36363  -0.32930  -0.54942
C    -1.35439   1.15642  -0.59148
C    -2.15524   2.28909  -1.15156
C     0.09544   1.39761  -0.32123
O     0.59596   2.50396  -0.51593
H     4.09068   0.94765  -0.37614
H     2.72972   1.48789  -1.41220
H     3.11259  -0.26399  -1.27031
H     2.52540  -3.08041   1.68819
H     2.98282  -1.91726   0.40149
H     2.62246  -1.32644   2.06354
H    -3.61451  -0.21231  -1.61686
H    -3.62706  -1.34657  -0.23674
H    -3.99406   0.38683   0.00252
H    -2.63750   1.99395  -2.09792
H    -1.52747   3.16944  -1.33152
H    -2.96806   2.56947  -0.46072
