51
Generated by autodE on: 2022-06-24. E = -1320.710358 Ha. Imaginary frequency = -395.5 cm-1
C     1.53638   4.10579   0.72340
O     1.60729   2.67375   0.68585
C     1.12958   2.07032  -0.40683
O     0.59056   2.67386  -1.32273
C     1.31503   0.60355  -0.40546
C     2.21988  -0.15198   0.46829
C     2.39938   0.17271   1.83037
C     3.21441  -0.61796   2.64169
C     3.87719  -1.73276   2.12094
C     3.71620  -2.05632   0.76865
C     2.89580  -1.28066  -0.04531
N     0.92153   0.02491  -1.55268
C     0.09262  -0.70405  -2.04894
C    -0.13744  -1.41366  -3.31055
C    -1.39060  -1.16323  -0.66452
O    -1.61487  -2.47065  -1.04931
C    -2.78649  -3.06584  -0.48388
C    -2.32122  -0.15301  -1.27199
O    -3.03548  -0.48721  -2.21656
C    -2.33661   1.22104  -0.72745
C    -3.08598   2.26852  -1.49572
C    -1.74864   1.47826   0.47154
C    -1.83729   2.82683   1.11343
C    -1.01309   0.42347   1.23188
O    -0.62366   0.62976   2.39310
C    -0.84865  -0.88753   0.61085
O    -0.22562  -1.77170   1.40230
C     0.25892  -3.03700   0.93766
H     2.10414   4.53710  -0.11369
H     0.49438   4.44761   0.67426
H     1.98596   4.40083   1.67844
H     1.88308   1.02738   2.25584
H     3.32995  -0.35674   3.69634
H     4.51966  -2.34162   2.76107
H     4.23420  -2.91968   0.34468
H     2.78074  -1.54427  -1.09787
H     0.19115  -2.45690  -3.18036
H    -1.20901  -1.42357  -3.55099
H     0.43999  -0.94627  -4.12113
H    -2.75415  -3.03434   0.61751
H    -2.79773  -4.11168  -0.81813
H    -3.69843  -2.56018  -0.83633
H    -3.89315   2.71327  -0.89145
H    -2.40724   3.08928  -1.78093
H    -3.52618   1.84558  -2.40688
H    -1.12139   2.91995   1.93812
H    -1.66006   3.62587   0.37969
H    -2.85003   2.98893   1.52291
H    -0.54125  -3.79076   0.95822
H     1.04808  -3.32355   1.64424
H     0.67836  -2.96548  -0.07154
