43
Generated by autodE on: 2022-10-21. E = -979.396829 Ha
C     3.90191   3.02292  -0.39063
O     2.55036   2.74251  -0.03496
C     2.32615   1.52828   0.48941
C     3.12497   0.48260   0.77575
C     2.14802  -0.61187   1.18294
O     1.08672   0.14225   1.81856
C     0.89837   1.06439   0.73544
C     0.55450   0.12412  -0.46315
C     1.41007  -1.12749  -0.08718
C     0.37178  -2.22260   0.23678
C     0.37840  -3.39373  -0.74689
C    -0.84650  -4.26429  -0.79089
O     1.36701  -3.64609  -1.41864
N    -0.93899  -1.57747   0.37879
C    -0.91231  -0.40616  -0.52762
C    -1.20205  -0.86428  -1.96880
C    -1.95683   0.62809  -0.13414
C    -2.99632   0.33761   0.76023
C    -3.95914   1.30291   1.07913
C    -3.90130   2.57392   0.50471
C    -2.87190   2.87324  -0.39549
C    -1.91354   1.90950  -0.71151
H     3.92013   4.03907  -0.80419
H     4.26185   2.30514  -1.14626
H     4.55607   2.97182   0.49558
H     4.19663   0.36296   0.63280
H     2.52173  -1.39699   1.85148
H     0.16737   1.84041   0.98151
H     0.84614   0.59467  -1.41010
H     2.11185  -1.45101  -0.86288
H     0.61507  -2.71640   1.19498
H    -0.63017  -5.18415  -1.35027
H    -1.66562  -3.71851  -1.28325
H    -1.19241  -4.50233   0.22629
H    -0.97249  -1.20830   1.32833
H    -0.44355  -1.57463  -2.33077
H    -1.19227  -0.00214  -2.65073
H    -2.18967  -1.34457  -2.02564
H    -3.06399  -0.65279   1.21064
H    -4.75960   1.05366   1.78018
H    -4.65183   3.32776   0.75409
H    -2.81394   3.86431  -0.85223
H    -1.11322   2.15996  -1.41145
