17
Generated by autodE on: 2022-10-21. E = -422.087868 Ha
C     2.66688  -0.85064   0.54050
O     1.67765  -0.05264   1.19125
C     0.57834   0.28412   0.49187
C    -0.38699   1.15538   0.82818
C    -1.45021   0.96253  -0.26976
C    -2.07434  -0.44691  -0.10074
C    -1.10287  -1.29979  -0.43721
C     0.09261  -0.39422  -0.82215
O    -0.59982   0.71343  -1.41666
H     3.47964  -0.98668   1.26534
H     3.06123  -0.34519  -0.35573
H     2.26496  -1.83764   0.26128
H    -0.48835   1.76360   1.72441
H    -2.14126   1.79424  -0.44761
H    -3.07590  -0.64808   0.27903
H    -1.08197  -2.38859  -0.40894
H     0.85128  -0.81576  -1.48879
