43
Generated by autodE on: 2022-10-21. E = -979.306637 Ha. Imaginary frequency = -325.6 cm-1
C     4.03826   3.30272   0.16983
O     2.66721   2.92277   0.26042
C     2.43888   1.62471   0.50331
C     3.24057   0.55966   0.69408
C     2.24771  -0.61483   0.79265
O     1.13543   0.02838   1.46826
C     0.99444   1.08915   0.50475
C     0.81646   0.27540  -0.79076
C     1.61221  -0.83550  -0.60065
C     0.02026  -2.50396   0.12377
C     0.02716  -3.54053  -0.87335
C     1.30072  -4.36055  -0.94305
O    -0.91112  -3.79824  -1.65006
N    -0.96682  -1.56412   0.30543
C    -1.37365  -0.63363  -0.58568
C    -1.44298  -0.95886  -2.04683
C    -2.17385   0.48381  -0.04310
C    -2.74963   0.43190   1.24383
C    -3.43179   1.52914   1.77228
C    -3.56551   2.70464   1.02838
C    -3.01026   2.76804  -0.25458
C    -2.32816   1.67403  -0.78482
H     4.05984   4.38189  -0.02749
H     4.53710   2.76236  -0.65182
H     4.56419   3.08656   1.11466
H     4.32476   0.48034   0.67571
H     2.58725  -1.50354   1.33603
H     0.20937   1.80357   0.77740
H     0.54588   0.73180  -1.74065
H     2.06676  -1.45741  -1.36987
H     0.57789  -2.71806   1.03488
H     1.97518  -4.18533  -0.09357
H     1.83676  -4.09516  -1.87023
H     1.04973  -5.43074  -1.00744
H    -0.94099  -1.19343   1.25302
H    -1.61402  -0.05276  -2.63866
H    -2.27486  -1.65746  -2.23699
H    -0.52541  -1.43949  -2.39973
H    -2.69159  -0.48259   1.83709
H    -3.87192   1.45741   2.76971
H    -4.10128   3.56220   1.44154
H    -3.10429   3.68091  -0.84750
H    -1.88361   1.75786  -1.77694
