22
Generated by autodE on: 2022-06-16. E = -458.838082 Ha
C    -2.81136   0.05108  -0.71484
C    -1.46642  -0.06605  -0.03787
O    -0.72409  -1.12479  -0.71731
N     0.64989  -0.81188  -0.56195
C     1.15398  -1.33644   0.56786
N     1.64225  -1.86951   1.48487
C     0.73294   0.65898  -0.77654
C     2.05809   1.24060  -0.32866
C    -0.56160   1.18976  -0.10218
C    -0.37354   1.81892   1.27531
H    -3.41636   0.81362  -0.20116
H    -2.68970   0.34881  -1.76789
H    -3.35694  -0.90415  -0.67463
H    -1.58850  -0.37820   1.01416
H     0.63187   0.77754  -1.86385
H     2.88941   0.77071  -0.87517
H     2.22977   1.10936   0.74921
H     2.07146   2.31789  -0.54796
H    -1.01394   1.93068  -0.77796
H     0.23156   2.73599   1.22343
H    -1.35303   2.08829   1.70149
H     0.11427   1.12131   1.97447
