10
Generated by autodE on: 2022-06-16. E = -301.453760 Ha
C    -2.51357  -0.59795  -0.28955
C    -1.07439  -0.41108  -0.09467
O    -0.57236   0.73411  -0.25901
N     0.81687   1.08068  -0.09877
C     1.52978   0.03250   0.25110
N     2.25226  -0.84545   0.56548
H    -2.66698  -1.38839  -1.04546
H    -2.94515  -0.98644   0.65050
H    -3.01128   0.33266  -0.58954
H    -0.41556  -1.24299   0.19639
