22
Generated by autodE on: 2022-06-16. E = -458.757654 Ha. Imaginary frequency = -220.2 cm-1
C    -2.76026  -0.04616  -0.16036
C    -1.31642  -0.35087  -0.02163
O    -0.81081  -1.07869  -0.97080
N     0.55955  -1.45188  -0.93697
C     0.98187  -1.69164   0.28309
N     1.46921  -1.92557   1.33252
C     0.91287   1.26048  -0.67260
C     2.14202   1.20469   0.16869
C    -0.31797   1.66375  -0.22039
C    -0.53547   2.21961   1.16145
H    -3.02718   0.85170   0.41191
H    -3.03818   0.07438  -1.21633
H    -3.33100  -0.89133   0.26514
H    -0.85856  -0.41323   0.97216
H     1.01705   1.03549  -1.73620
H     2.98409   0.75236  -0.37206
H     1.97593   0.62251   1.09176
H     2.43616   2.22088   0.48826
H    -1.06841   1.90266  -0.98026
H    -0.21511   3.27536   1.20257
H    -1.59605   2.19182   1.45173
H     0.04429   1.67327   1.92066
