47
Generated by autodE on: 2022-10-21. E = -1110.973551 Ha. Imaginary frequency = -362.9 cm-1
C    -1.18916   2.42605   1.97468
O    -0.21800   1.69640   1.23824
C    -0.57638   1.07378   0.06584
C    -1.25740   1.91507  -1.02156
C    -0.18017   2.94101  -1.48161
C     0.83030   2.05412  -2.27215
C     0.24101   0.61670  -2.09434
C    -1.25393   0.94740  -2.20762
C     0.45060   0.30089  -0.60727
C     1.81553   0.04161  -0.12934
C     2.77734  -0.46160  -1.04061
C     4.08660  -0.73224  -0.64811
C     4.49100  -0.51087   0.67355
C     3.55739  -0.02579   1.59216
C     2.24272   0.24098   1.20468
C    -0.59636  -1.90957  -0.29662
C    -0.05447  -2.86224  -1.29053
C    -0.12246  -1.76632   1.06354
O     0.81315  -2.26369   1.65769
O    -0.99913  -0.88073   1.68563
C    -1.85409  -0.40560   0.68190
C    -3.11829   0.10541   1.11743
N    -4.13436   0.58976   1.41015
N    -1.84967  -1.37662  -0.31550
C    -2.93166  -1.71328  -1.22479
H    -0.63957   3.15749   2.58338
H    -1.89554   2.96197   1.32422
H    -1.74990   1.76136   2.65092
H    -2.22358   2.34976  -0.73830
H    -0.63823   3.70577  -2.12567
H     0.28149   3.45288  -0.62578
H     1.85819   2.13256  -1.89411
H     0.84281   2.31756  -3.34082
H     0.62954  -0.12250  -2.80446
H    -1.48708   1.45767  -3.15394
H    -1.92676   0.10030  -2.11163
H     2.49274  -0.64761  -2.07599
H     4.79834  -1.11900  -1.38196
H     5.51839  -0.71869   0.98169
H     3.85109   0.14551   2.63111
H     1.53488   0.60851   1.94114
H    -0.20458  -2.49362  -2.31576
H     1.02194  -2.98994  -1.10978
H    -0.53623  -3.85150  -1.20637
H    -3.65715  -0.89223  -1.26054
H    -2.54059  -1.88661  -2.23475
H    -3.44158  -2.62551  -0.87833
