37
Generated by autodE on: 2022-06-17. E = -859.071411 Ha
C     3.98045   0.67598   1.58734
O     3.13422   0.55840   0.43433
C     1.91432   0.04275   0.62334
O     1.52767  -0.33268   1.71235
C     1.10713   0.05136  -0.68920
C     1.89016  -0.74085  -1.73889
N     0.91252   1.45379  -1.12827
C    -0.33285   1.99139  -0.55642
C    -0.93898   0.84035   0.26637
N    -2.38808   0.83421   0.39187
C    -2.94908   1.96637   1.11059
C    -3.11491   0.31001  -0.67277
C    -2.57681  -0.42477  -1.66326
C    -1.09783  -0.66357  -1.77519
C    -0.35561  -0.41648  -0.43094
C    -0.45411  -1.70904   0.38335
N    -1.44516  -1.75794   1.28672
O     0.28893  -2.67222   0.15796
H     3.51577   1.33064   2.33879
H     4.91918   1.11449   1.22998
H     4.16618  -0.31334   2.02938
H     2.85665  -0.25161  -1.92241
H     1.33888  -0.77013  -2.68709
H     2.07440  -1.76841  -1.40009
H     1.72343   2.01406  -0.88031
H    -1.03506   2.28916  -1.35432
H    -0.15008   2.87760   0.06862
H    -0.53354   0.88624   1.28607
H    -2.86648   2.91654   0.54883
H    -4.01355   1.78476   1.31980
H    -2.42470   2.08933   2.07027
H    -4.19269   0.48566  -0.61433
H    -3.23645  -0.85476  -2.41987
H    -0.66833  -0.00196  -2.54446
H    -0.89047  -1.68970  -2.11597
H    -1.60682  -2.62091   1.79603
H    -2.08326  -0.96976   1.39135
