17
Generated by autodE on: 2022-07-27. E = -401.312979 Ha
C    -2.17252   2.07787   0.38189
N    -1.20984   1.20821   0.57178
C    -0.52202   0.44189  -0.31952
C    -0.85545   0.54718  -1.76513
C     0.46625  -0.39362   0.28050
O     0.70844  -0.44761   1.49677
O     1.15187  -1.15897  -0.61296
C     2.15320  -2.01917  -0.07387
H    -2.58537   2.58400   1.25250
H    -2.53781   2.27628  -0.62459
H    -0.89752   1.05338   1.53809
H    -0.22587  -0.12428  -2.36003
H    -0.71288   1.57820  -2.14267
H    -1.91450   0.28895  -1.95913
H     1.71803  -2.74604   0.62924
H     2.59333  -2.54903  -0.92801
H     2.93389  -1.44440   0.44792
