20
Generated by autodE on: 2022-06-17. E = -457.715309 Ha
C    -3.06881  -0.79657  -0.24178
N    -1.82826  -0.08020   0.00520
C    -1.87524   1.24089   0.46833
C    -0.77000   1.96227   0.71328
C     0.62613   1.42469   0.51683
C     0.57699  -0.00219  -0.00470
C     1.80884  -0.75020  -0.30027
N     2.97396  -0.09515  -0.06509
O     1.81727  -1.91677  -0.74371
C    -0.60783  -0.64171  -0.21833
H    -3.66954  -0.29456  -1.01789
H    -3.67555  -0.86199   0.67585
H    -2.83863  -1.81412  -0.58148
H    -2.88044   1.64039   0.61491
H    -0.88741   2.98731   1.07239
H     1.19144   2.07984  -0.17713
H     1.19282   1.47967   1.46921
H     3.84717  -0.57564  -0.25192
H     3.00766   0.84714   0.30234
H    -0.61345  -1.66733  -0.59082
