37
Generated by autodE on: 2022-06-17. E = -859.020695 Ha. Imaginary frequency = -489.6 cm-1
C     4.00638  -1.31034   0.09549
O     2.91621  -0.60954  -0.51102
C     2.28962   0.30587   0.25400
O     2.63158   0.54750   1.40861
C     1.14851   0.91982  -0.40932
C     0.93833   0.88105  -1.88550
N     0.45082   1.78305   0.35896
C    -0.84683   2.09069   0.09652
C    -1.84988   0.36563   0.36135
N    -2.93119   0.44166  -0.54403
C    -3.83389   1.57376  -0.44052
C    -2.79035  -0.18922  -1.77061
C    -1.85492  -1.12706  -2.02225
C    -0.90375  -1.61805  -0.96275
C    -0.90853  -0.69334   0.23774
C    -0.11225  -0.97642   1.41081
N     0.66574  -2.11265   1.39915
O    -0.12719  -0.24941   2.43389
H     3.66530  -1.86791   0.97972
H     4.38027  -2.00545  -0.66555
H     4.80268  -0.61176   0.39197
H     1.69028   0.24516  -2.36409
H    -0.05874   0.51087  -2.17521
H     1.03156   1.90084  -2.30092
H     0.72736   1.76980   1.34358
H    -1.08912   2.25177  -0.95513
H    -1.30037   2.79280   0.79861
H    -2.12703   0.62863   1.38468
H    -3.43488   2.48885  -0.91604
H    -4.79214   1.33027  -0.92111
H    -4.02766   1.79313   0.61903
H    -3.51107   0.11811  -2.53224
H    -1.83179  -1.59365  -3.00920
H     0.11603  -1.72148  -1.38171
H    -1.18049  -2.64897  -0.65400
H     1.40323  -2.12941   2.09786
H     0.92511  -2.51520   0.50462
