30
Generated by autodE on: 2022-05-26. E = -912.431670 Ha
C     4.22708  -0.47438  -0.45451
O     2.91329  -0.82776   0.01326
C     2.11673   0.16914   0.37702
O     2.43121   1.34259   0.33430
C     0.77522  -0.29455   0.89934
C     0.23785  -1.67396   0.44847
C    -1.12768  -1.25927  -0.18009
C    -2.09270  -2.32644  -0.36571
N    -2.85352  -3.18589  -0.52554
C    -0.74212  -0.50578  -1.47990
O    -0.79428  -0.85096  -2.62743
O    -0.25674   0.67541  -1.04854
C    -0.35576   0.64104   0.43414
C    -0.35414   2.05688   1.01510
C    -0.39841   3.20745   0.06639
O    -0.33878   2.15840   2.22492
N    -1.54104  -0.14664   0.70171
C    -2.82288   0.48085   0.36588
H     4.15261   0.16269  -1.34703
H     4.72274  -1.42013  -0.69999
H     4.78068   0.05626   0.33283
H     0.82794  -0.22990   1.99584
H     0.05693  -2.34006   1.29881
H     0.87837  -2.17701  -0.28337
H    -1.28924   3.12152  -0.57671
H     0.48012   3.17211  -0.59607
H    -0.41836   4.15005   0.62728
H    -2.99261   1.32760   1.04349
H    -3.62629  -0.24882   0.53099
H    -2.88210   0.83940  -0.67702
