12
Generated by autodE on: 2022-05-26. E = -306.615263 Ha
C     2.45921   0.36616   0.10629
C     1.28466   0.46753  -0.52489
C     0.03684  -0.03752   0.09338
O    -0.04848  -0.57166   1.18533
O    -1.02145   0.16378  -0.70686
C    -2.29234  -0.28526  -0.22045
H     2.52401  -0.09369   1.09695
H     3.38211   0.73766  -0.34598
H     1.19215   0.92234  -1.51400
H    -2.27661  -1.37047  -0.04140
H    -3.02069  -0.04187  -1.00277
H    -2.55324   0.23229   0.71455
