18
Generated by autodE on: 2022-05-26. E = -605.787472 Ha
C    -3.33067   0.03483   0.63174
C    -2.05876   0.81464   0.75989
O    -1.97837   1.92909   1.25542
C    -0.84269   0.15650   0.23868
O    -0.88985  -1.05773  -0.31517
C     0.41607  -1.43884  -0.73939
O     0.61413  -2.50703  -1.27279
C     1.21953  -0.31993  -0.37169
C     2.59758  -0.16609  -0.57118
N     3.74647  -0.06146  -0.74836
N     0.39530   0.62492   0.22330
C     0.84669   1.92056   0.73984
H    -3.23986  -0.92353   1.16834
H    -4.16036   0.62234   1.04313
H    -3.52120  -0.20481  -0.42688
H     0.33498   2.72566   0.20026
H     0.61248   1.98830   1.80810
H     1.92848   1.98955   0.58509
