30
Generated by autodE on: 2022-05-26. E = -912.383961 Ha. Imaginary frequency = -502.0 cm-1
C     3.74051  -0.11613  -0.52277
O     2.48766  -0.60388  -0.03232
C     1.93917   0.04896   1.00560
O     2.50033   0.97665   1.57165
C     0.59656  -0.43787   1.34707
C     0.10071  -1.67329   0.86190
C    -1.26624  -1.11968  -0.56532
C    -2.14244  -2.21466  -0.81115
N    -2.82339  -3.13834  -0.99184
C    -0.26613  -0.68852  -1.56044
O     0.23591  -1.23520  -2.50439
O     0.08542   0.58007  -1.14006
C    -0.61924   0.86686   0.00679
C    -0.52554   2.24461   0.56924
C     0.48416   3.15517  -0.05509
O    -1.23028   2.55121   1.51643
N    -1.70890   0.05533   0.05175
C    -2.68609   0.03483   1.13274
H     3.63400   0.91628  -0.88774
H     4.01942  -0.77903  -1.35017
H     4.50761  -0.14823   0.26430
H     0.19796  -0.02698   2.27659
H    -0.62899  -2.20138   1.48030
H     0.75436  -2.31479   0.26771
H     0.33827   3.20688  -1.14489
H     1.49501   2.75221   0.12279
H     0.39968   4.15129   0.39636
H    -3.11914   1.03138   1.25353
H    -2.20919  -0.27365   2.07658
H    -3.47385  -0.68062   0.86819
