42
Generated by autodE on: 2022-05-31. E = -1049.540555 Ha
C     3.42541  -1.61030  -1.43441
O     2.22043  -1.05806  -0.88318
C     1.63787  -0.08541  -1.58859
O     2.06205   0.39090  -2.62409
N     0.44929   0.27956  -1.00109
O    -0.02056   1.54418  -1.50042
N    -1.27811   1.68002  -0.89485
C    -2.23929   1.14942  -1.67752
N    -3.08467   0.79129  -2.39494
C    -1.13649   1.21760   0.51454
C    -2.45827   0.65620   1.01153
C    -0.59248   2.30665   1.47440
C     0.54395   3.13324   0.84498
C     1.72561   2.12120   0.79150
C     1.12580   0.83460   1.39860
C     0.19066   1.43112   2.47018
C     0.09995   0.18185   0.42284
C    -0.27007  -1.26325   0.73491
C     0.05646  -1.86465   1.95770
C    -0.31831  -3.18513   2.22761
C    -1.02533  -3.92737   1.27985
C    -1.35468  -3.33698   0.05546
C    -0.97988  -2.02004  -0.21275
H     3.74451  -2.38636  -0.72968
H     3.22918  -2.05111  -2.42213
H     4.19868  -0.83395  -1.52154
H    -3.22632   1.44322   0.97969
H    -2.80022  -0.20169   0.42037
H    -2.34935   0.32569   2.05162
H    -1.40842   2.91031   1.89225
H     0.77469   3.97842   1.50946
H     0.28287   3.54848  -0.13599
H     2.55988   2.44938   1.42747
H     2.13106   1.98979  -0.21995
H     1.88395   0.12324   1.74269
H     0.73610   2.02861   3.21476
H    -0.42673   0.69172   2.99574
H     0.61079  -1.31515   2.71710
H    -0.04973  -3.63318   3.18716
H    -1.31569  -4.95918   1.49099
H    -1.90570  -3.90474  -0.69802
H    -1.23984  -1.57458  -1.17369
