30
Generated by autodE on: 2022-05-31. E = -543.362516 Ha
C    -1.04354   2.02337   1.44256
C    -1.25538   1.04439   0.33637
C    -0.39142   0.18778  -0.27119
C     1.04905   0.01027  -0.06001
C     1.63884  -1.26461  -0.20166
C     3.00683  -1.45338   0.00318
C     3.82722  -0.37244   0.34287
C     3.26325   0.90195   0.46693
C     1.89521   1.09282   0.26485
C    -1.23853  -0.75118  -1.13246
C    -2.02904  -1.67021  -0.14706
C    -3.00601  -0.67277   0.54030
C    -2.65305   0.68490  -0.15104
C    -2.35417   0.20941  -1.58453
H    -1.83500   1.90767   2.20291
H    -1.11340   3.06419   1.07855
H    -0.06951   1.90552   1.93772
H     1.01382  -2.12075  -0.46273
H     3.43565  -2.45296  -0.10445
H     4.89841  -0.51985   0.49954
H     3.89620   1.75842   0.71291
H     1.47996   2.09922   0.33139
H    -0.69279  -1.29115  -1.91697
H    -2.57562  -2.44765  -0.70268
H    -1.35857  -2.17444   0.56341
H    -4.05653  -0.93919   0.34709
H    -2.87049  -0.61787   1.63048
H    -3.41057   1.46931  -0.01716
H    -3.20428  -0.30216  -2.06379
H    -1.98879   1.01558  -2.23827
