12
Generated by autodE on: 2022-05-31. E = -506.056231 Ha
C    -2.70542   0.96473  -0.20369
O    -1.78099   0.17960   0.58254
C    -0.77260  -0.35538  -0.06019
O    -0.52843  -0.29654  -1.24530
N    -0.05125  -1.21579   0.82458
O     1.22107  -1.30025   0.68184
N     2.07506  -0.45651   0.12121
C     1.63270   0.75091  -0.21349
N     1.43474   1.87544  -0.47609
H    -3.43391   1.36280   0.50996
H    -3.19806   0.32213  -0.94636
H    -2.16467   1.77881  -0.70537
