42
Generated by autodE on: 2022-05-31. E = -1049.436237 Ha. Imaginary frequency = -133.5 cm-1
C     2.97805  -2.04827  -1.16585
O     1.66926  -1.47094  -1.26560
C     1.60363  -0.18891  -1.60719
O     2.54440   0.50249  -1.94533
N     0.25547   0.20419  -1.50512
O     0.16711   1.48514  -1.81542
N    -1.06546   1.99801  -1.74511
C    -2.04070   1.12938  -1.97860
N    -3.01243   0.51786  -2.22042
C    -1.22638   1.20972   0.99277
C    -2.69001   0.97514   0.93650
C    -0.70296   2.44066   1.71552
C     0.35579   3.19361   0.87087
C     1.53419   2.18634   0.82804
C     1.00687   0.97549   1.64834
C     0.21456   1.72624   2.74835
C    -0.17105   0.26837   0.95947
C    -0.31413  -1.19636   0.93629
C     0.52908  -1.99322   1.73885
C     0.41162  -3.38424   1.75068
C    -0.54510  -4.01777   0.95468
C    -1.38515  -3.24223   0.14608
C    -1.27345  -1.85472   0.13570
H     2.82376  -3.07476  -0.81545
H     3.47167  -2.04747  -2.14829
H     3.58834  -1.48565  -0.44482
H    -3.22198   1.87642   0.59761
H    -2.99950   0.12091   0.32982
H    -3.02593   0.78437   1.97453
H    -1.50555   3.07757   2.10688
H     0.63604   4.12022   1.39244
H    -0.02823   3.46365  -0.11878
H     2.41403   2.58537   1.35324
H     1.85754   1.93537  -0.18518
H     1.80747   0.30753   1.97712
H     0.83108   2.42663   3.33460
H    -0.33185   1.05431   3.42601
H     1.28452  -1.52738   2.37023
H     1.07695  -3.97417   2.38533
H    -0.63382  -5.10658   0.95812
H    -2.12674  -3.72559  -0.49434
H    -1.89998  -1.28251  -0.54382
