18
Generated by autodE on: 2022-06-19. E = -605.723818 Ha
C     3.18059  -1.35112  -0.22458
O     1.80532  -0.97655  -0.06621
C     1.48745   0.29015  -0.37656
O     2.29734   1.10792  -0.77413
C     0.05573   0.55091  -0.17550
N    -0.69492  -0.43854   0.26191
C    -1.45304  -1.24454   0.64871
C    -2.30981  -2.19521   1.10378
N    -3.04666  -3.01503   1.49628
C    -0.66052   1.82276  -0.41095
C     0.12001   3.00659  -0.90966
O    -1.86835   1.88423  -0.19567
H     3.24104  -2.40415   0.07354
H     3.82502  -0.73657   0.42068
H     3.49439  -1.23459  -1.27204
H    -0.56863   3.85376  -1.02393
H     0.92578   3.26317  -0.20605
H     0.60117   2.77530  -1.87163
