41
Generated by autodE on: 2022-06-19. E = -957.244683 Ha. Imaginary frequency = -351.4 cm-1
C    -2.00104   0.85035  -2.63730
C    -1.57804   1.85230  -1.84316
C    -1.62757   3.29069  -2.28888
C    -1.05105   1.63643  -0.47124
C     1.05949   1.29839  -1.13040
C     1.70537   2.43064  -1.62996
N     2.15329   3.43747  -2.01072
N     1.31920   0.12423  -0.98750
C     0.88071  -1.01708  -0.45359
C     0.30845  -2.04566  -1.33964
C     0.45086  -1.81547  -2.82255
O    -0.25241  -3.04164  -0.88957
C     1.20262  -1.26404   0.95988
O     0.87501  -2.24958   1.59553
O     1.90266  -0.24794   1.48922
C     2.26963  -0.36601   2.86928
C    -1.34560   0.51614   0.29856
C    -1.16996   0.47651   1.72411
C    -1.57783  -0.52911   2.54737
C    -2.26438  -1.77743   2.07232
C    -1.38465  -0.43050   4.03048
H    -1.97995  -0.19387  -2.31832
H    -2.39648   1.05696  -3.63530
H    -2.27116   3.88041  -1.61366
H    -2.01613   3.38464  -3.31275
H    -0.62966   3.75693  -2.25136
H    -0.75762   2.54259   0.06935
H     1.51134  -1.91848  -3.10719
H     0.13193  -0.80133  -3.10566
H    -0.14687  -2.55904  -3.36478
H     2.88296  -1.26454   3.02954
H     1.37653  -0.41345   3.50646
H     2.85057   0.53383   3.10246
H    -1.86832  -0.31503  -0.17667
H    -0.67935   1.34432   2.17790
H    -3.34242  -1.73015   2.31142
H    -1.86485  -2.65558   2.60380
H    -2.15603  -1.95616   0.99566
H    -0.93432   0.52619   4.33108
H    -0.73904  -1.25245   4.38753
H    -2.34868  -0.54866   4.55686
