26
Generated by autodE on: 2022-06-21. E = -669.376941 Ha
C    -2.19483   2.40337   0.20881
C    -2.83038   1.04145   0.01214
O    -4.06145   0.92830  -0.05810
C    -1.93129  -0.09025  -0.08804
N    -0.59922   0.14720   0.00095
C     0.56049   0.18398   0.05822
C     1.97242   0.21388   0.11520
C     2.65358   1.41902   0.38504
C     4.04513   1.41011   0.42945
C     4.75323   0.22202   0.21247
C     4.07057  -0.97124  -0.05242
C     2.67989  -0.98782  -0.10508
C    -2.25223  -1.49830  -0.27879
C    -3.69919  -1.90479  -0.40016
O    -1.35211  -2.34894  -0.34018
H    -2.98544   3.16032   0.28968
H    -1.57448   2.42165   1.11927
H    -1.53593   2.65256  -0.63885
H     2.08914   2.33697   0.55399
H     4.58220   2.33788   0.63640
H     5.84463   0.22601   0.25044
H     4.62614  -1.89590  -0.22085
H     2.12908  -1.90684  -0.31139
H    -4.17935  -1.39676  -1.24962
H    -3.74465  -2.99357  -0.53791
H    -4.26489  -1.61381   0.49740
