49
Generated by autodE on: 2022-06-21. E = -1020.888233 Ha. Imaginary frequency = -413.8 cm-1
C    -0.41615  -2.70345  -1.29215
C    -0.65803  -2.41919  -0.00111
C    -1.62477  -3.23042   0.82159
C    -0.00238  -1.29539   0.73323
C    -1.14712   0.31477   0.02714
C    -2.55298   0.04490   0.24413
C    -3.35184  -0.27038  -0.86979
C    -4.69337  -0.59866  -0.67826
C    -5.23902  -0.60259   0.61051
C    -4.44097  -0.28605   1.71592
C    -3.09200   0.02089   1.54089
N    -0.46224   1.14528  -0.52658
C     0.81996   1.31274  -0.95214
C     1.66411   2.22914  -0.20669
C     1.02109   2.97409   0.93985
O     2.87289   2.36237  -0.43745
C     1.12893   0.67374  -2.22781
C     2.52311   0.76798  -2.79421
O     0.24812   0.05616  -2.84584
C     1.34279  -0.95569   0.53569
C     2.10899  -0.25502   1.52455
C     3.44725  -0.00095   1.49686
C     4.38103  -0.49062   0.43033
C     4.08397   0.81987   2.57798
H     0.25284  -2.09703  -1.90514
H    -0.90335  -3.55626  -1.77336
H    -1.12297  -3.65523   1.70810
H    -2.06243  -4.05258   0.23745
H    -2.44427  -2.59802   1.20044
H    -0.37228  -1.14244   1.75386
H    -2.90516  -0.26431  -1.86555
H    -5.31678  -0.85035  -1.53890
H    -6.29139  -0.85732   0.75464
H    -4.86929  -0.29040   2.72036
H    -2.45383   0.24493   2.39747
H     0.11782   3.51237   0.61467
H     0.71102   2.26211   1.72200
H     1.74639   3.68011   1.36430
H     3.24772   0.27597  -2.13076
H     2.52904   0.27746  -3.77704
H     2.84373   1.81488  -2.89157
H     1.85573  -1.35756  -0.34030
H     1.54089   0.12985   2.37881
H     5.16258  -1.12708   0.88202
H     4.90510   0.35846  -0.03813
H     3.88385  -1.06879  -0.35819
H     3.36651   1.10374   3.36129
H     4.50854   1.74342   2.14534
H     4.92712   0.28077   3.04506
