20
Generated by autodE on: 2022-06-26. E = -457.715314 Ha
C    -3.08081  -0.40142  -0.66305
N    -1.79804   0.17557  -0.29596
C    -1.75285   1.46471   0.24927
C    -0.61701   2.02334   0.69618
C     0.71804   1.32136   0.65863
C     0.56827  -0.07314   0.07161
C     1.72453  -0.97246  -0.07471
N     2.91788  -0.48644   0.35034
O     1.64630  -2.12008  -0.55901
C    -0.64075  -0.54184  -0.34861
H    -3.70773  -0.59141   0.22474
H    -3.63020   0.27502  -1.33580
H    -2.91598  -1.35269  -1.18452
H    -2.71217   1.98437   0.28001
H    -0.66097   3.03722   1.10050
H     1.15371   1.27826   1.67801
H     1.44550   1.92081   0.07350
H     3.02367   0.43582   0.75295
H     3.73842  -1.07670   0.26903
H    -0.71982  -1.54802  -0.76328
