34
Generated by autodE on: 2022-07-27. E = -898.565682 Ha
C     0.26205  -2.32242   3.18740
N     0.56960  -1.79404   1.87094
C     0.20629  -0.55094   1.52978
O    -0.23972   0.28805   2.31301
C     0.46488  -0.11924   0.09860
O    -0.36031   0.68370  -0.47821
C    -1.70951   0.86893  -0.19761
C    -2.19046   2.16642  -0.59211
C    -1.16477   3.14869  -1.12112
O    -3.38262   2.49876  -0.48677
C    -2.45302  -0.29642   0.16597
C    -3.95528  -0.21507   0.27687
O    -1.87234  -1.38715   0.35077
C     1.70932  -0.33750  -0.60406
C     2.86723  -0.80846   0.05939
C     4.05325  -0.98058  -0.64736
C     4.10580  -0.69560  -2.01634
C     2.96500  -0.22945  -2.68441
C     1.77623  -0.04882  -1.98974
H     0.75598  -3.29446   3.30498
H    -0.82565  -2.45215   3.31742
H     0.62508  -1.63840   3.96686
H     0.79535  -2.44711   1.12592
H    -1.67816   4.07407  -1.41290
H    -0.40963   3.37437  -0.35122
H    -0.62669   2.73251  -1.98761
H    -4.34064  -1.22110   0.49089
H    -4.24021   0.47151   1.08860
H    -4.40878   0.17857  -0.64375
H     2.84285  -1.01444   1.12815
H     4.94494  -1.33430  -0.12637
H     5.03832  -0.83889  -2.56671
H     3.00675  -0.01462  -3.75400
H     0.88149   0.29548  -2.50883
