24
Generated by autodE on: 2022-06-15. E = -3336.146306 Ha
C    -4.07474  -0.30350  -0.05379
O    -2.69707  -0.53330  -0.40148
C    -1.78721  -0.03948   0.41698
O    -2.02959   0.59369   1.42428
C    -0.37253  -0.33215  -0.01830
Br   -0.12933  -1.93928  -0.98683
C     0.61572   0.53077   0.29184
C     2.06996   0.42708  -0.04738
O     2.72918   1.42364  -0.27457
O     2.54418  -0.80505  -0.04300
C     3.92952  -0.97169  -0.39115
C     0.32141   1.81368   1.03576
O     0.75987   2.03572   2.14181
O    -0.40081   2.65947   0.31296
C    -0.78728   3.88566   0.95783
H    -4.66469  -0.78454  -0.84137
H    -4.28061   0.77564  -0.02133
H    -4.29651  -0.75334   0.92420
H     4.12112  -2.04919  -0.34262
H     4.56737  -0.43437   0.32479
H     4.11309  -0.59352  -1.40669
H     0.10143   4.44842   1.27573
H    -1.41888   3.66332   1.82997
H    -1.35290   4.45253   0.21019
