41
Generated by autodE on: 2022-10-07. E = -1023.514446 Ha
C    -1.04570   3.47157  -0.68847
N    -0.70566   2.07702  -0.87783
C    -1.18467   1.09109  -0.12690
O    -2.07037   1.21369   0.73667
C    -0.55747  -0.29528  -0.37556
C    -1.62322  -1.32367  -0.86709
O    -1.28118  -2.20348  -1.66197
N    -2.86139  -1.18758  -0.39175
C    -3.91412  -2.12830  -0.72649
N     0.50565  -0.26658  -1.38168
C     1.76045  -0.57293  -0.76816
C     2.59769   0.60349  -0.25482
O     3.47667   0.44736   0.56527
O     2.30838   1.73336  -0.87019
C     3.02311   2.90971  -0.45015
N     1.40655  -1.42357   0.41518
C     0.13547  -0.78375   0.97507
N     0.60491   0.37108   1.70272
N    -0.61792  -1.79375   1.65390
C    -0.15171  -2.14423   2.99466
H    -1.97307   3.54460  -0.10786
H    -0.24223   3.99709  -0.14650
H    -1.18896   3.96184  -1.66178
H     0.09806   1.83305  -1.45472
H    -3.03837  -0.40170   0.23654
H    -4.07901  -2.16439  -1.81435
H    -3.65806  -3.14339  -0.38443
H    -4.84104  -1.80947  -0.23524
H     0.28456  -0.99622  -2.06422
H     2.40533  -1.14757  -1.44700
H     2.81857   3.10657   0.61161
H     2.64419   3.72736  -1.07257
H     4.10251   2.77439  -0.60439
H     1.18798  -2.38246   0.11117
H     2.16826  -1.46246   1.11022
H     1.18224   0.09153   2.49746
H    -0.19846   0.88205   2.07085
H    -1.59309  -1.50235   1.69085
H    -0.78982  -2.94717   3.38745
H    -0.17794  -1.30261   3.70911
H     0.87862  -2.52905   2.95494
