13
Generated by autodE on: 2022-10-07. E = -245.298498 Ha
C    -1.00831  -1.64424   0.44198
N    -0.88493  -0.31557  -0.13258
C     0.23864   0.40520  -0.11180
N     0.26087   1.61783  -0.67292
N     1.34020  -0.07876   0.46565
H    -2.03485  -1.99245   0.28242
H    -0.80960  -1.63460   1.52552
H    -0.32051  -2.35786  -0.03941
H    -1.69326   0.09600  -0.58843
H    -0.57159   1.99969  -1.10848
H     1.10549   2.17862  -0.65446
H     1.35124  -0.99766   0.89187
H     2.19279   0.47055   0.47923
