41
Generated by autodE on: 2022-10-07. E = -1023.474653 Ha. Imaginary frequency = -303.9 cm-1
C    -0.33700   3.26470  -1.17835
N    -0.20223   1.83430  -1.34291
C    -1.04737   0.94936  -0.73022
O    -2.03019   1.38725  -0.06884
C    -0.70273  -0.43976  -0.79484
C    -1.66718  -1.51348  -0.63732
O    -1.38528  -2.69295  -0.98453
N    -2.85996  -1.21732  -0.07129
C    -3.85391  -2.23103   0.19508
N     0.55611  -0.89885  -1.29945
C     1.70852  -0.63054  -0.61043
C     2.36100   0.74255  -0.78324
O     2.70200   1.11503  -1.88098
O     2.58800   1.39262   0.34891
C     3.24888   2.67330   0.25638
N     1.44282  -0.84581   1.10508
C     0.24142  -0.33563   1.68801
N     0.18206   0.97904   1.93174
N    -0.59971  -1.17958   2.27597
C    -0.54048  -2.63461   2.20763
H    -1.25904   3.66287  -1.63736
H    -0.35083   3.53313  -0.11076
H     0.52449   3.75547  -1.65026
H     0.40360   1.49219  -2.07925
H    -2.98636  -0.24296   0.20628
H    -3.50083  -2.97364   0.93176
H    -4.75483  -1.74929   0.59703
H    -4.13240  -2.77987  -0.71947
H     0.45496  -1.89509  -1.50993
H     2.48743  -1.38299  -0.79003
H     3.35449   3.02446   1.28803
H     2.62743   3.36503  -0.32780
H     4.23152   2.55038  -0.21766
H     1.50858  -1.86311   1.22733
H     2.26547  -0.41928   1.55566
H     0.78797   1.58580   1.38406
H    -0.73902   1.36193   2.13943
H    -1.45927  -0.76225   2.62784
H    -1.42549  -3.02695   2.72004
H     0.35233  -3.01325   2.73008
H    -0.54945  -2.99553   1.17110
