47
Generated by autodE on: 2022-06-03. E = -1682.107984 Ha
C    -3.78709   0.42119   2.61277
N    -2.79010   0.80276   1.63382
C    -2.00278   1.87652   1.76085
O    -2.02038   2.66794   2.71013
C    -0.96354   2.06713   0.63952
O    -1.46523   1.60905  -0.61151
C    -0.60259   0.64906  -1.18258
C    -0.05674   1.23607  -2.43054
N     0.30081   1.80515  -3.37521
C    -1.44147  -0.62408  -1.47192
O    -2.29259  -1.00748  -0.69936
O    -1.08898  -1.22335  -2.58545
C    -1.71268  -2.48805  -2.89007
C     0.48003   0.39649  -0.11531
C     0.27406   1.24406   0.90936
C     1.01108   1.48671   2.19551
C     2.32529   2.28246   2.02591
C     3.58382   1.45352   1.77348
C     3.55410   0.53871   0.54707
C     2.66243  -0.70899   0.70827
C     1.43601  -0.76372  -0.21584
Cl    2.07586  -0.88877  -1.93398
C     0.68149  -2.08507   0.08260
O     0.71015  -3.08425  -0.59512
O     0.01049  -1.96554   1.22227
C    -0.79035  -3.08571   1.63556
H    -3.71957   1.09370   3.47616
H    -4.80318   0.48433   2.19185
H    -3.61698  -0.61269   2.95086
H    -2.67470   0.21783   0.80346
H    -0.73620   3.14508   0.59503
H    -1.29836  -2.79565  -3.85582
H    -1.45726  -3.21759  -2.11002
H    -2.80169  -2.36281  -2.95518
H     0.34190   2.06861   2.84175
H     1.19514   0.53884   2.72080
H     2.47994   2.86766   2.94614
H     2.19189   3.01726   1.21396
H     4.43080   2.15188   1.66849
H     3.79983   0.84219   2.66782
H     4.58063   0.20220   0.33895
H     3.24342   1.11368  -0.33987
H     3.23601  -1.62312   0.49901
H     2.30579  -0.81252   1.74134
H    -1.24862  -2.78872   2.58538
H    -1.56653  -3.28360   0.88325
H    -0.16221  -3.97690   1.77138
