21
Generated by autodE on: 2022-06-03. E = -682.208168 Ha
C    -3.32673   2.33903   0.50293
N    -2.28996   1.35824   0.25962
C    -2.54625   0.08381  -0.09069
O    -3.66961  -0.40579  -0.25966
C    -1.36675  -0.78677  -0.28378
O    -0.20601  -0.29470  -0.09222
C     1.01317  -0.84069  -0.18572
C     1.15767  -2.18822  -0.55313
N     1.24027  -3.31195  -0.86187
C     2.14996   0.01395   0.10055
O     3.30502  -0.38195   0.04424
O     1.79617   1.26452   0.42723
C     2.86672   2.17169   0.72559
H    -3.30786   2.68015   1.55018
H    -3.19364   3.21574  -0.14942
H    -4.30216   1.88432   0.29538
H    -1.31971   1.63938   0.37423
H    -1.49227  -1.83380  -0.57827
H     3.53213   2.28341  -0.14275
H     3.44818   1.81303   1.58733
H     2.39043   3.12984   0.96308
