26
Generated by autodE on: 2022-06-03. E = -999.758736 Ha
C     2.93313  -2.50989  -1.27341
O     1.90486  -1.50659  -1.22411
C     1.14911  -1.47482  -0.13444
O     1.28174  -2.21411   0.81614
C     0.07940  -0.38188  -0.21204
Cl   -1.17249  -1.06555  -1.42272
C    -0.58545  -0.13548   1.05091
C    -1.12080   0.55804   1.89069
C    -1.60978   1.75018   2.56669
C    -1.67698   2.87476   1.50228
C    -0.43493   3.01334   0.59466
C    -0.36512   2.15002  -0.69898
C     0.61509   0.96230  -0.74981
H     2.48695  -3.51322  -1.22059
H     3.63752  -2.37455  -0.44059
H     3.44386  -2.36910  -2.23247
H    -0.90774   2.02612   3.37213
H    -2.59314   1.59775   3.03900
H    -1.84218   3.82332   2.03800
H    -2.56683   2.71182   0.87149
H    -0.40438   4.06642   0.27446
H     0.47966   2.86383   1.19496
H    -0.05641   2.81731  -1.51807
H    -1.37283   1.79754  -0.97513
H     0.94665   0.78978  -1.78301
H     1.51805   1.19497  -0.15971
