47
Generated by autodE on: 2022-06-03. E = -1681.987523 Ha. Imaginary frequency = -107.8 cm-1
C    -3.08570   0.42679   3.56802
N    -2.64609   0.63888   2.20447
C    -2.16844   1.82390   1.78421
O    -2.10317   2.84684   2.47690
C    -1.65009   1.85076   0.39704
O    -1.86530   0.81196  -0.32926
C    -1.27605   0.50796  -1.49590
C    -0.61927   1.50245  -2.24353
N    -0.08120   2.35236  -2.83687
C    -1.55436  -0.83751  -1.96957
O    -2.19095  -1.66825  -1.34073
O    -0.98871  -1.06187  -3.16162
C    -0.99987  -2.41496  -3.63497
C     0.92466   0.41521   0.24990
C     0.74486   1.46363   0.85499
C     1.17331   2.56645   1.71639
C     2.71501   2.57601   1.76476
C     3.39204   1.23700   2.12358
C     3.70015   0.22282   0.98643
C     2.79239  -1.01252   0.84847
C     1.55210  -0.84781  -0.07465
Cl    2.08927  -0.84242  -1.82996
C     0.63854  -2.07077   0.13505
O     0.77218  -3.13154  -0.42782
O    -0.25957  -1.81591   1.07654
C    -1.14327  -2.88320   1.46224
H    -3.68122   1.28385   3.91168
H    -3.70367  -0.47877   3.60883
H    -2.23221   0.30343   4.25638
H    -2.55552  -0.16486   1.58836
H    -1.27471   2.77879  -0.04014
H    -0.48321  -2.39886  -4.60136
H    -0.46387  -3.06648  -2.92975
H    -2.03082  -2.77495  -3.76172
H     0.78405   3.53401   1.36250
H     0.75089   2.41313   2.72381
H     3.00988   3.33379   2.50846
H     3.09793   2.92687   0.79168
H     4.35943   1.49708   2.58060
H     2.81706   0.73546   2.92213
H     4.70885  -0.17552   1.17325
H     3.76583   0.74140   0.01545
H     3.35801  -1.87196   0.45955
H     2.40625  -1.30090   1.83990
H    -1.83283  -2.44469   2.19296
H    -1.69303  -3.24982   0.58647
H    -0.56795  -3.70104   1.91874
