49
Generated by autodE on: 2022-06-21. E = -1020.940621 Ha
C     1.35597  -1.92305  -2.08562
C     0.99661  -2.69783  -0.86127
O     1.62106  -3.65525  -0.44887
C    -0.24481  -2.23678  -0.06096
C    -1.02282  -3.45128   0.28109
N    -1.66983  -4.38633   0.51105
O    -1.04366  -1.36032  -0.81136
C    -1.77675  -0.44520   0.05558
C    -3.25502  -0.83539  -0.00046
C    -1.59094   0.97402  -0.46983
C    -0.87963   1.24432  -1.64445
C    -0.72838   2.55926  -2.09795
C    -1.29543   3.62099  -1.38958
C    -2.01471   3.35810  -0.21879
C    -2.16062   2.04601   0.23579
C    -1.16729  -0.67465   1.46189
C     0.15809  -1.42465   1.24403
C     0.53202  -2.33477   2.41850
C     1.34258  -0.53938   0.92360
C     1.38025   0.80575   0.90123
C     2.57773   1.56117   0.57439
C     2.68972   2.90999   0.51129
C     1.57090   3.86980   0.80034
C     3.99224   3.55591   0.13055
H     1.45618  -0.85416  -1.84690
H     2.29011  -2.31460  -2.50742
H     0.53817  -2.01102  -2.81879
H    -3.63582  -0.73379  -1.02748
H    -3.38922  -1.87609   0.32948
H    -3.84830  -0.18418   0.65776
H    -0.43066   0.42368  -2.20095
H    -0.16137   2.75154  -3.01212
H    -1.17441   4.64758  -1.74289
H    -2.45953   4.17957   0.34790
H    -2.71666   1.85547   1.15680
H    -1.03004   0.25924   2.01826
H    -1.84121  -1.31224   2.05073
H    -0.29288  -3.01068   2.68712
H     1.41667  -2.94194   2.17574
H     0.77013  -1.71568   3.29586
H     2.27271  -1.08285   0.71885
H     0.47551   1.37383   1.12017
H     3.46756   0.96405   0.34221
H     0.63496   3.38303   1.09911
H     1.36035   4.49024  -0.08790
H     1.86914   4.56912   1.60114
H     3.86569   4.18996  -0.76523
H     4.77950   2.81591  -0.07520
H     4.34492   4.22819   0.93309
