26
Generated by autodE on: 2022-07-27. E = -669.350724 Ha
C     2.93492  -0.75157  -0.53097
C     2.18247  -1.95483  -0.00625
O     2.74472  -3.05361   0.14026
C     0.79427  -1.78935   0.32130
C     0.03135  -2.88746   0.75453
N    -0.53409  -3.85651   1.08893
O     0.27821  -0.53918   0.08938
C    -0.83861   0.03172   0.38057
C    -1.86766  -0.68937   1.16111
C    -0.96141   1.39659  -0.10525
C     0.10411   1.99594  -0.82035
C    -0.00772   3.29956  -1.28680
C    -1.18047   4.03290  -1.05912
C    -2.24177   3.45154  -0.35920
C    -2.13790   2.14612   0.11640
H     2.88943   0.08724   0.18021
H     3.98165  -1.03690  -0.69797
H     2.49600  -0.40093  -1.47841
H    -2.27314  -1.52963   0.57428
H    -1.40529  -1.11540   2.06618
H    -2.69423  -0.03832   1.45640
H     1.01594   1.42885  -1.00329
H     0.82221   3.75095  -1.83426
H    -1.26518   5.05697  -1.42949
H    -3.15795   4.01805  -0.18116
H    -2.97794   1.71353   0.65808
