26
Generated by autodE on: 2022-06-21. E = -669.350922 Ha
C    -2.25601   2.11704   0.02326
C    -2.85021   0.72552   0.03371
O    -4.08052   0.54786   0.03069
C    -1.94623  -0.38873   0.05264
C    -2.43008  -1.70499  -0.02980
N    -2.90391  -2.77116  -0.12766
O    -0.61004  -0.06895   0.01415
C     0.46271  -0.74869   0.22849
C     0.38489  -2.16024   0.66326
C     1.69555  -0.00445   0.03338
C     2.95257  -0.63613   0.15763
C     4.12621   0.08870  -0.03783
C     4.06920   1.44912  -0.35512
C     2.82752   2.08703  -0.48354
C     1.65134   1.37181  -0.29761
H    -1.59627   2.27442   0.89012
H    -1.64825   2.27314  -0.88213
H    -3.07356   2.84930   0.04410
H    -0.34671  -2.24456   1.48329
H     0.02928  -2.80220  -0.15934
H     1.35271  -2.53447   1.00741
H     3.01918  -1.69648   0.39859
H     5.09136  -0.41247   0.05840
H     4.99168   2.01439  -0.50544
H     2.78112   3.14906  -0.73290
H     0.68787   1.86958  -0.40232
