52
Generated by autodE on: 2022-06-05. E = -1388.377901 Ha
C     2.27523  -0.39781  -3.69758
N     1.80422  -0.69508  -2.35949
C     1.17235   0.23511  -1.62897
O     1.13746   1.43138  -1.91592
C     0.62555  -0.29050  -0.27276
C     1.75098  -0.12965   0.75495
C     2.42481   1.09331   0.88793
C     3.41209   1.24964   1.86226
C     3.74120   0.18737   2.70973
C     3.07965  -1.03563   2.57112
C     2.09026  -1.19565   1.59717
O     0.31053  -1.67641  -0.41037
N    -1.10079  -1.92366  -0.20426
C    -1.47423  -3.06338  -1.02658
C    -1.77419  -0.63148  -0.44629
C    -3.04979  -0.62838   0.28267
N    -4.07495  -0.61475   0.82285
C    -2.02751  -0.37397  -1.98578
C    -3.43805  -0.21252  -2.46549
O    -1.09432  -0.54942  -2.74293
C    -0.74804   0.37025   0.19079
C    -0.73681   0.32379   1.75780
O    -0.43037   1.31921   2.42270
N    -0.99280  -0.85546   2.32826
C    -0.82115  -1.04637   3.75542
C    -1.06353   1.78166  -0.36227
O    -1.78329   1.87987  -1.36681
N    -0.57560   2.84047   0.27591
C    -0.77948   4.18213  -0.23114
H     2.92203  -1.21423  -4.04272
H     1.43520  -0.28489  -4.40440
H     2.85219   0.53689  -3.69679
H     1.60332  -1.66213  -2.12235
H     2.17111   1.92632   0.23337
H     3.92498   2.20916   1.95944
H     4.51281   0.31180   3.47298
H     3.33335  -1.87478   3.22295
H     1.57472  -2.14905   1.49315
H    -0.94196  -3.94719  -0.65038
H    -1.24382  -2.92101  -2.09333
H    -2.55348  -3.22582  -0.89437
H    -3.99681   0.52612  -1.87897
H    -3.94810  -1.18594  -2.36388
H    -3.42086   0.07068  -3.52558
H    -1.12787  -1.66189   1.71158
H    -1.08926  -2.07980   4.00617
H    -1.46606  -0.36050   4.32469
H     0.22475  -0.86268   4.05184
H    -0.14311   2.66724   1.18420
H    -0.26165   4.89070   0.42655
H    -1.84940   4.44297  -0.26755
H    -0.37109   4.27407  -1.24972
