15
Generated by autodE on: 2022-07-27. E = -454.218934 Ha
C    -1.74183   1.71787  -0.67823
C    -0.37732   1.09667  -0.81013
O     0.45147   1.50079  -1.60969
C    -0.10320  -0.04928   0.10254
C    -1.10400  -0.48044   1.01252
N    -1.94607  -0.80831   1.74719
N     1.06820  -0.71505   0.10611
C     1.25237  -1.85599   1.04295
O     2.02216  -0.44198  -0.63190
H    -1.89131   2.10085   0.34424
H    -2.52742   0.96782  -0.86266
H    -1.83425   2.53906  -1.39967
H     1.12709  -1.50043   2.07352
H     0.50659  -2.62913   0.81826
H     2.26728  -2.22583   0.87411
