37
Generated by autodE on: 2022-06-05. E = -934.158099 Ha
C     1.04482  -0.00218   3.67002
N     0.98675  -0.39212   2.27497
C     1.27754   0.46811   1.28582
O     1.81664   1.56863   1.49030
C     0.94955   0.00382  -0.10734
C     2.03625   0.03648  -1.14571
O     1.95812  -0.63901  -2.18143
N     3.07689   0.84580  -0.88658
C     4.15941   1.01237  -1.83342
C    -0.30368  -0.38268  -0.44322
C    -0.64139  -0.97591  -1.79728
O    -0.71835  -2.20437  -1.90969
N    -0.99315  -0.12067  -2.77243
C    -0.76878   1.31374  -2.76503
C    -1.47613  -0.26417   0.46115
C    -2.39404  -1.32088   0.59790
C    -3.48912  -1.19644   1.45474
C    -3.69436  -0.01318   2.17091
C    -2.79781   1.05059   2.02434
C    -1.69765   0.92883   1.17531
H     1.95582   0.58042   3.85966
H     1.05661  -0.90197   4.29765
H     0.17257   0.61489   3.94810
H     0.46826  -1.23142   2.03530
H     3.01077   1.44118  -0.06137
H     4.95118   1.61177  -1.36762
H     4.57559   0.03660  -2.12528
H     3.82315   1.52300  -2.75163
H    -1.20415  -0.56080  -3.66588
H    -0.95448   1.72833  -1.76575
H    -1.46743   1.78952  -3.46583
H     0.25996   1.57152  -3.06674
H    -2.23258  -2.24517   0.04246
H    -4.18620  -2.03053   1.56303
H    -4.55426   0.08223   2.83784
H    -2.95859   1.98371   2.56898
H    -1.00963   1.76720   1.05418
