52
Generated by autodE on: 2022-06-05. E = -1388.337190 Ha. Imaginary frequency = -457.6 cm-1
C     3.13039   0.71328  -3.28691
N     2.50280   0.16626  -2.10007
C     1.21386   0.40827  -1.82077
O     0.50762   1.11324  -2.54610
C     0.65179  -0.27863  -0.57122
C     1.70465  -0.84857   0.35008
C     2.24680  -0.00573   1.33641
C     3.28082  -0.44721   2.16178
C     3.79842  -1.73783   2.00984
C     3.27914  -2.57481   1.01978
C     2.24447  -2.13236   0.18978
O    -0.00705  -1.70355  -1.51518
N    -1.09683  -2.09682  -0.91412
C    -0.98659  -3.25985  -0.03119
C    -1.99612  -1.06982  -0.74365
C    -2.97932  -1.27573   0.29040
N    -3.77039  -1.38138   1.13390
C    -2.56385  -0.44561  -2.04148
C    -4.01498  -0.05138  -2.01566
O    -1.91322  -0.46252  -3.06345
C    -0.54436   0.32934   0.00031
C    -0.79364   0.10969   1.47884
O    -0.64558  -1.00357   1.99559
N    -1.24558   1.15717   2.19426
C    -1.58489   1.00942   3.59627
C    -1.01187   1.68502  -0.52373
O    -2.10239   1.85429  -1.07097
N    -0.20237   2.72100  -0.20920
C    -0.44770   4.04721  -0.74597
H     3.08749   1.81374  -3.28461
H     2.62907   0.35729  -4.20066
H     4.18003   0.39744  -3.30979
H     3.04845  -0.41370  -1.47149
H     1.85493   1.00613   1.45944
H     3.68389   0.22085   2.92636
H     4.60650  -2.08605   2.65722
H     3.67993  -3.58243   0.88732
H     1.85152  -2.78577  -0.58670
H    -0.44554  -3.00473   0.88747
H    -0.45683  -4.04122  -0.58934
H    -1.99375  -3.61741   0.21403
H    -4.29105   0.47505  -1.09528
H    -4.61970  -0.97264  -2.07943
H    -4.22824   0.57329  -2.89213
H    -1.24495   2.08569   1.78634
H    -0.69944   0.76161   4.20402
H    -2.32524   0.20660   3.73025
H    -2.01118   1.95293   3.95786
H     0.73510   2.51089   0.12118
H     0.23308   4.75980  -0.26376
H    -1.48421   4.35273  -0.54783
H    -0.28052   4.07082  -1.83651
