36
Generated by autodE on: 2022-10-07. E = -1120.600985 Ha
C    -2.09302  -2.17196   1.48294
C    -2.37901  -0.76204   1.06283
O    -3.36104  -0.13907   1.43154
C    -1.53526  -0.14909  -0.10395
C    -2.51581   0.16646  -1.16841
N    -3.28020   0.38641  -2.01370
C    -0.81820   1.15986   0.31311
C    -0.24459   1.07693   1.74876
O     0.55718   1.97965   2.07770
O    -0.62611   0.11432   2.46675
C     0.31446   1.20660  -0.72006
C    -0.10540   1.82667  -2.07904
O    -0.63206   2.96605  -1.98977
O     0.12432   1.18752  -3.13334
N     0.72540  -0.19848  -0.77543
C     1.85396  -0.62080  -0.05315
C     3.02475   0.16774  -0.04888
C     4.16451  -0.25921   0.63159
C     4.18027  -1.48209   1.31281
C     3.02845  -2.27427   1.29454
C     1.87801  -1.85763   0.62129
N    -0.44491  -1.00063  -0.59165
C    -0.71185  -1.86597  -1.72919
H    -2.63244  -2.38855   2.41470
H    -1.02072  -2.35725   1.59641
H    -2.47110  -2.84299   0.69169
H    -1.47454   2.03512   0.23908
H     1.12449   1.83012  -0.32567
H     3.04444   1.11386  -0.59120
H     5.05530   0.37439   0.62313
H     5.07636  -1.81261   1.84250
H     3.01747  -3.23490   1.81661
H     0.98526  -2.48019   0.61728
H    -1.62652  -2.44461  -1.53463
H    -0.82802  -1.30717  -2.67461
H     0.11926  -2.57818  -1.83973
