26
Generated by autodE on: 2022-10-07. E = -665.506446 Ha
C     3.28074   1.12905  -1.19835
C     2.68691  -0.16487  -0.69121
O     3.24563  -1.24248  -0.90323
C     1.41868  -0.05027   0.02954
C     0.81795   1.22372   0.14719
N     0.39572   2.30783   0.24352
N     0.79974  -1.13062   0.63717
C     1.61770  -2.29576   1.04549
N    -0.42724  -1.23911   0.97895
C    -1.42090  -0.40169   0.45304
C    -1.53100  -0.11409  -0.92318
C    -2.63112   0.60051  -1.39029
C    -3.61423   1.05616  -0.50343
C    -3.50734   0.76575   0.86064
C    -2.42912   0.02119   1.33651
H     4.22490   0.90776  -1.71165
H     3.46476   1.82859  -0.36798
H     2.59194   1.62821  -1.89812
H     2.59077  -1.95955   1.41395
H     1.75533  -2.95305   0.17985
H     1.04609  -2.80805   1.82507
H    -0.76970  -0.46321  -1.62234
H    -2.71918   0.80855  -2.45897
H    -4.46550   1.62895  -0.87750
H    -4.27507   1.10981   1.55715
H    -2.34384  -0.23333   2.39434
