10
Generated by autodE on: 2022-10-07. E = -455.051687 Ha
O     2.12965   0.59848   1.28137
C     1.96414  -0.02733   0.19833
O     2.87874  -0.52750  -0.51434
C     0.55094  -0.21364  -0.31594
C    -0.55095   0.21364   0.31594
C    -1.96414   0.02734  -0.19833
O    -2.12965  -0.59849  -1.28136
O    -2.87874   0.52750   0.51434
H     0.44744  -0.74340  -1.26906
H    -0.44744   0.74341   1.26906
