36
Generated by autodE on: 2022-10-07. E = -1120.546218 Ha. Imaginary frequency = -356.8 cm-1
C    -0.83191  -0.87369   2.56853
C    -1.91806  -0.63421   1.55879
O    -3.07892  -0.43914   1.90853
C    -1.62482  -0.64826   0.09741
C    -2.78583  -0.80393  -0.72398
N    -3.73984  -0.91318  -1.38111
C    -1.16462   1.55720  -0.27386
C    -1.99431   2.17584   0.82588
O    -1.44279   2.37979   1.94423
O    -3.19647   2.42863   0.54005
C     0.23931   1.51461  -0.23568
C     1.02616   1.73990  -1.52183
O     2.08981   2.40676  -1.40757
O     0.56058   1.27364  -2.59520
N     0.59739  -0.44078   0.14858
C     1.87816  -0.98822   0.06947
C     3.00099  -0.14735   0.21583
C     4.28466  -0.69078   0.24764
C     4.48490  -2.07224   0.15027
C     3.37322  -2.91142   0.02544
C     2.08255  -2.38429  -0.01583
N    -0.41815  -1.07746  -0.40737
C    -0.36801  -1.61457  -1.78065
H    -1.31030  -1.15657   3.51631
H    -0.27254   0.06111   2.71501
H    -0.12006  -1.64501   2.24767
H    -1.63959   1.52656  -1.25719
H     0.71006   1.89586   0.67226
H     2.86363   0.93040   0.27024
H     5.14159  -0.02022   0.34993
H     5.49372  -2.48956   0.17781
H     3.50693  -3.99443  -0.03507
H     1.22644  -3.05601  -0.08416
H    -0.88339  -0.92892  -2.46520
H    -0.84595  -2.60247  -1.80537
H     0.67576  -1.70037  -2.09291
