41
Generated by autodE on: 2022-06-02. E = -1458.662870 Ha
C     3.65973   2.88184   1.98021
N     3.18259   1.61450   1.46220
C     1.98372   1.45712   0.89265
O     1.15141   2.35495   0.73631
C     1.62965   0.03487   0.48040
C     2.77267  -0.99239   0.25788
O     3.89585  -1.02625   0.69582
O     2.25630  -1.95482  -0.53413
C     0.83039  -1.52033  -0.76389
C     0.36660  -2.18361  -1.97806
N    -0.02255  -2.74088  -2.93902
C     0.12815  -1.85527   0.56861
C    -1.41566  -1.66852   0.76987
O    -1.41962  -1.26920   2.14789
C    -0.64980  -0.06478   1.97737
C    -1.40356   0.62109   0.84124
C    -1.55276   2.08702   0.59641
C    -1.60756   2.97956   1.80160
O    -1.71186   2.50214  -0.54094
C    -1.89269  -0.38766   0.09838
C    -2.65225  -0.34452  -1.19009
F    -1.86843  -0.02823  -2.24243
F    -3.18654  -1.55249  -1.46468
F    -3.66185   0.53742  -1.16648
C     0.68494  -0.71413   1.46518
N     0.89541  -0.09281  -0.78787
C     1.44341   0.56869  -1.96645
H     4.00986   2.76218   3.01608
H     4.49381   3.26655   1.37255
H     2.84171   3.61088   1.95958
H     3.80097   0.80393   1.49105
H     0.41723  -2.85917   0.89487
H    -2.01188  -2.56975   0.60440
H    -0.55384   0.48678   2.91644
H    -0.78988   2.76219   2.50142
H    -1.57345   4.03132   1.48953
H    -2.55687   2.78658   2.33158
H     1.24061  -1.07894   2.33556
H     0.83939   0.29442  -2.84162
H     1.35741   1.65300  -1.82310
H     2.50025   0.31244  -2.16499
