21
Generated by autodE on: 2022-06-02. E = -797.432639 Ha
C     3.26475  -0.35872   0.59364
C     2.04994   0.38373   0.11703
O     2.04261   1.59368  -0.06904
C     0.83588  -0.42913  -0.12310
C    -0.44351  -0.03569  -0.25273
C    -1.04909   1.33067  -0.19537
F    -0.68556   2.01130   0.90560
F    -0.71783   2.08241  -1.25905
F    -2.39485   1.24917  -0.17520
C    -1.26715  -1.34361  -0.33462
C    -1.20067  -1.99376   1.06722
C     0.06588  -2.39657   1.19508
C     0.74984  -1.98142  -0.12723
O    -0.33328  -2.16067  -1.05389
H     3.01291  -0.98676   1.46418
H     4.06516   0.34671   0.85016
H     3.61120  -1.04097  -0.20080
H    -2.24289  -1.28188  -0.82543
H    -2.02788  -2.03292   1.77446
H     0.57193  -2.86477   2.03816
H     1.65055  -2.52451  -0.42773
