20
Generated by autodE on: 2022-06-02. E = -661.180982 Ha
C     3.97237   1.06599   0.00677
N     2.70660   0.36766   0.06786
C     1.51502   0.97190  -0.13599
O     1.38554   2.17473  -0.40916
C     0.35989   0.07223  -0.00273
C     0.36781  -1.30959   0.33630
O     1.23907  -2.12342   0.58705
O    -1.00044  -1.68839   0.34854
C    -1.73183  -0.61316   0.03794
C    -3.13635  -0.66799  -0.03170
N    -4.29835  -0.72409  -0.08657
N    -0.95523   0.44327  -0.17640
C    -1.45477   1.77030  -0.54646
H     4.63198   0.62076  -0.75485
H     3.79064   2.11481  -0.25449
H     4.49289   1.02834   0.97721
H     2.70170  -0.62457   0.29748
H    -2.54546   1.71800  -0.63475
H    -1.16699   2.48886   0.22837
H    -1.00692   2.06485  -1.50141
