43
Generated by autodE on: 2022-10-21. E = -1046.045691 Ha
C     3.69798  -2.67051  -0.75408
N     2.76552  -1.56012  -0.73040
C     1.97775  -1.32264   0.31935
O     1.97195  -2.00651   1.34836
C     0.96966  -0.15464   0.17358
C     1.62553   1.03876  -0.54362
O     2.03054   0.93833  -1.71236
N     1.75818   2.15289   0.17870
C     2.36090   3.35482  -0.36176
N     0.53480   0.21760   1.52901
N    -0.85894   0.46446   1.44240
C    -1.28196   1.68433   1.74288
N    -1.67687   2.74194   2.04595
C    -1.49095  -0.39905   0.42153
O    -1.93880  -1.58440   1.02266
C    -3.02471  -1.42731   1.92635
C    -2.50918   0.35295  -0.46480
C    -3.11522  -0.67762  -1.43928
C    -1.93449  -0.98668  -2.40718
C    -0.79005  -0.09558  -1.87592
C    -1.56805   1.14530  -1.39493
C    -0.31299  -0.71845  -0.54768
H     4.19485  -2.69378  -1.73128
H     4.46364  -2.56851   0.03147
H     3.17546  -3.62684  -0.59731
H     2.71579  -0.89993  -1.50683
H     1.43894   2.11436   1.14331
H     3.42505   3.19671  -0.59996
H     1.84813   3.66608  -1.28470
H     2.27765   4.15771   0.38049
H     0.67444  -0.60851   2.11932
H    -3.94215  -1.09779   1.41107
H    -2.78246  -0.70357   2.72274
H    -3.20511  -2.41030   2.38192
H    -3.24636   0.93430   0.10328
H    -3.48547  -1.57103  -0.92108
H    -3.96217  -0.22190  -1.97086
H    -2.18266  -0.70288  -3.44014
H    -1.65572  -2.05059  -2.41040
H     0.01610   0.07729  -2.59356
H    -2.11440   1.64819  -2.20602
H    -0.95428   1.89707  -0.87992
H    -0.21678  -1.80693  -0.63337
