44
Generated by autodE on: 2022-05-30. E = -1219.476779 Ha
C     4.35636   0.68976  -0.32339
N     3.16176  -0.09255  -0.57904
C     2.11608  -0.04846   0.26519
O     2.16321   0.55457   1.33678
C     0.81601  -0.82072  -0.14326
C     1.19560  -1.96240  -1.11632
C     1.30997  -3.37666  -0.62824
O     1.49180  -1.66967  -2.26462
N     0.08552  -1.34155   1.01704
C     0.79654  -1.84444   2.18164
O    -0.74207  -0.25570   1.51178
C    -1.18788   0.50274   0.40413
C    -1.18674   1.94298   0.93896
F     0.02344   2.38555   1.30499
F    -1.67488   2.82096   0.04407
F    -1.97302   2.02088   2.03157
C    -2.60806   0.13575  -0.12522
C    -2.75491  -1.39496  -0.13721
C    -1.83731  -1.82034  -1.31804
C    -1.24496  -0.48375  -1.81382
C    -2.46656   0.43752  -1.62700
C    -0.22914   0.16146  -0.80815
C     0.45845   1.34555  -1.49871
H     5.12616   0.41359  -1.05435
H     4.15776   1.77179  -0.40591
H     4.73550   0.49054   0.68902
H     3.02325  -0.47658  -1.50811
H     1.34576  -4.05106  -1.49331
H     2.26439  -3.46032  -0.07952
H     0.50497  -3.65960   0.05949
H     1.60050  -2.51149   1.85015
H     1.23731  -1.03998   2.78769
H     0.09750  -2.42856   2.79891
H    -3.40821   0.65507   0.41664
H    -3.80554  -1.65556  -0.32980
H    -2.46475  -1.84703   0.81826
H    -1.09342  -2.56415  -1.01837
H    -2.42153  -2.26677  -2.13640
H    -0.82934  -0.53457  -2.82650
H    -2.28602   1.49208  -1.86371
H    -3.33931   0.09486  -2.20216
H    -0.27596   2.01303  -1.96445
H     1.06419   1.94705  -0.81075
H     1.11181   0.96135  -2.29244
