23
Generated by autodE on: 2022-05-30. E = -649.398818 Ha
C    -0.54463   2.50696   0.10096
C     0.21104   1.25123   0.36324
C    -0.12345  -0.05278   0.24616
C    -1.37711  -0.67460  -0.23708
F    -1.78261  -1.68273   0.57362
F    -1.22038  -1.23766  -1.46444
F    -2.41688   0.17612  -0.33660
C     1.13068  -0.88955   0.47466
C     2.04531  -0.64718  -0.76744
C     2.42811   0.85331  -0.61831
C     1.69741   1.27131   0.70023
C     1.83803  -0.01881   1.53125
H    -1.58180   2.33402  -0.20782
H    -0.03313   3.08517  -0.68836
H    -0.54131   3.14582   1.00064
H     0.95580  -1.94489   0.71850
H     1.51543  -0.86746  -1.70438
H     2.93307  -1.29553  -0.71893
H     2.10704   1.46799  -1.47179
H     3.51436   0.98296  -0.50205
H     2.05757   2.20983   1.14121
H     1.29457   0.02329   2.48673
H     2.88450  -0.31173   1.70799
