21
Generated by autodE on: 2022-05-30. E = -570.058536 Ha
C    -2.39428   0.24482   0.99781
N    -2.03046   0.67288  -0.34209
C    -0.83343   0.49506  -0.92000
O    -0.58614   0.78744  -2.09383
C     0.27592  -0.05208  -0.04770
C     1.33600   0.84135   0.46144
C     1.17706   2.29917   0.12042
O     2.28084   0.43684   1.13177
N     0.26502  -1.36620   0.12231
C     1.32143  -2.10271   0.85185
O    -0.67383  -2.07455  -0.33822
H    -3.31752   0.75807   1.29412
H    -1.60938   0.51460   1.71786
H    -2.56239  -0.84271   1.04749
H    -2.77001   0.99573  -0.96278
H     0.21118   2.67464   0.49470
H     1.17433   2.43384  -0.97178
H     1.99863   2.87002   0.57041
H     1.04190  -3.15768   0.77842
H     2.29500  -1.91095   0.38787
H     1.34860  -1.76677   1.89457
