21
Generated by autodE on: 2022-07-27. E = -570.060457 Ha
C     1.60949   3.05603   0.02379
N     0.79629   1.91847   0.39900
C     0.71629   0.83129  -0.37915
O     1.33977   0.70027  -1.44712
C    -0.17071  -0.28259   0.05874
C    -0.16558  -1.49857  -0.84550
C     1.07928  -2.32973  -0.84879
O    -1.16075  -1.77262  -1.49061
N    -0.99378  -0.21982   1.08633
C    -1.89452  -1.34249   1.43342
O    -1.10492   0.78596   1.85909
H     1.57766   3.79656   0.83198
H     2.65514   2.75482  -0.14368
H     1.24278   3.52607  -0.90367
H     0.18051   1.92851   1.21538
H     1.97536  -1.69724  -0.90270
H     1.11660  -2.87320   0.11211
H     1.05351  -3.05181  -1.67581
H    -2.89139  -1.11186   1.03512
H    -1.53358  -2.29159   1.02775
H    -1.92749  -1.37777   2.52756
