44
Generated by autodE on: 2022-05-30. E = -1219.411408 Ha. Imaginary frequency = -309.6 cm-1
C     3.47147   1.74203   0.65889
N     2.43557   0.73491   0.76548
C     2.19215  -0.12340  -0.23247
O     2.92867  -0.24631  -1.22281
C     1.01734  -1.06800  -0.08808
C     1.33062  -2.28872  -0.95887
C     2.29392  -3.31397  -0.42248
O     0.85013  -2.38029  -2.07105
N     0.45668  -1.23806   1.14278
C     0.05652  -2.52198   1.72166
O     0.01729  -0.15968   1.71164
C    -1.16973   0.72744   0.20772
C    -0.94766   2.09477   0.77062
F     0.32762   2.52561   0.74589
F    -1.66574   3.01764   0.07523
F    -1.36219   2.19140   2.05037
C    -2.62974   0.25562   0.21896
C    -2.72777  -1.26614   0.46435
C    -2.11044  -1.86302  -0.83074
C    -1.70134  -0.61190  -1.63870
C    -2.90078   0.31739  -1.30885
C    -0.56974   0.21254  -0.97531
C     0.23515   1.06086  -1.93442
H     3.56954   2.25515   1.62351
H     3.23348   2.48906  -0.11756
H     4.43600   1.28104   0.40219
H     1.69217   0.85205   1.44996
H     2.90130  -3.69970  -1.25335
H     2.93523  -2.91319   0.37388
H     1.71496  -4.15725  -0.01154
H     0.95091  -3.04057   2.09420
H    -0.60010  -2.30034   2.56842
H    -0.46147  -3.17004   1.00278
H    -3.28024   0.85090   0.87094
H    -3.78712  -1.54319   0.56492
H    -2.22458  -1.56981   1.38678
H    -1.28178  -2.55355  -0.65701
H    -2.86641  -2.42109  -1.40278
H    -1.50669  -0.81367  -2.69863
H    -2.79842   1.32978  -1.72430
H    -3.87889  -0.10158  -1.59777
H    -0.46294   1.66692  -2.53724
H     0.81620   0.43610  -2.62439
H     0.91905   1.75428  -1.43230
