59
Generated by autodE on: 2022-10-24. E = -4086.411588 Ha
C   -14.07989 -17.22558   0.25378
N   -13.28953 -16.48997   1.22174
C   -12.42771 -17.10807   2.03048
O   -12.30300 -18.32779   2.14425
C   -11.63565 -16.21048   2.97411
O   -11.77501 -14.77824   2.66670
C   -11.54940 -14.16540   3.85754
O   -11.57844 -12.97934   4.01760
C   -11.31883 -15.33536   4.87799
C   -11.70772 -15.00803   6.28383
C   -12.63871 -15.80859   6.95937
C   -12.99921 -15.50328   8.27222
C   -12.43380 -14.39801   8.91722
C   -11.51603 -13.59137   8.23894
C   -11.15808 -13.88841   6.92247
O   -12.19837 -16.28982   4.25671
C    -9.92830 -15.93618   4.47537
C   -10.13433 -16.42555   3.23629
C    -9.11381 -16.91245   2.24351
Br   -9.89562 -16.40993   0.31379
O    -7.99082 -16.15981   2.38899
C    -6.83980 -16.45869   1.60265
C    -8.95311 -18.43164   2.20021
C    -8.16479 -19.04424   3.37612
C    -8.43272 -18.51458   4.79119
C    -7.74208 -17.16470   5.09358
C    -8.64954 -15.89163   5.27841
C    -8.87936 -15.85024   6.81326
C    -9.61478 -16.99736   7.45227
O    -8.35245 -14.98064   7.48347
C    -7.90238 -14.58140   4.92120
C    -6.41301 -14.52589   5.09113
O    -8.53810 -13.62516   4.51595
H   -14.57172 -18.08275   0.73451
H   -13.44937 -17.60532  -0.56758
H   -14.84488 -16.55980  -0.16312
H   -13.25986 -15.47604   1.17575
H   -13.07103 -16.67494   6.45843
H   -13.72133 -16.13397   8.79546
H   -12.71251 -14.16355   9.94719
H   -11.07319 -12.72542   8.73563
H   -10.43572 -13.26328   6.39905
H    -7.09223 -16.40713   0.53227
H    -6.10103 -15.68511   1.84429
H    -6.42465 -17.44800   1.83997
H    -9.97045 -18.84213   2.17055
H    -8.46251 -18.71938   1.26013
H    -8.38743 -20.12278   3.35489
H    -7.08461 -18.95700   3.17749
H    -8.03517 -19.25838   5.49730
H    -9.51475 -18.47615   4.97933
H    -7.14270 -17.26300   6.00960
H    -7.01709 -16.95390   4.30430
H   -10.10358 -16.64580   8.36979
H    -8.86661 -17.75804   7.73146
H   -10.34409 -17.46869   6.78477
H    -6.09211 -13.47699   5.13627
H    -6.07946 -15.07377   5.98167
H    -5.94388 -14.99917   4.21258
