34
Generated by autodE on: 2022-10-24. E = -3305.749130 Ha
C     1.44487   1.41429   3.03976
O     1.36435   0.02900   2.72046
C     0.48230  -0.33827   1.75040
Br   -1.48070  -0.15176   2.54472
C     0.45298   0.44841   0.53054
C     0.36731   0.60497  -0.66901
C     0.24614   0.27750  -2.08236
C     1.64439   0.40429  -2.76579
C     1.85656  -0.34368  -4.04664
O     2.49687   1.10763  -2.26203
C    -0.67534   1.24357  -2.87969
C    -0.81672   2.63467  -2.34622
O    -1.21515   0.85559  -3.89598
C    -0.32500  -1.17314  -2.12493
C     0.39049  -2.19608  -1.21800
C    -0.14078  -2.38399   0.23204
C     0.68106  -1.81691   1.40188
H     0.49369   1.76323   3.47329
H     2.24988   1.52031   3.77748
H     1.68020   2.01287   2.14434
H     2.75981   0.03193  -4.54413
H     1.99001  -1.41361  -3.81616
H     0.98189  -0.25966  -4.70692
H    -1.34398   3.26922  -3.06974
H     0.17693   3.04835  -2.11177
H    -1.37892   2.60128  -1.39843
H    -1.38863  -1.11299  -1.84727
H    -0.29971  -1.51104  -3.16839
H     0.28643  -3.16804  -1.72346
H     1.47473  -1.99298  -1.19871
H    -0.19990  -3.46733   0.41547
H    -1.17768  -2.01769   0.30366
H     0.48841  -2.39177   2.31959
H     1.75849  -1.91488   1.18302
