37
Generated by autodE on: 2022-05-29. E = -1285.231889 Ha. Imaginary frequency = -417.8 cm-1
C    -1.66471  -0.26720  -2.44767
C    -1.93389  -0.24123  -0.95372
O    -2.69241  -1.12428  -0.51962
C    -1.33294   0.74601  -0.05461
C    -1.83781   0.92635   1.31689
C    -2.90538   0.02225   1.88984
O    -1.43357   1.84885   2.04434
N    -0.39057   1.69076  -0.50957
C    -0.47546   2.33040  -1.82680
C     0.69996   1.93036   0.26031
C     1.71108   2.95757  -0.13620
C     1.71441   0.13165   0.42059
C     2.39679  -0.19170  -0.92978
C     3.16980  -1.51594  -0.74838
C     2.23037  -2.46305  -0.65217
C     0.89029  -1.70186  -0.77940
O     1.26228  -0.65312  -1.68404
C     0.76572  -0.88142   0.51331
Cl    0.21907  -1.62586   1.97217
H    -2.30613   0.47159  -2.95328
H    -1.95333  -1.26350  -2.80828
H    -0.62457  -0.06793  -2.71514
H    -2.55168  -1.01564   1.94764
H    -3.14087   0.39493   2.89661
H    -3.81113   0.01091   1.26848
H     0.21747   1.88620  -2.55453
H    -1.49881   2.25973  -2.20057
H    -0.23674   3.39694  -1.72125
H     0.51496   1.84646   1.32493
H     2.56226   2.91395   0.55667
H     2.08352   2.82578  -1.16156
H     1.27026   3.96736  -0.06161
H     2.29764   0.45948   1.28165
H     2.91369   0.62916  -1.43700
H     4.25279  -1.60218  -0.66420
H     2.32882  -3.53074  -0.46015
H     0.00927  -2.26090  -1.10968
