38
Generated by autodE on: 2022-05-29. E = -1451.866723 Ha
C    -3.82144   0.82619   2.16946
N    -2.99528   0.32858   1.08752
C    -2.45056   1.16454   0.17724
O    -2.67784   2.37975   0.14626
C    -1.55472   0.50094  -0.80003
C    -0.32733   0.87371  -1.19824
Cl    0.56405   2.28127  -0.77460
C     0.24248  -0.27981  -2.01406
O    -0.95812  -0.77020  -2.63182
C    -1.73157  -0.88107  -1.42645
C    -0.85472  -1.90362  -0.63341
O    -0.89624  -1.79001   0.77839
N     0.24050  -0.94929   1.18924
C     0.42406  -1.25113   2.59629
C     1.32388  -1.33632   0.24882
C     2.04346  -2.65273   0.60285
C     2.39872  -0.25789   0.14216
O     3.10522  -0.14405  -0.83958
O     2.53503   0.47764   1.23831
C     3.56621   1.47808   1.22878
C     0.56424  -1.50149  -1.08060
H    -3.23537   1.40099   2.90705
H    -4.29262  -0.02304   2.68023
H    -4.60842   1.48515   1.77601
H    -2.57463  -0.59746   1.17204
H     1.01547  -0.03270  -2.74675
H    -2.75962  -1.19584  -1.63248
H    -1.13281  -2.93304  -0.89216
H     0.53364  -2.33028   2.80201
H     1.31544  -0.71859   2.94810
H    -0.44615  -0.87327   3.15258
H     2.75993  -2.90294  -0.19135
H     1.31128  -3.46886   0.68644
H     2.59196  -2.56556   1.55082
H     3.40049   2.18835   0.40691
H     3.49659   1.98961   2.19515
H     4.55266   1.00687   1.11381
H     1.03784  -2.26578  -1.70510
