18
Generated by autodE on: 2022-07-26. E = -476.543756 Ha
C     1.87100   2.30174   0.00597
O     0.84505   1.33272   0.26433
C     0.88338   0.20927  -0.45678
O     1.76387  -0.02194  -1.26981
C    -0.19266  -0.76457  -0.17552
C    -0.04137  -2.16213  -0.67095
N    -1.30414  -0.49500   0.49502
C    -1.68555   0.83675   1.02208
O    -2.15343  -1.41378   0.71900
H     1.83658   2.62860  -1.04311
H     1.66098   3.14460   0.67427
H     2.86180   1.87863   0.22524
H     0.88500  -2.26978  -1.24447
H    -0.90247  -2.43943  -1.30182
H    -0.03633  -2.86938   0.17555
H    -1.11294   1.04632   1.93360
H    -1.49438   1.61622   0.27992
H    -2.75291   0.76063   1.24867
