38
Generated by autodE on: 2022-05-29. E = -1451.786068 Ha. Imaginary frequency = -379.1 cm-1
C    -3.84862   0.40121   2.18999
N    -3.08473   0.08890   0.99742
C    -2.43020   1.06779   0.32676
O    -2.57149   2.27084   0.57396
C    -1.52975   0.57950  -0.74030
C    -0.32532   1.03800  -1.12340
Cl    0.56094   2.40523  -0.58623
C     0.20448   0.04962  -2.16201
O    -1.04864  -0.24721  -2.83266
C    -1.73409  -0.66583  -1.62526
C    -0.79012  -1.78869  -1.16308
O    -0.78444  -1.90442   0.88681
N     0.27702  -1.22730   1.23943
C     0.05569  -0.06350   2.10461
C     1.38993  -1.54437   0.52740
C     1.70056  -3.01264   0.35010
C     2.60261  -0.66882   0.49620
O     3.62108  -1.01779  -0.07470
O     2.46704   0.51627   1.07833
C     3.55936   1.43629   0.95287
C     0.49155  -1.32086  -1.48541
H    -3.20091   0.74820   3.01431
H    -4.38645  -0.49742   2.51773
H    -4.57924   1.19383   1.97761
H    -2.66273  -0.83927   0.94474
H     0.96806   0.42524  -2.84968
H    -2.77313  -0.94840  -1.81967
H    -1.11117  -2.82702  -1.17710
H     0.87386   0.00541   2.82897
H    -0.00928   0.88505   1.56173
H    -0.88052  -0.25783   2.63751
H     2.38544  -3.17278  -0.48948
H     0.79082  -3.60023   0.19738
H     2.20019  -3.37294   1.26641
H     3.74304   1.66554  -0.10631
H     3.25258   2.34075   1.48992
H     4.46987   1.01533   1.40209
H     1.27498  -1.94552  -1.91025
