44
Generated by autodE on: 2022-05-30. E = -1241.124590 Ha
C     5.78563   0.42037   0.37789
O     4.58471  -0.18901  -0.11465
C     3.49546   0.59037  -0.17440
O     3.50439   1.77031   0.14496
C     2.29415  -0.09020  -0.65422
C     1.96374  -1.40141  -0.72763
C     2.69829  -2.65138  -0.42421
C     0.47454  -1.39330  -1.07765
O     0.35630  -0.20312  -1.86635
C     1.00368   0.68173  -0.93585
C     0.14179   0.51778   0.34393
C    -0.25798  -0.98511   0.22866
C    -1.81049  -0.87428   0.19301
C    -2.57605  -2.17734   0.38290
C    -4.04614  -2.09025   0.65242
O    -1.97746  -3.23150   0.27627
C    -2.18933  -0.14674  -1.10831
O    -2.70779  -0.56192  -2.10856
O    -1.84260   1.14820  -0.91419
C    -1.24812   1.20224   0.40343
C    -1.28263   2.62212   0.96431
C    -2.16847   3.61674   0.28809
O    -0.60664   2.86531   1.94555
N    -2.11403   0.24790   1.12452
C    -1.81828   0.02630   2.53850
H     6.55390  -0.36102   0.34934
H     6.08042   1.26575  -0.26066
H     5.64436   0.77594   1.40903
H     2.14495  -3.22613   0.33870
H     3.71830  -2.46545  -0.07056
H     2.73559  -3.29111  -1.32286
H     0.07699  -2.26954  -1.60047
H     1.09895   1.69465  -1.33892
H     0.70591   0.77460   1.24626
H     0.03958  -1.60587   1.08070
H    -4.48912  -3.09412   0.63683
H    -4.21852  -1.62516   1.63620
H    -4.53170  -1.44551  -0.09661
H    -3.19080   3.21349   0.21168
H    -2.16398   4.56204   0.84481
H    -1.81581   3.77978  -0.74335
H    -2.45662  -0.78734   2.90842
H    -0.76810  -0.23199   2.75405
H    -2.07436   0.93138   3.10443
