22
Generated by autodE on: 2022-05-30. E = -666.231647 Ha
C     3.54154   0.60792  -0.75551
C     2.53219  -0.47345  -0.51694
O     2.78940  -1.66814  -0.53837
C     1.15289  -0.01513  -0.24230
O     0.86685   1.28604  -0.19971
C    -0.51877   1.44690   0.08837
O    -0.99022   2.56138   0.17324
C    -1.01443   0.11062   0.20743
C    -2.38513  -0.27885   0.49836
C    -3.37045   0.84609   0.69922
O    -2.75189  -1.45476   0.58386
N     0.07006  -0.73984  -0.00822
C     0.04195  -2.21013   0.01624
H     3.59183   1.27841   0.11751
H     4.52226   0.15346  -0.94133
H     3.23795   1.22362  -1.61763
H    -4.35787   0.41340   0.90498
H    -3.06079   1.49102   1.53615
H    -3.41937   1.48806  -0.19376
H     0.69781  -2.56708   0.81914
H     0.40807  -2.59036  -0.94397
H    -0.99000  -2.51484   0.19232
