22
Generated by autodE on: 2022-05-30. E = -574.845899 Ha
C     3.57525   0.63753  -0.39436
O     2.18528   0.37755  -0.61864
C     1.46563  -0.03000   0.44615
O     1.96131  -0.17820   1.55372
C     0.06934  -0.25146   0.09145
C    -0.99067  -0.45187   0.90524
C    -1.12630  -0.54222   2.37537
C    -2.20488  -0.46509  -0.05767
C    -2.38128   0.98348  -0.56387
C    -1.33568   1.18974  -1.37048
C    -0.53575  -0.13143  -1.32946
O    -1.61132  -1.08218  -1.21259
H     3.98445   0.95590  -1.36041
H     4.08907  -0.27094  -0.04676
H     3.70567   1.43437   0.35273
H    -0.16138  -0.44622   2.88666
H    -1.59542  -1.50090   2.65674
H    -1.81040   0.24955   2.72975
H    -3.09693  -0.99589   0.29272
H    -3.17049   1.66567  -0.25022
H    -1.03329   2.08987  -1.90472
H     0.12689  -0.35328  -2.17114
