44
Generated by autodE on: 2022-05-30. E = -1241.061384 Ha. Imaginary frequency = -384.0 cm-1
C     5.99226   0.30801   0.47188
O     4.76580  -0.23231  -0.03586
C     3.68730   0.56525   0.02224
O     3.73085   1.70483   0.46424
C     2.46433  -0.04358  -0.48847
C     2.13247  -1.32049  -0.78753
C     2.86727  -2.60416  -0.75396
C     0.61700  -1.24251  -1.10898
O     0.53571   0.05716  -1.70523
C     1.15054   0.76268  -0.61749
C     0.25052   0.33359   0.56319
C    -0.06505  -0.99686   0.24185
C    -2.40242  -0.79651   0.08675
C    -2.87874  -2.18919   0.20386
C    -3.53822  -2.68143   1.46106
O    -2.70359  -2.93531  -0.75517
C    -2.25069  -0.15283  -1.21051
O    -2.38908  -0.52734  -2.35196
O    -1.89213   1.15421  -0.91374
C    -1.68452   1.24056   0.43822
C    -1.46277   2.61569   0.97275
C    -1.22622   3.68089  -0.05644
O    -1.43193   2.83484   2.17398
N    -2.38592   0.21883   1.03297
C    -2.36417   0.00037   2.47804
H     6.74516  -0.47815   0.34202
H     6.28236   1.20693  -0.09156
H     5.89222   0.56426   1.53684
H     2.34630  -3.30468  -0.07747
H     3.90584  -2.48613  -0.42541
H     2.85092  -3.07413  -1.75254
H     0.20287  -2.02674  -1.75204
H     1.25211   1.83270  -0.82154
H     0.45564   0.67442   1.57958
H    -0.21947  -1.79779   0.96333
H    -2.80792  -2.71886   2.28414
H    -4.35834  -2.01697   1.77063
H    -3.92242  -3.69305   1.27855
H    -2.13551   3.81434  -0.66485
H    -0.96891   4.62011   0.44842
H    -0.42185   3.38411  -0.74618
H    -3.34316  -0.35385   2.81652
H    -1.59352  -0.73978   2.73949
H    -2.13729   0.95034   2.96475
