24
Generated by autodE on: 2022-05-31. E = -688.223151 Ha
C     3.61595   1.20841   0.68085
O     2.49795   0.35969   0.38158
C     1.39205   0.95744  -0.08143
O     1.30462   2.15584  -0.26711
C     0.34497  -0.04857  -0.33476
C    -1.00416  -0.00079  -0.27384
C    -2.00321   1.01248   0.13342
C    -1.66793   2.47269   0.13018
O    -3.10857   0.60192   0.47693
C    -1.44440  -1.47520  -0.47430
C    -1.02273  -2.24148   0.79801
C     0.31104  -2.28661   0.74226
C     0.67333  -1.54927  -0.56589
O    -0.43580  -1.90859  -1.39843
H     3.34485   1.93970   1.45591
H     4.40919   0.54528   1.04398
H     3.94518   1.73941  -0.22395
H    -2.56820   3.05214   0.37242
H    -0.87953   2.67518   0.87151
H    -1.26267   2.77455  -0.84656
H    -2.45994  -1.62657  -0.85084
H    -1.70685  -2.59052   1.57025
H     1.03320  -2.68179   1.45522
H     1.63987  -1.76897  -1.02850
