16
Generated by autodE on: 2022-05-31. E = -529.411960 Ha
C    -2.79092   0.83450   1.01135
N    -1.54986   1.50819   1.25701
O    -0.50903   0.96325   0.72332
C    -0.29808  -0.10891  -0.02608
C    -1.25131  -1.04563  -0.49191
N    -1.93812  -1.87880  -0.93230
C     1.11078  -0.33190  -0.40291
O     1.45119  -1.28040  -1.08707
O     1.93495   0.59507   0.07728
C     3.32653   0.44128  -0.24731
H    -2.78200  -0.19508   1.41256
H    -3.57123   1.41178   1.51998
H    -3.02056   0.78670  -0.06855
H     3.70955  -0.50899   0.15142
H     3.47088   0.46759  -1.33687
H     3.83841   1.28689   0.22539
