37
Generated by autodE on: 2022-06-12. E = -937.905783 Ha
C     4.97920  -0.27964   1.20544
O     3.85031  -0.48637   0.35461
C     2.69692   0.11391   0.72692
O     2.64815   0.82175   1.73355
C     1.57031  -0.17781  -0.12533
C     1.47397  -1.14098  -1.18004
C     2.70527  -1.77890  -1.78215
O     0.35735  -1.47822  -1.64346
N     0.37995   0.56871   0.12174
C     0.50639   2.03900   0.07010
C    -0.79390  -0.01231   0.13255
C    -0.90567  -1.49847   0.45414
C    -2.00449  -2.27156  -0.21572
O    -0.19907  -1.97230   1.32490
C    -2.05057   0.73368  -0.05189
C    -2.26754   1.49500  -1.21429
C    -3.48341   2.15199  -1.39917
C    -4.48537   2.06473  -0.42654
C    -4.27497   1.30581   0.72926
C    -3.06852   0.63007   0.91256
H     4.78235  -0.65436   2.22103
H     5.24085   0.78751   1.26175
H     5.80442  -0.84310   0.75293
H     2.39810  -2.31507  -2.68990
H     3.48741  -1.04603  -2.01555
H     3.13582  -2.50038  -1.07067
H    -0.35533   2.50663   0.55662
H     1.42143   2.31548   0.59983
H     0.57331   2.36346  -0.97649
H    -2.88731  -2.26911   0.44516
H    -1.67726  -3.31259  -0.34175
H    -2.29241  -1.83752  -1.18021
H    -1.49035   1.55016  -1.97819
H    -3.65079   2.73316  -2.30852
H    -5.43461   2.58507  -0.57271
H    -5.05533   1.23537   1.48996
H    -2.90527   0.03495   1.81354
