26
Generated by autodE on: 2022-05-28. E = -773.765416 Ha
C    -2.51610  -1.57941   0.37888
N    -1.54794  -1.11957  -0.61675
N    -1.66229   0.26938  -0.86820
C    -0.74024   0.96611   0.07552
C    -1.45947   1.31541   1.31876
N    -2.03387   1.60813   2.28128
C    -0.28422   2.22909  -0.51934
N     0.05321   3.22541  -1.00427
C     0.44374  -0.06026   0.34273
C     0.84319  -0.13556   1.73330
N     1.18676  -0.19873   2.84048
C     1.66654   0.16443  -0.64250
C     2.66490  -0.94797  -0.36643
C     2.12339  -2.04663  -0.90525
C     0.78945  -1.60168  -1.47725
O     1.06355  -0.24079  -1.86663
C    -0.16842  -1.40309  -0.25987
H    -3.52093  -1.26570   0.06955
H    -2.31955  -1.19814   1.39735
H    -2.48751  -2.67708   0.41587
H    -1.30519   0.44960  -1.80782
H     2.03676   1.19296  -0.68033
H     3.57681  -0.83764   0.21865
H     2.47867  -3.07611  -0.86880
H     0.35102  -2.17483  -2.29970
H    -0.12037  -2.24899   0.43269
