26
Generated by autodE on: 2022-05-28. E = -773.707857 Ha. Imaginary frequency = -330.2 cm-1
C    -2.33635  -1.87344  -1.27545
N    -1.77125  -0.96569  -0.29486
N    -1.67021   0.25759  -0.72173
C    -1.22082   1.20650   0.14075
C    -1.60295   1.15870   1.50783
N    -1.90798   1.16178   2.63159
C    -0.65180   2.39529  -0.38301
N    -0.15289   3.36096  -0.80151
C     0.80329  -0.32305   0.55315
C     1.07230  -0.01217   1.89835
N     1.30617   0.26592   3.00822
C     1.69977   0.14367  -0.62905
C     2.83954  -0.88408  -0.72701
C     2.25402  -2.00677  -1.15757
C     0.76829  -1.64747  -1.33240
O     0.86346  -0.26474  -1.72138
C     0.15943  -1.47578   0.08297
H    -2.02227  -1.64554  -2.30967
H    -3.43581  -1.81578  -1.22352
H    -2.03767  -2.89648  -1.01512
H    -1.57964   0.45289  -1.72932
H     1.95119   1.20789  -0.67118
H     3.87276  -0.70543  -0.43182
H     2.67732  -2.99813  -1.31460
H     0.19668  -2.23698  -2.05472
H    -0.11614  -2.32032   0.71239
