42
Generated by autodE on: 2022-06-20. E = -1070.504394 Ha
C    -3.35963  -2.14946  -0.95983
C    -1.90033  -1.86519  -1.15643
O    -1.08509  -2.71744  -1.43381
C    -1.46449  -0.35954  -1.08801
C    -2.42432   0.42399  -1.91871
N    -3.08392   1.06140  -2.63097
C    -1.48065   0.22008   0.35604
C    -1.07614  -0.76498   1.44036
O    -1.40221  -1.94113   1.39876
C    -0.35757  -0.22047   2.61204
C     0.10835   1.04210   2.66225
C    -0.02085   1.97478   1.52321
O     0.31083   3.14747   1.62694
C    -0.54134   1.41847   0.21907
C     0.58477   0.91985  -0.76471
C     1.02086   2.09715  -1.64471
C     1.77287   0.31274   0.00164
C     1.85829  -1.07209   0.20047
C     2.86865  -1.62200   0.99597
C     3.81505  -0.79470   1.60495
C     3.75056   0.58662   1.39758
C     2.74242   1.13426   0.59952
N    -0.11208  -0.14074  -1.51901
C     0.23765  -0.36852  -2.90446
H    -3.86581  -2.03686  -1.93393
H    -3.48883  -3.18454  -0.61854
H    -3.82745  -1.44667  -0.25655
H    -2.49540   0.54527   0.63505
H    -0.22827  -0.91393   3.44640
H     0.61373   1.43131   3.54938
H    -1.07245   2.23616  -0.28503
H     1.32767   2.94516  -1.01791
H     0.17874   2.43070  -2.26771
H     1.86394   1.82576  -2.29486
H     1.11872  -1.71778  -0.27122
H     2.91179  -2.70426   1.14094
H     4.60120  -1.22188   2.23192
H     4.49003   1.24548   1.85915
H     2.70739   2.21514   0.46314
H    -0.17756  -1.32775  -3.23938
H     1.33134  -0.43295  -2.99942
H    -0.12318   0.42350  -3.58871
