12
Generated by autodE on: 2022-06-20. E = -381.636089 Ha
O    -1.37018   2.28720   0.05028
C    -0.74024   1.23483   0.02716
C     0.74252   1.22732   0.06168
C     1.43389   0.07449   0.03647
C     0.74025  -1.23483  -0.02720
O     1.37018  -2.28720  -0.05026
C    -0.74252  -1.22732  -0.06167
C    -1.43389  -0.07449  -0.03647
H     1.23135   2.20328   0.10823
H     2.52576   0.04440   0.06131
H    -1.23135  -2.20328  -0.10820
H    -2.52576  -0.04439  -0.06128
