42
Generated by autodE on: 2022-06-20. E = -1070.439323 Ha. Imaginary frequency = -261.8 cm-1
C    -0.04811  -3.04315  -1.08625
C    -0.36433  -1.74685  -0.38979
O    -0.39640  -1.65559   0.81607
C    -0.77115  -0.57629  -1.32395
C    -1.74193  -1.02883  -2.27022
N    -2.61076  -1.41740  -2.94297
C    -1.90381   0.84496  -0.14756
C    -2.44680   0.03455   0.97199
O    -3.35548  -0.77654   0.80210
C    -1.87880   0.27340   2.32197
C    -1.00087   1.26518   2.54815
C    -0.56464   2.18812   1.46622
O     0.12789   3.18291   1.75118
C    -0.99884   1.89055   0.12213
C     1.03249   0.96615  -0.94914
C     1.67847   2.27107  -1.29584
C     1.81749   0.11213  -0.01735
C     2.10201   0.47460   1.30816
C     2.87723  -0.35806   2.11500
C     3.41155  -1.54628   1.60423
C     3.18515  -1.88381   0.26847
C     2.39974  -1.05880  -0.53847
N     0.16660   0.35815  -1.79938
C    -0.20441   1.06107  -3.03918
H    -1.00731  -3.53298  -1.32859
H     0.51814  -3.69571  -0.40993
H     0.49113  -2.88741  -2.03027
H    -2.60585   0.96440  -0.97513
H    -2.22403  -0.39547   3.11414
H    -0.58999   1.45849   3.54236
H    -0.88648   2.70121  -0.59824
H     1.03103   2.95178  -1.85871
H     1.96152   2.76319  -0.35377
H     2.60853   2.09809  -1.86577
H     1.71609   1.40487   1.71747
H     3.06752  -0.07364   3.15230
H     4.01619  -2.19535   2.24154
H     3.62182  -2.79167  -0.15351
H     2.24364  -1.32081  -1.58522
H    -0.58561   0.33383  -3.76304
H     0.68039   1.53755  -3.46926
H    -0.97980   1.81731  -2.84092
