61
Generated by autodE on: 2022-06-07. E = -1547.405412 Ha
C    -7.43174  -8.96429  -9.78612
N    -8.86354  -9.15008  -9.65587
C    -9.56662  -9.81694 -10.57864
O    -9.02056 -10.33390 -11.56231
C   -11.10216  -9.95312 -10.30540
C   -11.94582 -10.05869 -11.60411
O   -13.10793  -9.63219 -11.61473
N   -11.41505 -10.71487 -12.63891
C   -12.13409 -10.84261 -13.89059
C   -11.22903 -11.33500  -9.58473
C   -12.63754 -11.87739  -9.33242
C   -13.61627 -10.96778  -8.59060
C   -13.20952 -10.51534  -7.18914
C   -11.95295  -9.61331  -7.05721
C   -10.62626 -10.23832  -6.65502
C   -10.64708 -11.47474  -5.80386
O    -9.56992  -9.68466  -6.93662
C   -11.81835  -8.59740  -8.16383
C   -11.56690  -8.74877  -9.49553
C   -11.67509  -7.34113 -10.10442
C   -10.50559  -6.99944 -11.05411
C    -9.57931  -5.90071 -10.64605
O   -10.36370  -7.64266 -12.07498
C   -13.07369  -7.17033 -10.79557
O   -14.10935  -7.31432 -10.19098
O   -12.97757  -6.75200 -12.04518
C   -14.21046  -6.60633 -12.77168
N   -11.78914  -6.41720  -8.98553
C   -11.94464  -7.14040  -7.92793
C   -12.24410  -6.46861  -6.61233
C   -11.79443  -5.04859  -6.45202
O   -12.84529  -7.07332  -5.73751
H    -6.88601  -9.92113  -9.73482
H    -7.19601  -8.48607 -10.74866
H    -7.08740  -8.31444  -8.97202
H    -9.29159  -8.95506  -8.74940
H   -10.40467 -10.87163 -12.58771
H   -11.55259 -11.47526 -14.57279
H   -13.11863 -11.30593 -13.72957
H   -12.29601  -9.86112 -14.36784
H   -10.69256 -12.05554 -10.21839
H   -10.64988 -11.28996  -8.65703
H   -12.51683 -12.81891  -8.76959
H   -13.09049 -12.15775 -10.29718
H   -14.56968 -11.51296  -8.49080
H   -13.84395 -10.08797  -9.20920
H   -14.04845  -9.93268  -6.77844
H   -13.09542 -11.38742  -6.52935
H   -12.14192  -9.03062  -6.14025
H    -9.63807 -11.67829  -5.42344
H   -10.99026 -12.32979  -6.40897
H   -11.35728 -11.36500  -4.97013
H    -9.18861  -6.10026  -9.63638
H   -10.13537  -4.95187 -10.59079
H    -8.75715  -5.82104 -11.36835
H   -13.92908  -6.24591 -13.76725
H   -14.71106  -7.58185 -12.84374
H   -14.86790  -5.88273 -12.27030
H   -12.11322  -4.66684  -5.47404
H   -10.69645  -4.99973  -6.53909
H   -12.20534  -4.42713  -7.26115
