39
Generated by autodE on: 2022-06-07. E = -881.110828 Ha
C     1.16085  -3.20832   3.12479
N     1.31888  -2.41142   1.92452
C     0.34266  -1.61685   1.47376
O    -0.74911  -1.49585   2.03995
C     0.67074  -0.76121   0.22172
C     1.56365  -1.51726  -0.78603
O     2.67137  -1.95286  -0.43702
N     1.09566  -1.66154  -2.02901
C     1.86340  -2.32939  -3.06324
C    -0.55855  -0.24289  -0.36764
C    -1.33726   0.56929  -0.81737
C    -1.85880   1.88802  -1.15690
C    -2.83940   2.42177  -0.09299
C    -3.66682   1.41533   0.65173
O    -2.93725   3.62005   0.09836
C    -0.63594   2.81638  -1.35782
C     0.42093   2.77760  -0.23284
C     1.53195   1.68882  -0.27816
C     1.45089   0.51489   0.71952
H     2.09735  -3.74461   3.32073
H     0.92655  -2.57340   3.99359
H     0.34755  -3.94379   3.01552
H     2.17011  -2.46403   1.36422
H     0.19864  -1.24425  -2.25994
H     2.12373  -3.35410  -2.75739
H     1.26127  -2.37240  -3.97852
H     2.79924  -1.78907  -3.27693
H    -2.45968   1.86488  -2.08514
H    -4.13895   0.71236  -0.05315
H    -3.00549   0.81370   1.29704
H    -4.42697   1.92095   1.26092
H    -0.16275   2.56272  -2.31938
H    -1.02486   3.84080  -1.45219
H     0.93043   3.75319  -0.26615
H    -0.08587   2.74849   0.74735
H     1.63918   1.30117  -1.30517
H     2.48488   2.19489  -0.05894
H     2.46262   0.17714   0.98574
H     0.96275   0.85157   1.64711
