22
Generated by autodE on: 2022-06-07. E = -666.179298 Ha
C    -2.56891  -2.65123  -0.05517
O    -1.50640  -1.68992  -0.04091
C    -1.85871  -0.40753   0.16059
O    -3.01347  -0.05299   0.32851
C    -0.69512   0.48087   0.15013
N     0.50054  -0.05329  -0.04589
C     1.61934  -0.35446  -0.20250
C     2.99733  -0.72680  -0.44874
C     3.96756   0.41416  -0.37227
O     3.28099  -1.89135  -0.67894
C    -0.68559   1.94226   0.33291
C    -1.98895   2.65456   0.56729
O     0.38372   2.55196   0.28983
H    -2.09264  -3.62338  -0.22803
H    -3.28117  -2.42989  -0.86350
H    -3.10094  -2.65615   0.90737
H     4.69912   0.31658  -1.18801
H     3.46102   1.38837  -0.41642
H     4.50810   0.33807   0.58667
H    -2.67792   2.48677  -0.27397
H    -2.48779   2.26391   1.46674
H    -1.78654   3.72733   0.68232
