61
Generated by autodE on: 2022-06-07. E = -1547.296110 Ha. Imaginary frequency = -289.9 cm-1
C    -7.44222  -8.95212 -10.66708
N    -8.82319  -9.25449 -10.34391
C    -9.67470  -9.71914 -11.26628
O    -9.30490  -9.99262 -12.41667
C   -11.11071 -10.00550 -10.75766
C   -12.22720  -9.94591 -11.82912
O   -13.39262  -9.72454 -11.47537
N   -11.88261 -10.22007 -13.08924
C   -12.84193 -10.13344 -14.17180
C   -11.04446 -11.47718 -10.18798
C   -12.33160 -12.11490  -9.65087
C   -13.09030 -11.45856  -8.47905
C   -12.24729 -11.00306  -7.26699
C   -12.14440  -9.45184  -7.14644
C   -11.12730  -9.06968  -6.07324
C   -11.59854  -9.11515  -4.65113
O    -9.99640  -8.72113  -6.37738
C   -11.76879  -8.90479  -8.46275
C   -11.46652  -9.12443  -9.63670
C   -11.37948  -6.52576 -10.54312
C    -9.95526  -6.38880 -10.91169
C    -9.01928  -5.96428  -9.80694
O    -9.55920  -6.62538 -12.04820
C   -12.46188  -6.71774 -11.52867
O   -12.29223  -6.94827 -12.71182
O   -13.67031  -6.59669 -10.96192
C   -14.80579  -6.79066 -11.81667
N   -11.71816  -6.26260  -9.29035
C   -11.95600  -6.64558  -8.18480
C   -12.34391  -6.15830  -6.84144
C   -11.27116  -5.43692  -6.09041
O   -13.45936  -6.41054  -6.42707
H    -7.38647  -8.21422 -11.48181
H    -6.90292  -9.85822 -10.98454
H    -6.95314  -8.54125  -9.77622
H    -9.18600  -9.01205  -9.42555
H   -10.87631 -10.27152 -13.27240
H   -13.15479  -9.09055 -14.34611
H   -13.74028 -10.72572 -13.94477
H   -12.38238 -10.52316 -15.08873
H   -10.65775 -12.11150 -11.00068
H   -10.27721 -11.46498  -9.40026
H   -12.03337 -13.13130  -9.34049
H   -13.04521 -12.25494 -10.47869
H   -13.83064 -12.19773  -8.13440
H   -13.67517 -10.60823  -8.85799
H   -12.68288 -11.38445  -6.33208
H   -11.22619 -11.41210  -7.33023
H   -13.12731  -9.06002  -6.83897
H   -12.19004 -10.02152  -4.45325
H   -10.75059  -9.04276  -3.95800
H   -12.27206  -8.25355  -4.49939
H    -9.30190  -4.96775  -9.43145
H    -7.99241  -5.93616 -10.18983
H    -9.08111  -6.65759  -8.95327
H   -15.68608  -6.60928 -11.18903
H   -14.81754  -7.81912 -12.20144
H   -14.78475  -6.07864 -12.65431
H   -11.66045  -5.11268  -5.11660
H   -10.41069  -6.11159  -5.95269
H   -10.92046  -4.57366  -6.67835
