63
Generated by autodE on: 2022-10-25. E = -1752.743735 Ha
C    -8.09907   2.37078   0.84208
N    -6.93342   2.93254   0.18219
C    -5.79272   2.24709   0.09316
O    -5.59346   1.15800   0.62788
C    -4.59722   2.92785  -0.64713
C    -4.98094   4.13615  -1.41213
N    -5.26163   5.09268  -2.00428
O    -3.67295   3.28189   0.36190
C    -2.36746   2.81997   0.02333
C    -1.58957   3.92708  -0.73446
O    -0.62090   3.68969  -1.42583
O    -2.14461   5.11650  -0.59697
C    -1.60911   6.18541  -1.39988
C    -1.69899   2.38806   1.31463
C    -0.60223   3.06901   1.85209
C    -0.03754   2.64307   3.05684
C    -0.57114   1.54189   3.73202
C    -1.68173   0.87237   3.20624
C    -2.24789   1.29723   2.00444
C    -2.62577   1.74445  -1.05052
C    -3.86345   1.91762  -1.53451
C    -4.59592   1.49123  -2.79062
O    -5.96576   1.56260  -2.42238
C    -6.96302   0.90514  -3.19164
C    -4.32875   2.56354  -3.88910
O    -5.11947   2.82771  -4.76661
O    -3.13303   3.11968  -3.76007
C    -2.73861   4.11355  -4.71698
C    -4.19635   0.13371  -3.37688
C    -4.19405  -1.02386  -2.36736
C    -2.79138  -1.54373  -2.05275
C    -1.91994  -0.74077  -1.09366
C    -1.52526   0.75346  -1.46009
C    -1.12642   0.89613  -2.87583
N    -0.76212   0.98763  -3.97182
C    -0.25163   0.96825  -0.72953
N     0.78941   0.98093  -0.22164
H    -8.47795   1.49181   0.29599
H    -8.88537   3.13382   0.88096
H    -7.84947   2.05919   1.86668
H    -7.03793   3.80322  -0.32944
H    -1.74355   5.94907  -2.46487
H    -2.18495   7.07716  -1.13013
H    -0.54302   6.33172  -1.17936
H    -0.16590   3.92262   1.33014
H     0.82400   3.17400   3.46754
H    -0.12450   1.20728   4.67115
H    -2.10887   0.01725   3.73471
H    -3.12492   0.79079   1.59736
H    -6.91747   1.18077  -4.25432
H    -7.92269   1.24433  -2.77730
H    -6.90421  -0.19032  -3.08669
H    -1.70585   4.37471  -4.46223
H    -3.39248   4.99300  -4.62994
H    -2.79350   3.70614  -5.73600
H    -3.21718   0.23632  -3.85864
H    -4.88877  -0.06406  -4.20559
H    -4.71290  -0.72955  -1.44053
H    -4.77474  -1.85679  -2.79057
H    -2.87879  -2.53637  -1.58226
H    -2.24541  -1.70541  -2.99761
H    -0.97287  -1.28419  -0.97511
H    -2.38422  -0.67542  -0.10015
