31
Generated by autodE on: 2022-10-27. E = -913.370420 Ha
C    -5.18007   0.12711  -0.84413
N    -3.79221   0.34132  -1.19955
C    -2.78534   0.03461  -0.34925
O    -2.98534  -0.40032   0.79593
C    -1.41972   0.26391  -0.84748
C    -1.10308   0.61978  -2.16490
N    -0.89698   0.89547  -3.29691
O    -0.48348  -0.06724   0.05332
C     0.80327  -0.05557   0.12867
C     1.63402   0.58964  -0.94375
O     2.59403   0.06214  -1.46081
O     1.19059   1.81097  -1.20693
C     1.83903   2.52805  -2.27502
C     1.38413  -0.66868   1.30241
C     2.77979  -0.64668   1.52842
C     3.30975  -1.23600   2.67353
C     2.46882  -1.84914   3.60818
C     1.08318  -1.87074   3.39478
C     0.54046  -1.28984   2.25573
H    -5.81633   0.74289  -1.49264
H    -5.35238   0.41767   0.20139
H    -5.48209  -0.92850  -0.95840
H    -3.57803   0.63892  -2.14603
H     2.89375   2.70203  -2.02119
H     1.30195   3.47799  -2.36521
H     1.76668   1.95426  -3.20865
H     3.44690  -0.17349   0.80874
H     4.38887  -1.21509   2.83869
H     2.89102  -2.31076   4.50345
H     0.42476  -2.34810   4.12356
H    -0.53672  -1.30270   2.08668
