20
Generated by autodE on: 2022-06-17. E = -457.715326 Ha
C     3.14159   0.47668   0.01849
N     1.82567  -0.14058  -0.00754
C     1.71018  -1.52539   0.16663
C     0.52443  -2.15002   0.24177
C    -0.79623  -1.42617   0.15077
C    -0.57255   0.06841  -0.01561
C    -1.70374   1.00416  -0.12293
N    -2.94196   0.45525  -0.04064
O    -1.56715   2.23436  -0.28313
C     0.68227   0.59728  -0.07695
H     3.60140   0.40618   1.01887
H     3.81213  -0.01188  -0.70524
H     3.05104   1.53635  -0.25101
H     2.65915  -2.06054   0.23295
H     0.51597  -3.23466   0.37153
H    -1.40780  -1.63801   1.05183
H    -1.39580  -1.83212  -0.68997
H    -3.09492  -0.53366   0.11011
H    -3.74844   1.06732  -0.09806
H     0.81467   1.67415  -0.19318
