37
Generated by autodE on: 2022-06-17. E = -821.833851 Ha. Imaginary frequency = -296.8 cm-1
C     1.38601  -2.33111   1.43265
N     1.19067  -0.93224   1.09293
C     1.99411  -0.29155   0.19430
C     1.82170   1.00703  -0.17837
C     2.77628   1.56497  -1.14730
N     2.62530   2.88024  -1.44696
O     3.68260   0.89412  -1.68254
C     0.72664   1.85781   0.43472
C    -0.24436   1.01559   1.23562
C     0.04200  -0.29095   1.54559
C    -1.44793  -1.53487  -0.42870
C    -0.52766  -2.25456  -1.36226
C    -2.24066  -2.22405   0.49326
N    -2.83965  -2.88414   1.26326
O    -1.70331  -0.25883  -0.82216
C    -2.17155   0.75443  -0.13079
C    -2.24441   2.01431  -0.92466
C    -3.15779   0.55776   0.97507
H     2.31154  -2.69401   0.96977
H     0.54289  -2.94452   1.07771
H     1.46407  -2.45584   2.52423
H     2.81573  -0.87944  -0.21683
H     1.91245   3.46028  -1.02342
H     3.26272   3.30208  -2.11320
H     0.19551   2.42330  -0.34956
H     1.16512   2.63831   1.09038
H    -0.95654   1.53887   1.87260
H    -0.53417  -0.85059   2.28166
H    -0.51478  -3.33001  -1.13925
H     0.50936  -1.87806  -1.28556
H    -0.84424  -2.12751  -2.41277
H    -2.09511   2.88885  -0.27458
H    -1.49925   2.01822  -1.73128
H    -3.24955   2.11401  -1.37524
H    -3.37364   1.52667   1.44462
H    -4.10085   0.16765   0.54896
H    -2.82078  -0.14410   1.74458
