16
Generated by autodE on: 2022-07-26. E = -438.149235 Ha
C     1.88551  -1.22362   0.22164
C     1.88429   0.24586   0.57039
O     2.85996   0.75704   1.14193
C     0.84687   1.12324   0.07887
O    -0.32949   0.80162  -0.43578
C    -1.15797  -0.18086  -0.17566
C    -1.06341  -1.06673   1.00641
C    -2.29600  -0.17568  -1.01823
N    -3.24163  -0.21779  -1.70200
H     1.60143  -1.83237   1.09473
H     1.21614  -1.47329  -0.61341
H     2.91828  -1.49109  -0.04544
H     1.09531   2.16886  -0.10973
H    -0.54824  -2.02104   0.81606
H    -0.50663  -0.53832   1.80108
H    -2.07970  -1.30126   1.35553
