29
Generated by autodE on: 2022-05-28. E = -844.945699 Ha. Imaginary frequency = -204.8 cm-1
C     2.98407  -2.19175  -0.69726
C     2.63525  -0.85573  -0.08241
O     3.39737  -0.32173   0.73041
C     1.48874  -0.08273  -0.55061
O     0.41232  -0.51360  -1.18689
C    -0.38800  -1.53178  -0.93694
C    -0.00664  -2.77560  -0.21752
C    -1.60256  -1.45924  -1.66574
N    -2.62357  -1.42862  -2.23154
C    -1.04589  -0.35914   1.39073
C    -2.09129   0.76379   1.16399
C    -1.79993   1.45366  -0.18013
C    -0.65686   2.09037   0.06582
F     0.13351   2.77510  -0.76148
C    -0.25960   1.79703   1.51488
O    -1.57921   1.75646   2.09614
C     0.12442   0.29297   1.60571
H     2.86322  -2.99953   0.04072
H     4.05110  -2.15041  -0.96392
H     2.39642  -2.42499  -1.59283
H     1.66033   0.98049  -0.72171
H     0.64428  -2.54858   0.63807
H     0.52071  -3.48593  -0.87508
H    -0.91771  -3.26801   0.14950
H    -1.29820  -1.40020   1.56960
H    -3.13494   0.50757   1.37309
H    -2.35029   1.32905  -1.10904
H     0.40679   2.51473   2.00474
H     1.06203  -0.07239   2.01551
