53
Generated by autodE on: 2022-06-22. E = -1023.367602 Ha
C     5.44559  -1.32276   1.19914
C     4.49343  -1.10897   0.26829
C     4.75379  -1.33686  -1.19745
C     3.16562  -0.63971   0.68021
C     2.13313  -0.38344  -0.14420
C     0.79517   0.08737   0.32351
C     0.29256   1.35094  -0.42514
C     0.83949   2.56321   0.30761
O     0.40147   3.02397   1.34472
O     1.92737   3.04933  -0.30391
C     2.61383   4.12430   0.35311
N    -1.15318   1.22867  -0.46168
C    -1.94714   2.43641  -0.49704
C    -1.62543   0.06871   0.31254
C    -1.91172   0.46286   1.77699
C    -2.88097  -0.54101  -0.32162
C    -3.70600  -1.41630   0.40462
C    -4.81550  -2.02683  -0.18927
C    -5.13344  -1.76774  -1.52477
C    -4.32491  -0.89473  -2.25893
C    -3.21319  -0.29383  -1.66376
C    -0.39002  -0.91423   0.17791
C    -0.35277  -1.60188  -1.19469
C    -0.32630  -1.98915   1.26095
H     6.44498  -1.67202   0.92465
H     5.24606  -1.15296   2.26170
H     4.60108  -0.40990  -1.77497
H     4.05661  -2.08355  -1.61272
H     5.78107  -1.68743  -1.37040
H     3.02579  -0.48841   1.75730
H     2.25263  -0.51572  -1.22334
H     0.87169   0.32960   1.39306
H     0.71641   1.38240  -1.44475
H     1.95548   4.99974   0.44864
H     2.95113   3.81105   1.35193
H     3.47587   4.36610  -0.27929
H    -1.56148   3.10612  -1.28374
H    -2.98916   2.19592  -0.75434
H    -1.95719   3.01023   0.44862
H    -2.18246  -0.39358   2.40596
H    -2.75019   1.17432   1.81070
H    -1.03904   0.95447   2.22634
H    -3.48514  -1.63793   1.44867
H    -5.43524  -2.70706   0.40041
H    -6.00296  -2.23974  -1.98860
H    -4.55890  -0.68009  -3.30486
H    -2.58175   0.37434  -2.24806
H     0.56819  -2.19599  -1.28914
H    -0.37910  -0.88287  -2.02543
H    -1.20138  -2.28972  -1.31344
H     0.56745  -2.61471   1.11034
H    -1.20653  -2.64912   1.21518
H    -0.26452  -1.56194   2.27146
