23
Generated by autodE on: 2022-06-22. E = -351.521384 Ha
C     3.67166  -0.89730  -0.10453
C     2.57774  -0.10704  -0.17274
C     2.69333   1.36730  -0.46456
C     1.24962  -0.67968   0.03818
C     0.07781   0.00288  -0.00501
C    -1.21455  -0.61450   0.21258
C    -2.42606  -0.00381   0.18287
C    -2.63172   1.45893  -0.09127
C    -3.68651  -0.78309   0.43116
H     4.67711  -0.49547  -0.25792
H     3.58432  -1.96742   0.10750
H     2.13448   1.63698  -1.37613
H     2.26658   1.96918   0.35494
H     3.74236   1.66507  -0.60191
H     1.22017  -1.75564   0.24844
H     0.09868   1.07582  -0.21447
H    -1.19607  -1.69070   0.42306
H    -1.69970   2.00844  -0.27600
H    -3.15120   1.93769   0.75762
H    -3.29012   1.59409  -0.96757
H    -3.48612  -1.84640   0.62864
H    -4.24131  -0.36635   1.29102
H    -4.36864  -0.71106  -0.43507
