30
Generated by autodE on: 2022-07-27. E = -671.796365 Ha
C     3.85539   2.34876   2.86675
O     3.33264   1.35537   1.99461
C     1.97440   1.42252   1.73705
O     1.29152   2.30890   2.26912
C     1.61612   0.38769   0.83975
N     0.34440   0.13734   0.35149
C    -0.76873   0.92730   0.91969
C     0.10488  -0.82700  -0.53467
C     1.23333  -1.71503  -0.94496
C    -1.21503  -1.01759  -1.16558
C    -1.92262   0.04759  -1.75952
C    -3.14278  -0.17613  -2.39864
C    -3.68137  -1.46517  -2.46195
C    -2.98332  -2.53355  -1.88884
C    -1.75973  -2.31491  -1.25572
H     3.70417   3.36329   2.46400
H     3.39174   2.29687   3.86498
H     4.93132   2.14702   2.95303
H     2.41638  -0.23633   0.46342
H    -0.63150   0.98305   2.00227
H    -0.75783   1.94547   0.51387
H    -1.71828   0.44045   0.69204
H     1.70435  -2.20252  -0.07302
H     2.02672  -1.13042  -1.44612
H     0.88954  -2.48536  -1.64368
H    -1.50346   1.05484  -1.73963
H    -3.67141   0.66223  -2.85835
H    -4.63724  -1.63776  -2.96191
H    -3.39464  -3.54468  -1.93410
H    -1.22465  -3.15540  -0.80866
