30
Generated by autodE on: 2022-06-22. E = -671.793246 Ha
C     4.13361   1.91839  -0.25709
O     2.79926   1.48036  -0.47226
C     2.50377   0.19176  -0.05618
O     3.39594  -0.50276   0.46186
C     1.14952  -0.09386  -0.32426
N     0.49381  -1.28982  -0.05246
C     1.29788  -2.52721   0.02776
C    -0.82612  -1.40671   0.01466
C    -1.45504  -2.76704   0.03261
C    -1.70062  -0.21573   0.04248
C    -2.82990  -0.15492  -0.79448
C    -3.70276   0.93459  -0.73590
C    -3.47455   1.96936   0.17429
C    -2.36317   1.91044   1.02520
C    -1.47978   0.83542   0.95590
H     4.86039   1.29126  -0.79843
H     4.39717   1.91201   0.81300
H     4.18531   2.94700  -0.63839
H     0.52547   0.71391  -0.69151
H     1.10038  -3.14223  -0.86044
H     2.35321  -2.25722   0.07585
H     1.02190  -3.09323   0.92514
H    -2.54656  -2.67873   0.06390
H    -1.17752  -3.36368  -0.85293
H    -1.14088  -3.34399   0.91837
H    -3.01982  -0.96282  -1.50416
H    -4.56679   0.97071  -1.40349
H    -4.16010   2.81841   0.22518
H    -2.18564   2.70886   1.74953
H    -0.61527   0.80165   1.62119
