42
Generated by autodE on: 2022-06-21. E = -1331.160712 Ha. Imaginary frequency = -294.0 cm-1
C     3.97534   2.34969  -1.24356
O     3.16291   1.22894  -0.83732
C     2.17228   1.48883  -0.01249
O     1.89287   2.56378   0.47094
C     1.32318   0.27746   0.27301
N     0.71737   0.22266   1.51230
C     0.30735  -1.08169   1.65569
C    -0.57152  -1.56718   2.63713
N    -1.34070  -1.98973   3.40396
C     1.17992  -1.89254   0.82396
O     1.34227  -3.08131   0.71395
O     1.89020  -0.96762   0.05299
C    -0.85383  -0.89891  -0.71252
O    -0.56145  -1.98842  -1.39961
C    -1.19325  -3.26816  -1.20191
C    -2.05144  -0.74878   0.13666
O    -2.83955  -1.67328   0.33590
C    -2.29854   0.59788   0.73562
C    -3.32303   0.67710   1.82201
C    -1.66720   1.71231   0.27275
C    -1.95107   3.07854   0.81287
C    -0.69110   1.59996  -0.83320
O    -0.34659   2.55369  -1.51331
C    -0.03542   0.25574  -1.04047
O     0.74893   0.15433  -2.16967
C     0.05925   0.16607  -3.42462
H     4.72086   1.94099  -1.93359
H     4.46275   2.79878  -0.36750
H     3.34692   3.09667  -1.74796
H     0.27173   1.03122   1.94322
H    -0.58682  -3.96912  -1.78750
H    -2.22271  -3.24626  -1.57909
H    -1.18213  -3.54755  -0.14255
H    -2.89689   1.17354   2.70843
H    -3.68416  -0.31777   2.10435
H    -4.18355   1.28803   1.50119
H    -1.75177   3.11024   1.89649
H    -1.33398   3.83561   0.31462
H    -3.01310   3.34223   0.67844
H    -0.43732   1.13291  -3.59308
H    -0.68039  -0.64636  -3.48328
H     0.82615   0.01250  -4.19485
