36
Generated by autodE on: 2022-10-21. E = -3415.350832 Ha
C    -4.15106  -3.00952  -0.79481
N    -3.59018  -1.69682  -0.55834
C    -2.87666  -1.36528   0.52566
O    -2.61453  -2.14474   1.45384
C    -2.38477   0.08543   0.58127
C    -3.04889   0.74981   1.79512
N    -2.75391   0.83837  -0.62870
C    -1.74313   1.48841  -1.07041
C    -1.80403   2.39278  -2.25445
C    -0.44531   1.26191  -0.32857
C     0.61010   0.50250  -1.20228
O     0.00642  -0.79833  -1.26753
C    -0.01128  -1.04225   0.14392
C     1.43723  -0.73634   0.53462
O     2.06162  -1.16660   1.63604
C     1.52739  -2.32956   2.27977
C     1.82326   0.22258  -0.32950
Br    3.35881   1.30193  -0.27174
C    -0.83405   0.16512   0.70147
H    -5.24595  -2.95741  -0.90030
H    -3.73650  -3.45655  -1.71212
H    -3.90752  -3.65809   0.05522
H    -3.74292  -0.94924  -1.23082
H    -2.82003   0.18062   2.70692
H    -2.67086   1.77667   1.91169
H    -4.14078   0.78917   1.66397
H    -2.82674   2.46688  -2.64699
H    -1.13735   2.02462  -3.05196
H    -1.44326   3.39778  -1.97952
H    -0.03455   2.19277   0.08661
H     0.79587   0.91456  -2.20026
H    -0.39257  -2.04024   0.37129
H     2.15990  -2.51239   3.15713
H     1.56803  -3.20253   1.60955
H     0.48909  -2.16228   2.60652
H    -0.53169   0.38599   1.73126
