19
Generated by autodE on: 2022-10-21. E = -419.542686 Ha
C     3.47674   0.89731  -0.54625
C     2.44871   0.34607   0.36856
N     1.40536  -0.22641   0.16243
C     0.22172  -0.74664   0.06613
C     0.03463  -2.23830   0.01474
C    -0.89609   0.21973   0.05939
O    -0.71409   1.44721   0.15063
N    -2.13962  -0.30793  -0.04667
C    -3.31653   0.53501  -0.07636
H     3.21903   0.77723  -1.61266
H     4.44129   0.40665  -0.34052
H     3.62027   1.96539  -0.31867
H    -0.48925  -2.54884  -0.90545
H     1.00774  -2.74683   0.03843
H    -0.56175  -2.59917   0.87082
H    -2.25793  -1.31092  -0.12307
H    -3.30820   1.21355  -0.94545
H    -3.38953   1.15645   0.83074
H    -4.20804  -0.10127  -0.13788
