36
Generated by autodE on: 2022-10-21. E = -3415.222828 Ha. Imaginary frequency = -201.4 cm-1
C    -3.04058  -2.77972  -0.59407
N    -3.08179  -1.34577  -0.38396
C    -3.30946  -0.85572   0.86969
O    -3.69524  -1.58847   1.79971
C    -3.08135   0.57990   1.08857
C    -3.40215   1.17748   2.42807
N    -2.86725   1.37490   0.06016
C    -2.18802   2.01521  -0.69715
C    -2.28513   2.90025  -1.86133
C    -0.03363   1.41866   0.27688
C     0.49639   0.64215  -0.95277
O    -0.35733  -0.52190  -0.90495
C    -0.03713  -0.87214   0.45698
C     1.50968  -0.96279   0.34067
O     2.32422  -1.68304   1.12198
C     1.73904  -2.73586   1.89289
C     1.83087  -0.02412  -0.56858
Br    3.52397   0.65586  -1.01301
C    -0.34845   0.45368   1.18298
H    -2.90266  -2.98069  -1.66465
H    -2.21949  -3.26793  -0.03814
H    -3.98339  -3.24395  -0.27186
H    -2.43179  -0.80317  -0.95072
H    -3.06124   0.50154   3.22493
H    -2.89937   2.14832   2.54705
H    -4.48687   1.33343   2.57094
H    -3.32513   3.16795  -2.10868
H    -1.82257   2.39347  -2.72387
H    -1.69711   3.81266  -1.67755
H     0.15320   2.47701   0.45175
H     0.45894   1.14127  -1.92705
H    -0.56352  -1.77406   0.78250
H     2.56449  -3.21786   2.43152
H     1.01416  -2.33902   2.62087
H     1.24545  -3.47605   1.24343
H    -0.51983   0.54037   2.25324
