43
Generated by autodE on: 2022-06-23. E = -1216.112267 Ha
C    -0.57170  -0.45639   3.15536
O    -0.94014   0.31915   2.00458
C    -0.08007   0.43609   0.91636
C     1.31109   0.97953   1.32844
O     1.44434   1.46388   2.43482
C     2.44721   0.78965   0.39344
C     3.70866   1.51956   0.71858
C     2.32256   0.03286  -0.73340
C     3.43650  -0.09503  -1.72689
C     1.03876  -0.60678  -1.07926
O     0.77718  -0.96463  -2.21407
C     0.03773  -0.86875   0.07214
O     0.41268  -1.93914   0.85999
C     0.70406  -3.18053   0.20815
C    -1.45011  -0.93393  -0.48689
C    -2.28985  -1.59346   0.54488
N    -2.96902  -2.15557   1.29618
C    -1.67690  -1.70848  -1.72539
N    -2.01962  -2.32427  -2.64622
N    -1.77933   0.48597  -0.71531
C    -3.14215   0.88646  -0.35594
N    -0.76679   1.25002  -0.07234
C    -0.23808   2.37901  -0.66464
C    -0.84166   2.81519  -1.96530
O     0.68721   2.97109  -0.11654
H    -1.25189  -1.31723   3.23055
H    -0.68907   0.18286   4.04181
H     0.45926  -0.82156   3.10744
H     3.80080   2.40445   0.06481
H     3.70623   1.86288   1.75993
H     4.59265   0.89079   0.53963
H     4.33002  -0.52919  -1.25044
H     3.14252  -0.72627  -2.57346
H     3.72880   0.89623  -2.11013
H     1.57467  -3.09048  -0.45970
H    -0.16209  -3.54791  -0.36398
H     0.93362  -3.89326   1.00935
H    -3.33047   0.82419   0.72794
H    -3.84069   0.23018  -0.89359
H    -3.31318   1.91493  -0.69606
H    -0.82798   1.98280  -2.68359
H    -1.88776   3.12900  -1.83517
H    -0.25532   3.65937  -2.34660
