17
Generated by autodE on: 2022-07-27. E = -526.623694 Ha
C     0.78891   3.19158  -0.28790
C     0.75977   1.76254   0.15521
O     1.75624   1.06074   0.27132
N    -0.51919   1.33300   0.52956
N    -0.80642   0.07607   0.59789
C    -1.88054  -0.26796   1.55937
C    -0.28108  -0.93440  -0.13290
C    -0.66503  -2.27281   0.13989
N    -0.95357  -3.38299   0.34018
C     0.54992  -0.71379  -1.25896
N     1.18742  -0.58421  -2.22434
H     1.82640   3.53745  -0.37297
H     0.29586   3.26213  -1.27242
H     0.22307   3.82760   0.40797
H    -2.69388  -0.78088   1.03163
H    -2.22549   0.66990   2.00042
H    -1.45645  -0.92276   2.33249
