25
Generated by autodE on: 2022-06-20. E = -702.453744 Ha
C    -4.19969  -1.19785   0.95218
C    -2.70234  -1.11501   1.00040
O    -2.02177  -1.74557   1.81788
C    -2.02518  -0.24587   0.03786
C    -2.72250   0.51610  -0.91783
N    -3.36280   1.12534  -1.68143
N    -0.67242  -0.23723   0.17897
C     0.34218   0.35017  -0.43457
C     0.08983   1.17239  -1.57243
N    -0.06283   1.84687  -2.50812
C     1.72516   0.17230   0.02243
C     2.02688  -0.49718   1.22713
C     3.34993  -0.66169   1.62790
C     4.39648  -0.15835   0.84588
C     4.10724   0.51562  -0.34377
C     2.78564   0.68177  -0.75422
H    -4.64231  -0.20166   1.11297
H    -4.53119  -1.54249  -0.04047
H    -4.55698  -1.89079   1.72388
H    -0.43733  -0.86086   0.97180
H     1.23782  -0.88358   1.87546
H     3.56514  -1.18138   2.56385
H     5.43217  -0.28765   1.16718
H     4.91521   0.91535  -0.96002
H     2.57610   1.20668  -1.68766
