25
Generated by autodE on: 2022-07-27. E = -702.450816 Ha
C    -3.98414  -1.43244  -0.37781
C    -3.07119  -0.28198  -0.68599
O    -3.43936   0.71571  -1.31534
C    -1.68989  -0.34643  -0.20504
C    -1.21534  -1.41088   0.58228
N    -0.88599  -2.31449   1.24474
N    -0.96983   0.77176  -0.49254
C     0.28439   1.15423  -0.30409
C     0.56788   2.52099  -0.59345
N     0.83115   3.63324  -0.81840
C     1.38557   0.29383   0.14967
C     1.56383  -0.99471  -0.38963
C     2.64676  -1.77429   0.01429
C     3.55870  -1.28244   0.95341
C     3.39605   0.00430   1.47933
C     2.32236   0.79448   1.07429
H    -4.11727  -1.52610   0.71227
H    -3.54663  -2.37883  -0.73292
H    -4.95868  -1.26889  -0.85426
H    -1.60443   1.44847  -0.95506
H     0.87376  -1.37701  -1.14274
H     2.78114  -2.77069  -0.41174
H     4.40293  -1.89913   1.26974
H     4.11019   0.39422   2.20764
H     2.19642   1.79990   1.48143
