12
Generated by autodE on: 2022-06-20. E = -381.636086 Ha
O    -1.01329  -2.46616   0.05831
C    -0.54700  -1.33186   0.03218
C    -1.42690  -0.14249  -0.07155
C    -0.91644   1.10098  -0.10182
C     0.54699   1.33187  -0.03197
O     1.01330   2.46616  -0.05842
C     1.42690   0.14248   0.07153
C     0.91644  -1.10098   0.10180
H    -2.50086  -0.33679  -0.12208
H    -1.54487   1.99146  -0.17769
H     2.50086   0.33679   0.12193
H     1.54488  -1.99147   0.17754
