37
Generated by autodE on: 2022-06-20. E = -1084.074462 Ha. Imaginary frequency = -349.7 cm-1
C    -3.36950  -2.14005  -0.84635
C    -2.44897  -1.03696  -1.24551
O    -2.74193  -0.13974  -2.01688
C    -1.06667  -1.00765  -0.62332
C    -0.58194  -2.22380  -0.04084
N    -0.26747  -3.22404   0.46085
N    -0.22664  -0.12182  -1.24573
C     0.88725   0.40841  -0.64345
C     1.27950   1.68437  -1.18804
N     1.60964   2.72799  -1.57818
C     2.05148  -0.45053  -0.25803
C     2.27083  -1.67321  -0.90907
C     3.39007  -2.44476  -0.58721
C     4.30589  -1.99299   0.36543
C     4.10773  -0.75540   0.99010
C     2.99034   0.01579   0.67837
C    -0.05999   0.80331   1.30103
C    -0.10750   2.27325   1.20148
O     0.83775   2.98588   1.53518
C    -1.34596   2.87194   0.64324
C    -2.48552   2.16164   0.54967
C    -2.55615   0.76225   1.02871
O    -3.64049   0.22225   1.23322
C    -1.27045   0.05541   1.25532
H    -3.38201  -2.25213   0.24761
H    -2.99611  -3.08782  -1.26975
H    -4.37874  -1.93650  -1.22360
H    -0.77922   0.52871  -1.81843
H     1.57878  -2.01729  -1.67810
H     3.54770  -3.39983  -1.09286
H     5.18025  -2.59803   0.61536
H     4.82773  -0.38948   1.72514
H     2.83677   0.98170   1.16391
H     0.75833   0.40819   1.90138
H    -1.29062   3.92603   0.36052
H    -3.41887   2.59964   0.18800
H    -1.35584  -0.84070   1.87148
