60
Generated by autodE on: 2022-06-14. E = -1642.249560 Ha
C    -2.69147   3.41962  -1.40846
O    -1.93200   2.20395  -1.51239
C    -2.34632   1.18115  -0.78234
O    -3.36113   1.18623  -0.11918
C    -1.44900  -0.06849  -0.96643
C    -2.13265  -0.89358  -2.12302
C    -1.30618  -1.85009  -2.93593
O    -3.31194  -0.71765  -2.35235
N    -0.06920   0.24460  -1.23627
C     0.37483   0.66715  -2.55371
C     0.89670  -0.10174  -0.19402
C     1.66143  -1.33630  -0.73719
O     2.50633  -1.25794  -1.60334
O     1.20778  -2.47999  -0.24989
C     1.69311  -3.70677  -0.81466
C     1.91161   1.02816   0.06123
C     3.20669   0.74430   0.51887
C     4.11317   1.77206   0.78961
C     3.74501   3.10472   0.58982
C     2.46641   3.39723   0.10768
C     1.56023   2.36845  -0.15615
C    -0.04922  -0.43447   1.04114
C     0.43252  -1.49278   2.06185
C     1.84279  -1.49812   2.58089
O    -0.38119  -2.29586   2.47972
C    -0.32566   0.92913   1.78174
C     0.24068   1.17636   3.14631
O    -0.90587   1.80873   1.17875
C    -1.39834  -0.90413   0.37711
C    -1.43601  -2.34286   0.06334
N    -1.62761  -3.45512  -0.20162
C    -2.61786  -0.72496   1.37510
C    -3.91552  -1.40240   1.05156
O    -2.42360  -0.17324   2.43529
H    -2.20271   4.13665  -2.07712
H    -2.66940   3.78425  -0.37183
H    -3.73121   3.24903  -1.72057
H    -1.09001  -1.36537  -3.90151
H    -1.91335  -2.74289  -3.13720
H    -0.35853  -2.13405  -2.47054
H    -0.48896   1.01509  -3.13090
H     0.87443  -0.13640  -3.11825
H     1.07581   1.51049  -2.47765
H     2.76839  -3.81077  -0.61385
H     1.12870  -4.50471  -0.32079
H     1.51093  -3.71919  -1.89794
H     3.52960  -0.28606   0.66083
H     5.11405   1.52499   1.15055
H     4.45398   3.90965   0.79705
H     2.16885   4.43344  -0.06872
H     0.56740   2.60832  -0.53009
H     2.46626  -2.09346   1.89600
H     2.28413  -0.49947   2.64928
H     1.84866  -1.98763   3.56325
H     0.10783   0.32410   3.82492
H    -0.23893   2.07099   3.56288
H     1.32053   1.37335   3.04462
H    -3.87665  -2.41999   1.47419
H    -4.10033  -1.48036  -0.02564
H    -4.72814  -0.85535   1.54579
