38
Generated by autodE on: 2022-06-14. E = -1013.167486 Ha
C     4.76994  -0.80233  -1.95291
O     3.84538  -0.45445  -0.92073
C     2.55083  -0.77738  -1.13757
O     2.20964  -1.36920  -2.16239
C     1.64312  -0.34376  -0.10222
C     1.90151   0.53462   1.00650
C     3.31674   0.86998   1.42194
O     0.96380   1.03212   1.66887
N     0.30599  -0.81915  -0.20220
C     0.12918  -2.28424  -0.24302
C    -0.71703  -0.01553  -0.02300
C    -0.55409   1.45685  -0.32434
O     0.17202   1.89528  -1.18981
O    -1.38159   2.19121   0.40750
C    -1.33851   3.61065   0.19312
C    -2.05819  -0.49690   0.34241
C    -2.24164  -1.33438   1.45766
C    -3.52192  -1.76200   1.80651
C    -4.62632  -1.37158   1.04210
C    -4.45053  -0.53418  -0.06507
C    -3.17625  -0.08515  -0.40718
H     4.78969  -1.89031  -2.11478
H     4.51115  -0.30375  -2.89901
H     5.75195  -0.45808  -1.60601
H     3.95268  -0.02031   1.50310
H     3.26920   1.39593   2.38462
H     3.77801   1.53233   0.67357
H     0.88760  -2.69098  -0.91671
H    -0.86838  -2.53080  -0.62019
H     0.26996  -2.70015   0.76272
H    -0.33635   3.99537   0.43056
H    -1.58865   3.84761  -0.85056
H    -2.08369   4.03924   0.87226
H    -1.38330  -1.62499   2.06460
H    -3.65802  -2.40105   2.68154
H    -5.62738  -1.71366   1.31428
H    -5.31141  -0.22511  -0.66160
H    -3.04207   0.57354  -1.26771
