38
Generated by autodE on: 2022-07-27. E = -1013.164757 Ha
C    -0.03846   2.46062  -2.25130
O    -0.21758   1.10283  -1.85527
C    -1.46023   0.75098  -1.41881
O    -2.41106   1.51623  -1.54905
C    -1.49372  -0.56551  -0.82430
C    -2.70580  -1.19848  -0.39182
C    -2.60828  -2.44514   0.47599
O    -3.84174  -0.76285  -0.65876
N    -0.23926  -1.20740  -0.58128
C     0.01342  -2.48289  -1.28174
C     0.71807  -0.63208   0.09704
C     2.12042  -1.18583  -0.02018
O     2.74895  -1.15050  -1.05379
O     2.55310  -1.64485   1.13977
C     3.90287  -2.15402   1.17531
C     0.56486   0.58149   0.90474
C    -0.55530   0.78075   1.73435
C    -0.64538   1.93455   2.50786
C     0.35845   2.90964   2.44461
C     1.47192   2.71551   1.62278
C     1.58496   1.54997   0.86534
H    -0.66492   2.70802  -3.12140
H     1.02159   2.56328  -2.51419
H    -0.28334   3.14506  -1.42478
H    -2.84387  -3.33703  -0.12794
H    -3.38112  -2.36820   1.25484
H    -1.63100  -2.59488   0.95358
H    -0.94448  -2.97025  -1.48034
H     0.64405  -3.14256  -0.67293
H     0.50239  -2.26030  -2.23989
H     4.00934  -2.98584   0.46556
H     4.06291  -2.49913   2.20215
H     4.60968  -1.35196   0.92154
H    -1.33944   0.02650   1.78779
H    -1.50643   2.07675   3.16406
H     0.27321   3.81928   3.04318
H     2.25809   3.47147   1.57250
H     2.45318   1.40432   0.21920
