60
Generated by autodE on: 2022-06-14. E = -1642.188622 Ha. Imaginary frequency = -196.8 cm-1
C    -0.79508   3.71549  -2.11401
O    -0.73700   2.27690  -2.10305
C    -1.24565   1.66521  -1.03695
O    -1.77684   2.23468  -0.11610
C    -1.16275   0.15882  -1.28609
C    -2.41920  -0.27805  -1.98632
C    -2.63980  -1.66666  -2.51498
O    -3.31982   0.55433  -2.03927
N     0.03703  -0.46763  -1.39994
C     0.27790  -1.38860  -2.54789
C     1.03008  -0.23463  -0.45475
C     2.22328  -1.15798  -0.46638
O     2.25509  -2.27402  -0.94779
O     3.25045  -0.62373   0.18824
C     4.40456  -1.45665   0.36841
C     1.40067   1.21328  -0.20656
C     1.10677   2.00106   0.90641
C     1.56492   3.32191   0.97667
C     2.32239   3.86950  -0.05784
C     2.61339   3.09042  -1.18349
C     2.15748   1.77712  -1.25587
C    -0.23236  -1.16519   1.26811
C     0.05351  -2.58768   0.83947
C     1.08627  -3.38823   1.58033
O    -0.58274  -3.07652  -0.08153
C     0.45027  -0.78264   2.58392
C    -0.26311  -1.22071   3.84740
O     1.58031  -0.33833   2.63610
C    -1.55405  -0.68814   1.00063
C    -2.60327  -1.58778   0.61756
N    -3.55306  -2.23062   0.41570
C    -2.06387   0.48373   1.79265
C    -3.52366   0.82420   1.71616
O    -1.30684   1.06657   2.55872
H    -0.35054   4.12002  -1.19629
H    -0.21992   4.03040  -2.99134
H    -1.84083   4.04338  -2.20067
H    -2.36924  -1.68737  -3.58280
H    -3.71242  -1.88184  -2.43174
H    -2.05980  -2.42999  -1.98921
H    -0.34969  -1.05462  -3.37531
H     0.08968  -2.43341  -2.29658
H     1.32029  -1.26887  -2.85283
H     4.13378  -2.36821   0.91997
H     5.11676  -0.85745   0.94644
H     4.83507  -1.72975  -0.60533
H     0.49526   1.61217   1.71054
H     1.31711   3.92361   1.85397
H     2.67816   4.90049   0.00438
H     3.19718   3.50582  -2.00789
H     2.38964   1.17510  -2.13741
H     0.62332  -3.75368   2.51291
H     1.96622  -2.79687   1.86104
H     1.37944  -4.25122   0.97089
H    -1.33028  -1.42679   3.70461
H    -0.11824  -0.45856   4.62491
H     0.22806  -2.14564   4.19199
H    -3.90810   0.75372   0.69078
H    -3.67865   1.83285   2.11792
H    -4.08261   0.10286   2.33610
