28
Generated by autodE on: 2022-06-16. E = -628.839926 Ha
C     3.10135   0.61712   0.71953
C     2.09314  -0.18071  -0.06118
O     2.35597  -0.74264  -1.13161
N     0.84783  -0.29017   0.47057
N     0.42049   0.48348   1.59370
N    -0.84659   0.99687   1.22862
C    -0.66836   2.26576   0.52634
C    -1.50540  -0.10325   0.46273
C    -2.10172  -1.10812   1.45426
C    -2.60145   0.38740  -0.47739
C    -0.28999  -0.79838  -0.28692
C    -0.20354  -0.44305  -1.75478
O    -0.63952  -1.16796  -2.62542
H     4.05981   0.59105   0.18681
H     2.75631   1.65678   0.82389
H     3.22675   0.21106   1.73386
H     0.27051  -0.17470   2.36085
H    -0.11128   2.18080  -0.42580
H    -0.11297   2.94337   1.18788
H    -1.64505   2.71936   0.31828
H    -2.90001  -0.62755   2.03855
H    -1.34611  -1.50006   2.15207
H    -2.52855  -1.96442   0.91169
H    -2.24171   1.10135  -1.22953
H    -3.40384   0.86859   0.10119
H    -3.03212  -0.47221  -1.01036
H    -0.38686  -1.89246  -0.22162
H     0.21804   0.55972  -1.99251
