14
Generated by autodE on: 2022-06-16. E = -270.687345 Ha
C    -1.27142   1.47171  -0.14415
C    -0.97905   0.00816   0.00105
C    -2.19009  -0.86961   0.09062
C     0.26548  -0.53546   0.05276
C     1.51484   0.20098  -0.02239
O     2.62041  -0.33299   0.02798
H    -0.38012   2.10704  -0.20145
H    -1.88957   1.80851   0.70532
H    -1.87916   1.63600  -1.05022
H    -1.93000  -1.93256   0.18864
H    -2.82266  -0.73508  -0.80391
H    -2.81106  -0.57072   0.95295
H     0.37360  -1.62004   0.16005
H     1.44397   1.30638  -0.13199
