14
Generated by autodE on: 2022-07-27. E = -358.111799 Ha
C    -2.41570   1.54686   0.39651
N    -1.19801   0.90602  -0.04602
N    -1.00564  -0.23721   0.44727
N    -0.02684  -1.07459   0.23826
C     1.18053  -0.62282  -0.25925
C     1.66285   0.78954  -0.01323
O     1.91731  -1.43560  -0.82007
H    -3.02594   0.91313   1.06434
H    -3.01170   1.82928  -0.48536
H    -2.15929   2.47945   0.92466
H    -1.73567  -0.63800   1.06766
H     2.75223   0.74325   0.12696
H     1.18881   1.27020   0.85259
H     1.45689   1.41016  -0.89833
