14
Generated by autodE on: 2022-06-16. E = -358.127515 Ha
C    -2.49944  -0.20658   1.05558
N    -2.09530   0.10612  -0.29572
N    -0.85188   0.12752  -0.47219
N     0.08481  -0.09798   0.41828
C     1.34395   0.01574  -0.15806
C     2.46804  -0.23757   0.80307
O     1.52725   0.29348  -1.34651
H    -2.08982   0.52618   1.77134
H    -2.12003  -1.19575   1.36360
H    -3.59390  -0.19862   1.10194
H    -0.51832   0.34868  -1.43276
H     2.39355  -1.26388   1.19693
H     2.38729   0.44486   1.66363
H     3.43471  -0.10021   0.30300
