28
Generated by autodE on: 2022-06-16. E = -628.767925 Ha. Imaginary frequency = -371.2 cm-1
C     2.72139   1.07661   0.45806
C     2.01263  -0.18113   0.00354
O     2.36931  -0.79557  -0.99492
N     1.02455  -0.69481   0.82990
N     0.39037   0.11190   1.64038
N    -0.36375   1.04431   1.09669
C    -1.09845   1.80677   2.08837
C    -1.57207  -0.02747  -0.10785
C    -2.73759  -0.33654   0.81107
C    -1.83297   1.04233  -1.13916
C    -0.74195  -1.15010  -0.40490
C    -0.13917  -1.44758  -1.70052
O    -0.07674  -0.70347  -2.67492
H     3.58596   1.24669  -0.19489
H     3.04959   0.97965   1.50329
H     2.04135   1.93747   0.39940
H     0.08050  -0.31181   2.52970
H    -1.50162   1.18589   2.91011
H    -0.42904   2.56760   2.52242
H    -1.92154   2.33309   1.59063
H    -3.25581   0.57137   1.14748
H    -2.41626  -0.91361   1.69216
H    -3.47536  -0.94916   0.26577
H    -2.33099   1.90482  -0.67125
H    -2.50546   0.65288  -1.92246
H    -0.91100   1.37811  -1.62479
H    -0.88907  -2.04135   0.20800
H     0.25454  -2.48787  -1.77369
