45
Generated by autodE on: 2022-05-31. E = -1130.267363 Ha
C    -4.13491   2.51377  -0.75764
N    -3.25999   1.35533  -0.73194
C    -2.15368   1.33463   0.01903
O    -1.82569   2.28020   0.74513
C    -1.25574   0.07649  -0.02565
C    -1.86723  -1.20287  -0.65781
C    -1.01775  -2.42670  -0.27330
C     0.31202  -2.19190  -1.04415
C     0.04163  -0.90482  -1.85356
C    -1.46844  -1.02648  -2.14227
C     0.03040   0.31314  -0.91412
F    -0.14636   1.46502  -1.70771
N     1.08408   0.51679   0.02751
C     2.40241   0.05499  -0.13196
C     3.01739   0.16327  -1.39159
C     4.31623  -0.31227  -1.57847
C     5.03209  -0.87003  -0.51422
C     4.42996  -0.94179   0.74640
C     3.12558  -0.48523   0.94437
N     0.56870   0.66069   1.33353
N    -0.64433  -0.06754   1.28990
C    -1.33309  -0.38929   2.41788
C    -0.58589  -0.26590   3.71717
O    -2.50723  -0.75739   2.33840
H    -4.56135   2.71066   0.23844
H    -3.58643   3.41324  -1.07712
H    -4.95200   2.32410  -1.46359
H    -3.50433   0.54954  -1.29545
H    -2.93342  -1.32139  -0.43584
H    -0.87709  -2.52575   0.80947
H    -1.52728  -3.33461  -0.62582
H     1.17699  -2.10166  -0.37623
H     0.52327  -3.01487  -1.74078
H     0.69162  -0.76076  -2.72272
H    -1.71560  -1.90829  -2.74978
H    -1.88407  -0.13339  -2.62706
H     2.48210   0.63386  -2.21660
H     4.77727  -0.22765  -2.56560
H     6.05147  -1.23269  -0.66240
H     4.97901  -1.36477   1.59144
H     2.65652  -0.54483   1.92564
H     0.29421   1.64522   1.43638
H    -1.16859  -0.75661   4.50656
H    -0.45955   0.79872   3.97180
H     0.41638  -0.71078   3.64447
