21
Generated by autodE on: 2022-07-27. E = -549.951415 Ha
C    -4.02873  -0.69017   2.06996
C    -2.75144  -0.11113   1.53994
O    -2.36975   1.03371   1.80659
N    -2.03901  -0.98323   0.72594
N    -0.93550  -0.41663   0.31720
N    -0.11694  -0.97332  -0.46450
C     1.06329  -0.27368  -0.75295
C     1.72765  -0.66091  -1.93114
C     2.90720  -0.02485  -2.31281
C     3.44738   0.98949  -1.51485
C     2.80411   1.35820  -0.32701
C     1.62141   0.73237   0.06269
H    -4.54336   0.04165   2.70460
H    -3.81415  -1.60352   2.64726
H    -4.68034  -0.98442   1.23182
H    -0.78659   0.55504   0.68245
H     1.29262  -1.45568  -2.53961
H     3.41012  -0.32485  -3.23469
H     4.37627   1.48296  -1.80881
H     3.23665   2.13128   0.31190
H     1.16398   1.00657   1.01565
