21
Generated by autodE on: 2022-05-31. E = -549.949893 Ha
C    -1.33384  -3.38025  -1.57190
C    -0.78370  -2.88425  -0.26776
O    -0.62959  -3.60940   0.71852
N    -0.46235  -1.53055  -0.27829
N     0.01362  -1.16813   0.88918
N     0.42062  -0.04385   1.29923
C     0.43269   1.10408   0.50556
C     0.01565   1.24162  -0.83916
C     0.10842   2.48557  -1.46436
C     0.60780   3.59909  -0.78171
C     1.02223   3.47051   0.55012
C     0.93549   2.23758   1.18576
H    -0.59132  -3.22626  -2.37110
H    -2.22868  -2.79953  -1.84606
H    -1.58582  -4.44528  -1.49751
H     0.06466  -1.93385   1.59109
H    -0.37253   0.38153  -1.37400
H    -0.21540   2.58398  -2.50307
H     0.67449   4.56593  -1.28564
H     1.41329   4.33511   1.09073
H     1.25320   2.11635   2.22274
