45
Generated by autodE on: 2022-05-31. E = -1130.181635 Ha. Imaginary frequency = -423.9 cm-1
C    -3.65898   2.46399   0.65418
N    -3.16408   1.25336   0.02768
C    -1.83295   1.06672  -0.15957
O    -1.01727   1.99169   0.03749
C    -1.36801  -0.26347  -0.55248
C    -2.19058  -1.48659  -0.96430
C    -1.65091  -2.77050  -0.28526
C    -0.24062  -2.92843  -0.92158
C    -0.16671  -1.75692  -1.93137
C    -1.64326  -1.68089  -2.40600
C    -0.09883  -0.43805  -1.17429
F     0.47965   0.59042  -1.84439
N     1.21344  -0.53322   0.29479
C     2.44039   0.07728  -0.02942
C     3.09418  -0.36829  -1.19351
C     4.32077   0.17703  -1.56475
C     4.92656   1.16214  -0.77611
C     4.29317   1.58886   0.39457
C     3.05979   1.05529   0.77265
N     0.56711  -0.01401   1.31483
N    -0.55407  -0.61523   1.60261
C    -1.35703   0.10271   2.49607
C    -2.68947  -0.53311   2.75828
O    -0.97714   1.13364   3.04386
H    -3.44181   3.34797   0.03505
H    -3.20029   2.62635   1.64368
H    -4.74614   2.38156   0.77543
H    -3.76724   0.43911   0.02525
H    -3.27504  -1.35530  -0.86558
H    -1.61488  -2.67240   0.80392
H    -2.30380  -3.61776  -0.54242
H     0.56522  -2.86918  -0.18103
H    -0.14543  -3.87944  -1.46470
H     0.60901  -1.85173  -2.70065
H    -1.83897  -0.82082  -3.06325
H    -1.99252  -2.60711  -2.88972
H     2.63238  -1.14622  -1.80144
H     4.81205  -0.17645  -2.47416
H     5.89151   1.58391  -1.06538
H     4.76519   2.34141   1.03049
H     2.60663   1.38574   1.70813
H     0.61612   1.00543   1.50325
H    -3.41294   0.22981   3.07311
H    -2.56857  -1.25781   3.58191
H    -3.05825  -1.08185   1.88300
