31
Generated by autodE on: 2022-05-30. E = -3491.046159 Ha
C    -3.45062  -1.13364   0.39671
C    -2.52960  -0.77994   1.52387
O    -2.66947  -1.20141   2.65661
C    -1.30791   0.10944   1.24266
N    -1.45687   1.05407   0.13750
C    -2.34545   2.18217   0.40272
C    -0.10876   1.41698  -0.29653
C    -0.14853   2.01990  -1.64606
N    -0.21231   2.55908  -2.66917
C     0.50284   2.47134   0.57490
N     0.87796   3.35659   1.22208
C     0.69375   0.06206  -0.21436
Br    0.76779  -0.81153  -1.95623
C     2.08763   0.15543   0.48869
C     2.69845  -1.23828   0.51133
C     2.00358  -1.92205   1.42783
C     0.96696  -0.94769   1.96047
O     1.63795   0.31516   1.84344
C    -0.10712  -0.76953   0.85230
F    -0.53105  -1.99351   0.37985
H    -4.17131  -1.88911   0.73505
H    -2.87269  -1.50948  -0.46012
H    -3.99233  -0.23859   0.05209
H    -1.07729   0.62554   2.19243
H    -3.35517   1.81024   0.61712
H    -2.40590   2.82594  -0.48592
H    -2.00984   2.78865   1.26424
H     2.71499   0.99222   0.16549
H     3.49270  -1.58375  -0.14824
H     2.08022  -2.97280   1.70324
H     0.55851  -1.10461   2.96374
