18
Generated by autodE on: 2022-05-30. E = -510.598404 Ha
C    -3.55689   0.25481   0.02783
C    -2.32116  -0.59004  -0.14394
O    -2.38270  -1.79011  -0.40231
C    -1.06714   0.15232   0.02604
N     0.15542  -0.34317  -0.07651
C     0.37042  -1.77368  -0.39219
C     1.28073   0.43795   0.10500
C     1.14805   1.80849   0.41312
N     1.04301   2.94297   0.66850
C     2.58372  -0.08794  -0.00873
N     3.68810  -0.46099  -0.08920
H    -3.57235   0.70153   1.03571
H    -3.54987   1.08863  -0.69335
H    -4.45215  -0.36189  -0.12111
H    -1.13951   1.21488   0.25899
H    -0.10155  -1.99928  -1.35367
H    -0.09512  -2.38274   0.38928
H     1.44309  -1.97398  -0.44031
