13
Generated by autodE on: 2022-05-30. E = -2980.371026 Ha
F    -0.42474  -2.18484  -0.75637
C    -0.65505  -1.12767   0.00518
C     0.08726  -0.03878   0.21497
Br    1.73221   0.45024  -0.52204
C    -0.83318   0.87696   1.06079
C    -1.99218   1.34461   0.14524
C    -2.72097   0.24727  -0.07445
C    -1.99764  -0.87319   0.71427
O    -1.51394  -0.12295   1.84474
H    -0.33467   1.62850   1.68192
H    -2.11077   2.35410  -0.24635
H    -3.60339   0.10278  -0.69626
H    -2.57368  -1.75965   1.00100
