36
Generated by autodE on: 2022-06-28. E = -788.387795 Ha
C     4.68198  -1.16985   0.12208
C     3.46028  -0.30857   0.34927
O     3.58367   0.82298   0.88972
C     2.17844  -0.78683  -0.07511
C     1.93116  -2.06601  -0.79987
N     1.19901   0.14238   0.13267
C    -0.12168   0.18376  -0.01494
C    -0.76192   1.50344   0.04350
C    -0.04344   2.68097  -0.26533
C    -0.64527   3.93459  -0.16054
C    -1.98177   4.04730   0.23660
C    -2.71051   2.88925   0.53196
C    -2.11181   1.63417   0.43881
C    -0.92678  -1.04307  -0.15330
C    -1.92464  -1.14274  -1.14257
C    -2.71055  -2.28971  -1.24428
C    -2.52676  -3.35189  -0.35041
C    -1.55151  -3.25652   0.64657
C    -0.75529  -2.11373   0.74475
H     4.89149  -1.28096  -0.95485
H     4.54478  -2.18273   0.53179
H     5.54884  -0.69776   0.60323
H     1.50222  -2.86050  -0.16358
H     2.86964  -2.45081  -1.21952
H     1.22451  -1.91687  -1.63204
H     1.64769   1.00920   0.47047
H     0.98849   2.61760  -0.61718
H    -0.06963   4.82956  -0.40827
H    -2.45408   5.02951   0.30945
H    -3.75395   2.96503   0.84706
H    -2.68770   0.74366   0.69319
H    -2.07075  -0.31662  -1.84126
H    -3.47055  -2.35760  -2.02626
H    -3.14591  -4.24853  -0.42878
H    -1.41083  -4.07538   1.35597
H    -0.00713  -2.03832   1.53613
