14
Generated by autodE on: 2022-06-18. E = -270.683219 Ha
C     2.11682  -0.54568  -0.86072
C     0.83853  -0.11480  -0.21383
C     0.96897   0.82223   0.95269
C    -0.35701  -0.56624  -0.68296
C    -1.66562  -0.22604  -0.14537
O    -1.89882   0.51600   0.80619
H     2.67836   0.33939  -1.20824
H     2.76459  -1.04153  -0.11637
H     1.95571  -1.22614  -1.70816
H     0.49934   0.39788   1.85399
H     0.44143   1.76929   0.75612
H     2.02382   1.04184   1.16886
H    -0.36565  -1.24733  -1.53895
H    -2.51745  -0.71064  -0.68154
