22
Generated by autodE on: 2022-06-18. E = -591.964921 Ha
C    -3.56890   1.65369   0.11886
C    -2.41776   0.71595   0.09974
N    -1.09185   1.10942   0.01477
C    -0.27816   0.06289   0.01864
C     1.16497   0.02753  -0.05995
C     1.83099  -1.21368   0.00681
C     3.22140  -1.26660  -0.07027
C     3.96698  -0.09159  -0.21464
C     3.31054   1.14351  -0.28199
C     1.92149   1.20946  -0.20621
O    -1.01505  -1.04289   0.10533
C    -2.41931  -0.68148   0.15899
O    -3.26630  -1.57215   0.23605
H    -4.49822   1.07102   0.19056
H    -3.62361   2.26835  -0.79630
H    -3.53354   2.34318   0.98008
H    -0.78309   2.07853  -0.03926
H     1.25025  -2.12997   0.12006
H     3.72731  -2.23313  -0.01681
H     5.05652  -0.13679  -0.27557
H     3.88651   2.06430  -0.39696
H     1.42782   2.18173  -0.26589
