36
Generated by autodE on: 2022-06-18. E = -862.636441 Ha. Imaginary frequency = -426.5 cm-1
C    -2.89287   2.22094  -0.17672
C    -1.74557   1.30526   0.11038
N    -0.56575   1.37408  -0.66048
C     0.36614   0.65519  -0.00495
C     1.70459   0.31243  -0.44085
C     2.63825  -0.17806   0.49075
C     3.91817  -0.53914   0.06880
C     4.27424  -0.42578  -1.27769
C     3.34252   0.05097  -2.20943
C     2.06338   0.41536  -1.79920
O     0.08489   0.72753   1.33168
C    -1.23280   1.17113   1.47267
O    -1.74018   1.30363   2.56116
C    -0.91900  -1.27892  -0.36173
C    -0.24237  -2.07188   0.61048
O     0.77787  -2.74888   0.39271
C    -2.20953  -0.65005  -0.18855
C    -3.08262  -1.04727   0.98859
C    -3.00159  -0.52921  -1.48110
H    -2.65976   3.24763   0.14805
H    -3.12359   2.24031  -1.24998
H    -3.78563   1.88670   0.36946
H    -0.60754   1.37612  -1.67819
H     2.35774  -0.26867   1.54011
H     4.63983  -0.91499   0.79720
H     5.27626  -0.71193  -1.60500
H     3.61627   0.13713  -3.26308
H     1.34306   0.77715  -2.53525
H    -0.53469  -1.37534  -1.38179
H    -0.65323  -2.03777   1.64580
H    -2.53343  -1.13286   1.93455
H    -3.54949  -2.02464   0.78133
H    -3.89551  -0.31995   1.13331
H    -3.28369  -1.54001  -1.82144
H    -3.92957   0.04331  -1.34804
H    -2.40867  -0.06561  -2.28455
