23
Generated by autodE on: 2022-06-18. E = -351.521382 Ha
C     3.34279  -1.27449   1.22541
C     2.48110  -0.49144   0.53974
C     2.97211   0.62914  -0.34088
C     1.04190  -0.72346   0.64491
C     0.07733  -0.01140   0.00971
C    -1.33868  -0.28333   0.15025
C    -2.36165   0.38158  -0.44406
C    -3.78757  -0.02305  -0.19748
C    -2.18969   1.54867  -1.37447
H     4.42409  -1.12267   1.16533
H     2.98334  -2.08720   1.86418
H     2.56612   1.60022  -0.01195
H     2.64330   0.48824  -1.38396
H     4.06938   0.69218  -0.33027
H     0.73655  -1.54920   1.29891
H     0.37411   0.81268  -0.64459
H    -1.59630  -1.11978   0.81125
H    -3.86425  -0.88072   0.48686
H    -4.36460   0.81714   0.22911
H    -4.28955  -0.28655  -1.14586
H    -2.64434   1.32499  -2.35577
H    -2.72700   2.43066  -0.98324
H    -1.14247   1.83261  -1.53980
