17
Generated by autodE on: 2022-06-18. E = -604.741445 Ha
C     4.01802   0.47916   1.01994
O     2.60813   0.32438   0.75283
C     2.26764   0.10803  -0.50693
O     3.00934   0.02559  -1.45994
C     0.82726  -0.02921  -0.63866
N    -0.30813  -0.15536  -0.86953
N    -1.50768  -0.30487  -1.22054
C    -2.46176  -0.23052  -0.21063
O    -3.64753  -0.36263  -0.44253
O    -1.94717  -0.00546   1.00585
C    -2.87988   0.07754   2.09181
H     4.55663  -0.43524   0.73501
H     4.09554   0.65314   2.09830
H     4.41421   1.33720   0.45947
H    -3.58906   0.90178   1.92799
H    -3.43230  -0.86739   2.19753
H    -2.28003   0.26758   2.98947
