51
Generated by autodE on: 2022-06-05. E = -1528.421981 Ha
C     3.89434   0.67375   1.73222
N     2.68219   0.27941   1.04503
C     2.60546   0.08671  -0.27403
O     3.53247   0.20522  -1.08048
C     1.23377  -0.35592  -0.80333
C     1.39612  -1.82861  -1.26335
O     1.15543  -2.23959  -2.37516
O     1.81493  -2.58437  -0.25530
C     1.96121  -3.99332  -0.51103
O     0.26195  -0.29951   0.23669
C    -1.04428  -0.08133  -0.31087
C    -1.72907  -1.44662  -0.59702
O    -2.64131  -1.54199  -1.42077
N    -1.28299  -2.46849   0.14325
C    -1.77188  -3.82095  -0.04440
C    -1.89601   0.64729   0.71694
C    -1.42635   0.87437   2.01583
C    -2.22098   1.56227   2.93701
C    -3.48821   2.02299   2.57092
C    -3.96321   1.78747   1.27655
C    -3.17319   1.09983   0.35388
C    -0.81595   0.67252  -1.63777
C    -0.96110   2.23110  -1.69258
O    -0.02373   2.53117  -2.73888
C     1.14068   1.99524  -2.08498
C     1.07820   2.72759  -0.73222
C     2.14755   3.20929   0.04813
N     3.02967   3.63860   0.67598
C    -0.24442   2.86897  -0.51744
F    -0.84745   3.45870   0.48820
C     0.69364   0.50741  -1.94852
H     4.68846   0.82704   0.99220
H     4.21130  -0.10753   2.44083
H     3.73678   1.61192   2.28312
H     1.82260   0.16732   1.57540
H     2.26242  -4.44075   0.44234
H     1.00714  -4.41744  -0.85154
H     2.73432  -4.15760  -1.27460
H    -0.48216  -2.30518   0.74564
H    -2.85328  -3.87981   0.15309
H    -1.24654  -4.48683   0.65015
H    -1.59358  -4.16507  -1.07556
H    -0.43257   0.53148   2.30194
H    -1.84284   1.74181   3.94612
H    -4.10527   2.56432   3.29180
H    -4.95322   2.14250   0.98143
H    -3.54841   0.91423  -0.65372
H    -1.45527   0.25459  -2.42062
H    -1.96331   2.61267  -1.90690
H     2.05090   2.16139  -2.66623
H     0.86473   0.01193  -2.90760
