51
Generated by autodE on: 2022-06-05. E = -1528.290908 Ha. Imaginary frequency = -270.4 cm-1
C     4.85603   0.30643   0.79492
N     3.70800  -0.31394   0.16731
C     2.46332  -0.12362   0.64572
O     2.24463   0.60557   1.62772
C     1.33217  -0.80326  -0.04639
C     1.37776  -1.95673  -0.92494
O     0.40432  -2.60834  -1.28016
O     2.61561  -2.22341  -1.39178
C     2.73443  -3.30090  -2.33083
O     0.17580  -0.42102   0.50979
C    -1.08625  -0.45418   0.17131
C    -1.78385  -1.74540  -0.27028
O    -2.51978  -1.80992  -1.25525
N    -1.67077  -2.72738   0.64072
C    -2.18265  -4.05759   0.36662
C    -1.92943   0.47341   0.94133
C    -1.40215   1.16286   2.05138
C    -2.20672   2.03753   2.77646
C    -3.53808   2.25011   2.40044
C    -4.06629   1.57117   1.29693
C    -3.27447   0.67993   0.57482
C    -0.79648   0.53578  -1.97819
C    -0.98824   2.07457  -1.95451
O    -0.11080   2.45708  -3.04079
C     1.06309   1.80738  -2.49148
C     1.12468   2.50584  -1.10938
C     2.27501   2.95284  -0.43695
N     3.23811   3.35581   0.08086
C    -0.17578   2.67199  -0.80542
F    -0.71106   3.25935   0.23800
C     0.51482   0.37734  -2.32881
H     4.91785   0.04668   1.86398
H     5.76491  -0.04781   0.29299
H     4.81190   1.40428   0.71685
H     3.83155  -0.94548  -0.61717
H     2.40379  -4.24617  -1.87760
H     2.13617  -3.09612  -3.23013
H     3.79847  -3.35582  -2.58764
H    -0.93862  -2.63647   1.33969
H    -1.59995  -4.55322  -0.42802
H    -3.23105  -4.00100   0.04408
H    -2.12348  -4.65893   1.28206
H    -0.35879   1.01207   2.32744
H    -1.79078   2.56277   3.63915
H    -4.16358   2.94322   2.96749
H    -5.10372   1.73504   0.99743
H    -3.68880   0.15146  -0.28405
H    -1.61878  -0.16025  -2.13451
H    -2.00817   2.45352  -2.06782
H     1.94658   1.93293  -3.12331
H     0.99978  -0.48936  -2.76615
