37
Generated by autodE on: 2022-10-21. E = -1066.355068 Ha
C    -3.02612   1.49518  -2.40293
N    -2.19220   0.54011  -1.70245
C    -2.42731   0.12986  -0.45165
O    -3.40327   0.45254   0.23508
C    -1.38455  -0.83562   0.15184
C    -2.05892  -2.15539   0.50325
O    -0.31035  -1.08873  -0.77096
C     0.89815  -0.48990  -0.37188
C     2.05156  -1.54756  -0.32902
C     1.62250  -2.96210  -0.10846
O     3.20149  -1.18756  -0.44470
C     1.26049   0.63547  -1.36431
O     0.72519   0.73861  -2.44693
O     2.19823   1.43866  -0.90305
C     2.63070   2.50676  -1.76809
C     0.62435   0.02261   1.03464
O     1.64642   0.50492   1.70489
C     1.45253   1.00754   3.03610
C    -0.68806  -0.16446   1.33232
C    -1.39408   0.15185   2.51436
N    -2.01439   0.38107   3.47430
H    -2.46358   2.41657  -2.62128
H    -3.89014   1.74577  -1.77603
H    -3.38666   1.07607  -3.35489
H    -1.30746   0.26179  -2.12500
H    -1.33579  -2.83115   0.97963
H    -2.89809  -1.97803   1.18912
H    -2.44664  -2.62463  -0.41335
H     1.01025  -3.29898  -0.95902
H     0.98349  -3.02434   0.78657
H     2.50745  -3.60069   0.00286
H     3.38484   3.06234  -1.20038
H     3.06815   2.09173  -2.68669
H     1.78049   3.15561  -2.01970
H     2.43621   1.35472   3.37105
H     1.09173   0.20454   3.69437
H     0.74077   1.84524   3.02379
