70
Generated by autodE on: 2022-07-04. E = -6833.382166 Ha
C    -1.95633   6.00353  -6.59395
N    -2.80529   6.80121  -5.73004
C    -3.56549   7.77964  -6.22809
O    -3.62489   8.00906  -7.44059
C    -4.43544   8.66631  -5.27346
C    -4.26891   8.51910  -3.73494
O    -4.57446   9.39067  -2.95168
O    -3.93975   7.28575  -3.34515
C    -3.88751   7.03999  -1.92846
C    -4.27619  10.14037  -5.67183
C    -5.49017  10.65918  -6.00821
C    -5.84858  12.11691  -6.22382
Br   -6.77935  12.74889  -4.51248
Br   -7.15303  12.38064  -7.69517
C    -4.76185  13.17558  -6.41190
C    -3.92545  13.14249  -7.69233
C    -3.44877  11.77346  -8.15381
C    -2.47275  11.01943  -7.25935
C    -2.85904  10.72831  -5.77842
C    -2.52757  11.97851  -4.86605
C    -3.17856  12.10012  -3.52074
O    -1.65678  12.74226  -5.23030
C    -1.80314   9.75451  -5.17128
O    -1.86130   9.32811  -4.03457
O    -0.78922   9.50137  -5.98122
C     0.28435   8.70226  -5.45054
C    -6.57477   9.53319  -6.04923
C    -7.79939   9.87852  -5.12592
C    -7.69873   9.48967  -3.67842
O    -8.80002  10.39266  -5.58130
C    -7.05902   9.15831  -7.47154
C    -6.17487   9.21292  -8.55556
C    -6.54790   8.77204  -9.82602
C    -7.82213   8.24012 -10.03945
C    -8.70213   8.13946  -8.95947
C    -8.32332   8.58810  -7.69089
N    -5.84819   8.40407  -5.47180
C    -6.29895   7.04642  -5.67969
H    -1.28159   6.64732  -7.17903
H    -2.55430   5.40679  -7.30118
H    -1.35780   5.32600  -5.97329
H    -2.80724   6.64681  -4.72626
H    -3.13235   7.68903  -1.46388
H    -4.87047   7.22734  -1.47537
H    -3.60811   5.98634  -1.81932
H    -5.26444  14.14985  -6.35779
H    -4.13156  13.15608  -5.51992
H    -3.06613  13.81243  -7.52600
H    -4.51911  13.58945  -8.50405
H    -4.32371  11.15049  -8.37401
H    -2.93943  11.89807  -9.12311
H    -1.51873  11.55965  -7.22299
H    -2.27774  10.05086  -7.73136
H    -3.01026  13.11122  -3.12837
H    -4.24554  11.85535  -3.54213
H    -2.70040  11.36722  -2.85305
H    -0.09674   7.73452  -5.10001
H     0.98730   8.56340  -6.27886
H     0.76738   9.23354  -4.61851
H    -6.72536   9.75411  -3.25015
H    -8.51639   9.96857  -3.12434
H    -7.79864   8.39491  -3.59563
H    -5.16593   9.57793  -8.40237
H    -5.83388   8.84253 -10.65031
H    -8.12133   7.89563 -11.03233
H    -9.69506   7.70465  -9.09843
H    -9.03351   8.48074  -6.87414
H    -5.81603   6.38676  -4.94528
H    -6.08362   6.65865  -6.69323
H    -7.38331   6.98215  -5.51402
