39
Generated by autodE on: 2022-07-04. E = -993.302930 Ha
C     3.23543  -2.99442   1.01165
N     2.93989  -1.67554   0.49914
C     1.68047  -1.19242   0.45414
O     0.71098  -1.89308   0.83895
C     1.49353   0.17192  -0.03867
C     2.53300   0.93090  -0.65968
O     3.73674   0.63435  -0.67450
O     2.09115   2.03959  -1.31155
C     3.08754   2.87283  -1.90546
N     0.19335   0.70358   0.10875
C     0.07161   2.00587   0.79779
C    -0.87105  -0.02821  -0.13205
C    -0.78469  -1.22478  -1.06896
C    -1.68902  -2.38868  -0.78070
O    -0.09794  -1.16008  -2.07317
C    -2.19779   0.30701   0.41603
C    -2.39564   0.39549   1.80551
C    -3.66651   0.66267   2.31380
C    -4.74674   0.85024   1.44469
C    -4.55617   0.75714   0.06219
C    -3.29055   0.47490  -0.45252
H     4.26441  -3.26118   0.73753
H     3.14531  -3.04895   2.11076
H     2.55053  -3.74266   0.58460
H     3.68215  -1.03861   0.21168
H     3.64264   2.32934  -2.68451
H     3.79786   3.24229  -1.15045
H     2.54802   3.71643  -2.35349
H     0.13504   1.84856   1.88213
H    -0.88079   2.48027   0.53946
H     0.89968   2.64127   0.47608
H    -2.64276  -2.23446  -1.31238
H    -1.90495  -2.49145   0.28938
H    -1.22349  -3.30298  -1.17276
H    -1.55538   0.23266   2.48244
H    -3.81518   0.72116   3.39424
H    -5.74007   1.06343   1.84606
H    -5.39735   0.90124  -0.61922
H    -3.14139   0.39840  -1.53180
