39
Generated by autodE on: 2022-07-27. E = -993.304554 Ha
C     3.10464  -2.85780   2.77815
N     2.51997  -1.64367   2.25296
C     1.74669  -1.66100   1.14431
O     1.56419  -2.72928   0.51511
C     1.09454  -0.42475   0.70244
C     1.11651   0.88874   1.30400
O     0.64110   1.91381   0.81567
O     1.74106   0.92378   2.51197
C     1.83388   2.19931   3.15246
N     0.49210  -0.46720  -0.58139
C     1.32246  -0.75706  -1.75709
C    -0.75909  -0.07416  -0.62989
C    -1.52979  -0.17843   0.67266
C    -1.63850  -1.54237   1.30525
O    -2.14511   0.79275   1.08256
C    -1.43313   0.47111  -1.80553
C    -0.76559   1.33365  -2.69800
C    -1.44328   1.86537  -3.79296
C    -2.78577   1.53949  -4.01559
C    -3.45930   0.69341  -3.12745
C    -2.79398   0.17181  -2.02045
H     3.65766  -2.61623   3.69457
H     3.80245  -3.31804   2.05971
H     2.33557  -3.61039   3.02003
H     2.61180  -0.76840   2.75746
H     0.83318   2.61780   3.33328
H     2.34482   2.02019   4.10616
H     2.41604   2.90459   2.54118
H     0.68915  -1.01276  -2.61362
H     1.95999  -1.60951  -1.50101
H     1.95152   0.11204  -1.99228
H    -2.63523  -1.93435   1.03613
H    -0.87808  -2.24654   0.94959
H    -1.59880  -1.44962   2.39975
H     0.27002   1.61651  -2.51039
H    -0.92364   2.54366  -4.47290
H    -3.31177   1.95483  -4.87816
H    -4.50885   0.44406  -3.29618
H    -3.32383  -0.48546  -1.32825
