31
Generated by autodE on: 2022-07-04. E = -5840.014633 Ha
C     1.02359  -2.30446  -4.23797
O     1.13004  -1.27054  -3.24436
C     0.25154  -0.27454  -3.31531
O    -0.62390  -0.19235  -4.14543
C     0.51716   0.76767  -2.21758
C     1.77588   1.56818  -2.64274
C     2.65526   2.09277  -1.55296
O     1.97372   1.76159  -3.82592
C     0.60728   0.13066  -0.91234
C     0.28947  -0.22103   0.20369
C    -0.55813  -0.27586   1.36063
Br    0.14660   1.00574   2.72989
Br   -0.57007  -2.08990   2.17948
C    -1.98867   0.12085   0.95532
C    -2.10534   1.39494   0.09313
C    -1.95519   1.25843  -1.44826
C    -0.66649   1.78647  -2.11229
H     1.81933  -3.02252  -4.01075
H     1.16514  -1.88080  -5.24236
H     0.03969  -2.79058  -4.17670
H     3.19892   1.24290  -1.10651
H     3.37287   2.81636  -1.95990
H     2.05561   2.54383  -0.74796
H    -2.58070   0.22567   1.87595
H    -2.40572  -0.73356   0.39850
H    -1.42002   2.16856   0.47671
H    -3.11732   1.78037   0.28804
H    -2.77296   1.83992  -1.90019
H    -2.13445   0.21565  -1.75686
H    -0.87929   2.10935  -3.14075
H    -0.30352   2.66800  -1.56182
