70
Generated by autodE on: 2022-07-04. E = -6833.282938 Ha. Imaginary frequency = -250.1 cm-1
C    -2.31459   5.58860  -3.55083
N    -3.38005   6.53899  -3.81201
C    -3.21836   7.56110  -4.66905
O    -2.17169   7.73726  -5.29692
C    -4.43071   8.47548  -4.80219
C    -4.72966   9.21819  -3.56189
O    -5.80368   9.61765  -3.15880
O    -3.58345   9.42372  -2.87733
C    -3.68767  10.17724  -1.66591
C    -4.15746  10.63092  -5.73148
C    -5.36089  10.96654  -5.85953
C    -6.15798  12.19449  -5.97384
Br   -7.00697  12.56350  -4.18158
Br   -7.63003  12.11577  -7.30799
C    -5.32289  13.44924  -6.27039
C    -4.61043  13.52789  -7.62343
C    -3.52292  12.48472  -7.91318
C    -2.53926  12.28482  -6.75058
C    -2.71608  10.93058  -5.94670
C    -2.04174  11.18110  -4.55678
C    -0.84086  10.41722  -4.09490
O    -2.52016  12.07294  -3.87899
C    -2.11416   9.88967  -6.89446
O    -2.76959   9.30510  -7.73439
O    -0.78844   9.83243  -6.84069
C    -0.14038   8.93153  -7.74992
C    -6.50061   8.86943  -5.96036
C    -7.54373   8.90734  -4.86827
C    -7.62893   7.69340  -3.96689
O    -8.43995   9.73149  -4.87871
C    -7.03196   8.89441  -7.35041
C    -6.16961   9.21794  -8.41779
C    -6.64265   9.28503  -9.72540
C    -7.99141   9.03608 -10.00051
C    -8.85542   8.70280  -8.95328
C    -8.38160   8.62856  -7.64300
N    -5.35866   8.13052  -5.75017
C    -4.92360   7.10910  -6.72911
H    -1.93901   5.15973  -4.49193
H    -2.70667   4.78115  -2.92084
H    -1.46946   6.06891  -3.03125
H    -4.25160   6.46230  -3.29581
H    -2.67205  10.23584  -1.25863
H    -4.07227  11.18508  -1.87322
H    -4.35343   9.66853  -0.95356
H    -4.59382  13.52416  -5.45004
H    -5.99201  14.31633  -6.17837
H    -4.14833  14.52932  -7.65170
H    -5.35717  13.51066  -8.43241
H    -3.98069  11.52723  -8.19665
H    -2.96500  12.81887  -8.80138
H    -2.63530  13.10216  -6.02586
H    -1.49822  12.30297  -7.10309
H     0.03410  10.75971  -4.66910
H    -0.67888  10.62601  -3.02952
H    -0.95027   9.34300  -4.28222
H     0.93388   9.03155  -7.55756
H    -0.36985   9.20221  -8.79016
H    -0.46838   7.90097  -7.55401
H    -8.25936   6.95772  -4.49804
H    -6.66652   7.21421  -3.75660
H    -8.13157   7.96639  -3.02936
H    -5.12344   9.43941  -8.21321
H    -5.95695   9.55022 -10.53376
H    -8.36654   9.09948 -11.02483
H    -9.90895   8.49638  -9.15694
H    -9.07716   8.37365  -6.84419
H    -4.60391   6.22088  -6.17081
H    -4.09648   7.46994  -7.34878
H    -5.77200   6.82739  -7.35551
