34
Generated by autodE on: 2022-05-26. E = -894.662834 Ha
C    -2.29902  -2.21089   0.94924
C    -2.03883  -1.13679  -0.06115
O    -2.54152  -1.14925  -1.17224
C    -1.08769   0.01073   0.28959
C    -1.81114   1.38299   0.21521
C    -3.30679   1.41159   0.31028
O    -1.14539   2.40332   0.19075
N    -0.62708   0.01252   1.69602
N     0.60458   0.71951   1.72594
C     1.30039   0.46929   0.44175
C     2.02125   1.65194   0.00209
N     2.60340   2.59242  -0.34975
C     2.22849  -0.79951   0.58197
C     2.95654  -1.01167  -0.73287
C     2.02641  -1.47851  -1.57388
C     0.73872  -1.53746  -0.76300
O     1.23417  -1.82800   0.55389
C     0.21075  -0.05591  -0.59525
C     0.08245   0.65286  -1.93870
H    -2.65932  -1.77140   1.89262
H    -1.35957  -2.74261   1.17702
H    -3.03483  -2.92132   0.55234
H    -3.73278   1.08185  -0.65017
H    -3.64368   2.43211   0.53204
H    -3.66415   0.71104   1.08062
H    -0.42360  -0.94487   1.97803
H     0.37779   1.71283   1.77785
H     2.80230  -0.80572   1.51354
H     3.99542  -0.74863  -0.92837
H     2.11171  -1.69876  -2.63726
H    -0.00975  -2.26965  -1.08124
H    -0.16219   1.71373  -1.82297
H    -0.71761   0.17430  -2.52245
H     1.01636   0.58317  -2.51104
