17
Generated by autodE on: 2022-05-26. E = -455.474675 Ha
C    -1.19972  -2.07337   0.78201
C    -1.28707  -0.63006   0.37238
O    -2.38927  -0.06265   0.37201
C    -0.09945   0.14037  -0.02577
N    -0.45506   1.43346  -0.33514
N     0.19656   2.44272  -0.71380
C     1.29850  -0.23890  -0.13106
C     1.76610  -1.63830   0.17408
O     2.14105   0.60695  -0.48567
H    -2.20936  -2.42037   1.03516
H    -0.54187  -2.19661   1.65462
H    -0.79397  -2.69314  -0.03040
H    -1.48155   1.54833  -0.21612
H     1.18405   2.13283  -0.77164
H     2.85039  -1.67473   0.00881
H     1.27475  -2.37558  -0.47707
H     1.54991  -1.91481   1.21607
