17
Generated by autodE on: 2022-07-26. E = -455.469863 Ha
C    -1.08558  -2.08998  -0.82213
C    -0.03886  -1.46906   0.05512
O     0.70062  -2.18659   0.74454
C     0.13281  -0.00590   0.11772
N     1.13772   0.30922   0.97836
N     1.61276   1.42822   1.32892
C    -0.64948   0.97955  -0.62907
C    -0.35404   2.44784  -0.46175
O    -1.54864   0.61932  -1.39449
H    -2.08613  -1.72336  -0.55050
H    -0.92703  -1.80824  -1.87328
H    -1.03475  -3.18083  -0.70804
H     1.52137  -0.58282   1.36688
H     2.36633   1.22722   1.99859
H    -0.47702   2.75566   0.58771
H     0.69066   2.67174  -0.72526
H    -1.03966   3.01322  -1.10654
