17
Generated by autodE on: 2022-05-26. E = -439.145387 Ha
C     2.19124  -0.85000   0.72196
C     0.85213  -0.55645   0.17076
C     0.31052   0.58128  -0.31787
C     0.90299   1.85173  -0.44579
N     1.38132   2.91012  -0.56216
C    -1.17967   0.22781  -0.61127
C    -1.85944   0.00659   0.75644
C    -1.31718  -1.11868   1.23167
C    -0.32219  -1.56703   0.14041
O    -1.00823  -1.12863  -1.04549
H     2.85880   0.02154   0.67472
H     2.09439  -1.17083   1.77448
H     2.65445  -1.69315   0.18212
H    -1.69496   0.84813  -1.35108
H    -2.57347   0.68763   1.21796
H    -1.45921  -1.61422   2.19119
H    -0.04748  -2.62642   0.10040
