34
Generated by autodE on: 2022-05-26. E = -894.605106 Ha. Imaginary frequency = -369.3 cm-1
C    -2.75856  -1.98874  -0.24124
C    -1.81488  -1.43197   0.78107
O    -1.36294  -2.15088   1.67252
C    -1.35367  -0.01430   0.71224
C    -2.12005   1.04085   0.00828
C    -1.93497   2.48807   0.38750
O    -2.91113   0.74306  -0.88408
N    -0.50268   0.28259   1.74213
N     0.34499   1.26802   1.60851
C     1.32688   0.69321  -0.10710
C     1.71937   1.98227  -0.55351
N     2.04226   3.04440  -0.90760
C     2.36950  -0.33570   0.43571
C     3.12995  -0.88618  -0.77906
C     2.24012  -1.64376  -1.43109
C     0.94689  -1.54180  -0.60372
O     1.47877  -1.41717   0.72675
C     0.40428  -0.10807  -0.83808
C    -0.19719   0.26367  -2.15101
H    -2.36000  -1.84505  -1.25608
H    -3.72340  -1.46334  -0.20570
H    -2.89798  -3.05844  -0.03752
H    -1.00611   2.87372  -0.05841
H    -1.85287   2.62957   1.47342
H    -2.78684   3.05248  -0.01499
H    -0.23365  -0.56117   2.26592
H     1.05241   1.16359   2.34702
H     2.94885  -0.02564   1.31126
H     4.15545  -0.63242  -1.04481
H     2.34020  -2.17412  -2.37736
H     0.23370  -2.36741  -0.68611
H     0.52991   0.03606  -2.95226
H    -0.43464   1.33439  -2.20954
H    -1.11061  -0.30897  -2.36303
