35
Generated by autodE on: 2022-06-17. E = -762.619729 Ha
C    -2.07773  -1.71267  -1.89242
C    -1.70088  -1.64959  -0.43786
O    -1.01716  -2.50896   0.11191
N    -2.18062  -0.57345   0.28562
C    -1.52984  -0.12411   1.51390
C    -0.89373   1.25752   1.14955
C    -1.34562   2.34306   2.11836
C     0.60921   1.24401   1.00355
C     1.33466   0.18199   0.60077
C     2.76984   0.20011   0.39873
C     3.52353  -0.83707  -0.04311
C     5.00784  -0.68640  -0.21823
C     2.98194  -2.19335  -0.39883
N    -1.55618   1.51895  -0.21115
C    -0.79098   1.69074  -1.29217
N    -0.16633   1.90849  -2.25462
N    -2.61077   0.56950  -0.41321
H    -1.84245  -2.71558  -2.26934
H    -1.48691  -0.96910  -2.45087
H    -3.13856  -1.48001  -2.05254
H    -2.28469   0.01200   2.30042
H    -0.80008  -0.86561   1.84662
H    -0.93531   3.31992   1.82335
H    -0.99014   2.10710   3.13347
H    -2.44371   2.40925   2.13944
H     1.11057   2.19941   1.19183
H     0.82286  -0.76191   0.39941
H     3.27681   1.14651   0.61960
H     5.54929  -1.42903   0.39451
H     5.35954   0.31822   0.05813
H     5.29845  -0.88412  -1.26543
H     1.89565  -2.29063  -0.27669
H     3.23183  -2.43564  -1.44670
H     3.46870  -2.96910   0.21792
H    -3.42358   0.94511   0.08191
