23
Generated by autodE on: 2022-06-17. E = -351.521384 Ha
C    -3.64243   0.02531   1.01398
C    -2.57748  -0.09367   0.19086
C    -2.74954  -0.41538  -1.27169
C    -1.22585   0.09010   0.71576
C    -0.07848  -0.00296  -0.00237
C     1.23839   0.18984   0.56984
C     2.42954   0.11071  -0.07550
C     3.71949   0.34008   0.66025
C     2.58398  -0.20255  -1.53672
H    -4.66458  -0.10697   0.64843
H    -3.51374   0.25875   2.07543
H    -2.22622  -1.34896  -1.53731
H    -2.31928   0.37719  -1.90625
H    -3.81128  -0.52843  -1.53239
H    -1.15528   0.32275   1.78518
H    -0.14029  -0.23472  -1.06911
H     1.25883   0.42491   1.64091
H     4.37365  -0.54760   0.58993
H     4.28633   1.17265   0.20600
H     3.55707   0.56908   1.72374
H     3.10935   0.62171  -2.05085
H     1.63193  -0.37681  -2.05436
H     3.21659  -1.09787  -1.67009
