12
Generated by autodE on: 2022-06-17. E = -411.042456 Ha
C     2.44250   0.54894   0.19060
C     1.20038  -0.18896  -0.18245
O     0.75916  -0.29828  -1.31319
N     0.60942  -0.88483   0.89941
N    -0.65145  -1.02414   0.98063
N    -1.67092  -0.39879   0.47474
C    -1.49507   0.69943  -0.24273
N    -1.51971   1.70866  -0.83505
H     2.17333   1.38158   0.86204
H     2.93092   0.93961  -0.71042
H     3.12487  -0.11144   0.74677
H    -0.95087  -1.77377   1.62310
