35
Generated by autodE on: 2022-06-17. E = -762.555859 Ha. Imaginary frequency = -247.5 cm-1
C    -1.95030  -1.58697  -2.06457
C    -1.67968  -1.43068  -0.58381
O    -0.94847  -2.21179   0.00891
N    -2.42199  -0.46562   0.09505
C    -1.40009  -0.01170   1.95885
C    -0.68442   1.16955   1.79801
C    -1.34382   2.47894   2.15467
C     0.69509   1.21090   1.39413
C     1.39698   0.16996   0.85095
C     2.77970   0.24510   0.46896
C     3.49650  -0.74705  -0.12737
C     4.94441  -0.54699  -0.46399
C     2.93539  -2.08641  -0.50667
N    -2.01650   1.55849  -1.02430
C    -0.82525   1.18195  -1.42022
N     0.26221   0.95150  -1.80532
N    -2.79793   0.63890  -0.46371
H    -2.35821  -2.59732  -2.22136
H    -0.98828  -1.52366  -2.59391
H    -2.64727  -0.84617  -2.47330
H    -2.37016   0.03220   2.45484
H    -0.90223  -0.97899   1.95163
H    -0.97431   3.30700   1.53302
H    -1.12798   2.73820   3.20710
H    -2.43732   2.41663   2.05140
H     1.19981   2.17856   1.49081
H     0.87912  -0.77925   0.70172
H     3.29087   1.19252   0.67493
H     5.56540  -1.32400   0.01664
H     5.31291   0.44044  -0.15084
H     5.10838  -0.65595  -1.55107
H     1.85636  -2.18612  -0.33563
H     3.13291  -2.28445  -1.57451
H     3.45188  -2.88711   0.05197
H    -3.69253   1.02297  -0.14724
