56
Generated by autodE on: 2022-10-22. E = -1460.609632 Ha
C    -3.26794   2.87556  -1.88923
O    -2.79224   1.53955  -1.65451
C    -2.13736   1.32535  -0.51098
O    -1.96666   2.17962   0.33026
C    -1.49336  -0.07800  -0.51671
C    -2.41335  -1.04537  -1.29537
C    -1.86372  -1.72580  -2.51086
O    -3.55261  -1.22604  -0.90539
N    -0.18390   0.03620  -1.15033
C     0.81646   0.52788  -0.22223
C     0.81694   2.08669  -0.26058
O     0.45056   2.67298  -1.26074
O     1.33429   2.69519   0.79253
C     1.43487   4.12843   0.72407
C     2.23614   0.15783  -0.67905
C     2.44836  -0.53221  -1.87778
C     3.74622  -0.85654  -2.28711
C     4.84392  -0.49453  -1.50327
C     4.63715   0.19630  -0.30413
C     3.34335   0.52416   0.10317
C     0.38304  -0.16020   1.12590
F     0.52432   0.70826   2.18706
C     1.08577  -1.49691   1.42503
C     0.61126  -1.99349   2.80901
C    -0.83294  -2.50079   2.53519
C    -1.05039  -2.14530   1.04915
C     0.34690  -2.45457   0.47593
C    -1.13764  -0.58974   0.93468
O    -1.88772   0.00243   1.95837
C    -3.27152  -0.29746   2.02195
H    -3.76406   2.85077  -2.86586
H    -3.97947   3.17135  -1.10565
H    -2.42113   3.57621  -1.90515
H    -1.54777  -0.97176  -3.24954
H    -0.96775  -2.30814  -2.25067
H    -2.63286  -2.37725  -2.94472
H    -0.20093   0.57279  -2.01652
H     2.08038   4.42633  -0.11421
H     0.43614   4.56935   0.59801
H     1.87448   4.44303   1.67711
H     1.59571  -0.82585  -2.48948
H     3.89599  -1.39643  -3.22511
H     5.85703  -0.74886  -1.82338
H     5.48784   0.48102   0.31940
H     3.18996   1.05801   1.04168
H     2.17402  -1.44428   1.32470
H     1.26874  -2.80546   3.15046
H     0.64695  -1.19658   3.56266
H    -0.90162  -3.59181   2.65242
H    -1.57610  -2.04675   3.20030
H    -1.89146  -2.67558   0.58900
H     0.63382  -3.50312   0.64211
H     0.46783  -2.21416  -0.58479
H    -3.63951   0.13754   2.96175
H    -3.82960   0.14264   1.18078
H    -3.46474  -1.38248   2.03071
