35
Generated by autodE on: 2022-10-26. E = -973.857490 Ha
C     0.79090   3.43715   1.25774
O     0.87816   2.00611   1.13478
C     0.39500   1.47402   0.02155
O    -0.11557   2.10037  -0.88336
C     0.62785  -0.00832  -0.05005
N    -0.33210  -0.78607  -0.49504
C    -1.67937  -0.62165  -0.73781
C    -2.21045  -1.69658  -1.55189
C    -3.67615  -1.75451  -1.88885
O    -1.43614  -2.58654  -1.95620
C    -2.48787   0.37694  -0.06265
O    -3.61853   0.71614  -0.38462
O    -1.87835   0.87602   1.03533
C    -2.55237   1.92164   1.74134
C     1.94784  -0.56872   0.23018
C     2.09335  -1.93312   0.56165
C     3.35807  -2.47524   0.78100
C     4.49699  -1.66867   0.68510
C     4.36342  -0.31199   0.36915
C     3.10339   0.23800   0.14594
H     1.38023   3.91865   0.46463
H    -0.25594   3.76261   1.19108
H     1.20567   3.67790   2.24255
H    -0.05638  -1.73300  -0.81005
H    -3.87428  -2.68459  -2.43757
H    -3.96138  -0.89081  -2.50823
H    -4.29743  -1.71168  -0.98214
H    -3.50990   1.56222   2.14527
H    -1.88334   2.21140   2.55979
H    -2.73539   2.77952   1.07836
H     1.21242  -2.56803   0.67840
H     3.45358  -3.53096   1.04358
H     5.48667  -2.09462   0.86410
H     5.24887   0.32250   0.29194
H     3.01886   1.29399  -0.11385
