35
Generated by autodE on: 2022-10-22. E = -973.856692 Ha
C    -1.52218   3.13605   1.51983
O    -1.46370   1.98344   0.66279
C    -0.65948   1.00280   1.04772
O    -0.02538   0.98546   2.08155
C    -0.70569  -0.17423   0.11609
N     0.41383  -0.75397  -0.24549
C     1.74993  -0.40889  -0.18751
C     2.59518  -1.55445  -0.48027
C     4.09380  -1.43715  -0.55467
O     2.05102  -2.65794  -0.68446
C     2.11752   0.98944  -0.12084
O     1.31696   1.91789  -0.22214
O     3.43349   1.20710   0.03841
C     3.86236   2.57307   0.03144
C    -1.98824  -0.77179  -0.25370
C    -3.14153  -0.53041   0.52378
C    -4.35307  -1.13309   0.19302
C    -4.44115  -1.98088  -0.91652
C    -3.30670  -2.22060  -1.69931
C    -2.09161  -1.61963  -1.37747
H    -1.88217   2.85099   2.51850
H    -0.52560   3.59245   1.60043
H    -2.22412   3.82935   1.04360
H     0.34425  -1.71104  -0.63364
H     4.39753  -0.69500  -1.30699
H     4.50597  -2.42158  -0.81199
H     4.50537  -1.10129   0.40832
H     4.94929   2.54686   0.17284
H     3.38791   3.13316   0.85034
H     3.61796   3.05497  -0.92655
H    -3.08905   0.11566   1.40105
H    -5.23470  -0.94239   0.80863
H    -5.39410  -2.44770  -1.17529
H    -3.37146  -2.86832  -2.57619
H    -1.22698  -1.78804  -2.02263
