56
Generated by autodE on: 2022-10-22. E = -1460.548013 Ha. Imaginary frequency = -256.9 cm-1
C    -2.30080   3.51281  -0.21758
O    -1.54216   2.43542  -0.76990
C    -2.22867   1.37650  -1.24308
O    -3.45585   1.37953  -1.26337
C    -1.37445   0.28210  -1.65383
C    -1.89221  -0.93175  -2.26993
C    -3.36607  -1.23630  -2.31798
O    -1.08529  -1.75678  -2.74540
N     0.01204   0.34334  -1.72753
C     0.89863   0.90405  -0.86179
C     0.92694   2.43821  -0.87588
O     0.99959   3.00980  -1.94466
O     1.03998   3.05236   0.28934
C     1.30622   4.46364   0.24464
C     2.29231   0.36082  -0.87685
C     2.64959  -0.78948  -1.60522
C     3.94465  -1.30409  -1.53657
C     4.91122  -0.69050  -0.73464
C     4.56875   0.45038  -0.00404
C     3.27745   0.97238  -0.07558
C     0.18851   0.15860   1.09939
F     0.54022   1.16024   1.95356
C     0.88221  -1.18189   1.32393
C     0.46875  -1.66181   2.74549
C    -1.03506  -2.02001   2.57831
C    -1.31949  -1.66672   1.07421
C     0.01671  -2.09360   0.43838
C    -1.19633  -0.16249   1.04116
O    -2.10120   0.69032   1.50680
C    -3.46230   0.24881   1.64187
H    -2.92320   3.16126   0.61683
H    -1.56990   4.24289   0.14652
H    -2.94137   3.97182  -0.98434
H    -3.49578  -2.22988  -2.76708
H    -3.90421  -0.48435  -2.91294
H    -3.80990  -1.22142  -1.31279
H     0.31605  -0.52656  -2.17165
H     2.29123   4.64597  -0.20915
H     0.53395   4.98759  -0.33407
H     1.29820   4.80122   1.28702
H     1.93194  -1.31421  -2.23746
H     4.19620  -2.19610  -2.11453
H     5.92253  -1.09935  -0.67956
H     5.31066   0.94016   0.63065
H     3.02618   1.84893   0.52017
H     1.96159  -1.18166   1.14046
H     0.63904  -0.87867   3.49718
H     1.06416  -2.54084   3.03076
H    -1.22071  -3.09375   2.72671
H    -1.68599  -1.46745   3.26873
H    -2.24057  -2.09577   0.66571
H     0.22687  -3.15832   0.61200
H     0.08362  -1.89644  -0.63356
H    -3.55742  -0.41462   2.51385
H    -4.06326   1.15211   1.79609
H    -3.79661  -0.26942   0.73582
