41
Generated by autodE on: 2022-06-18. E = -841.348610 Ha
C     3.35435   2.72817   0.41747
N     2.44493   1.66116   0.77856
C     2.39761   0.51312   0.04911
O     3.22636   0.25499  -0.83912
N     1.41541  -0.38180   0.41089
N     0.43872   0.02999   1.37678
N    -0.79198  -0.49844   0.95185
C    -1.65568   0.44332   0.33090
C    -1.20170   1.68955  -0.13525
C    -2.09617   2.60353  -0.69722
C    -3.45455   2.29440  -0.81408
C    -3.91297   1.06116  -0.33879
C    -3.02855   0.15098   0.24187
C    -0.45044  -1.81539   0.31183
C    -1.52933  -2.37841  -0.60321
C    -0.20952  -2.82239   1.44612
C     0.88268  -1.45733  -0.46783
C     1.86179  -2.62835  -0.57000
C     0.59126  -0.91362  -1.87518
H     3.32821   3.49771   1.20006
H     3.09415   3.20112  -0.54591
H     4.38339   2.34863   0.33848
H     1.62968   1.86507   1.34949
H     0.67343  -0.44683   2.24906
H    -0.14652   1.94359  -0.05741
H    -1.72028   3.56585  -1.05390
H    -4.14986   3.01031  -1.25799
H    -4.97490   0.81021  -0.39996
H    -3.40272  -0.78817   0.64887
H    -1.12248  -3.26233  -1.11624
H    -1.86985  -1.66869  -1.36469
H    -2.40029  -2.70499  -0.01848
H    -1.12567  -2.90540   2.04830
H     0.61508  -2.52877   2.11158
H     0.02684  -3.81641   1.04313
H     2.21315  -2.95711   0.41651
H     2.73837  -2.32777  -1.16007
H     1.38313  -3.48053  -1.07650
H     1.51144  -0.50239  -2.30789
H     0.23818  -1.71962  -2.53279
H    -0.16618  -0.11918  -1.85858
