12
Generated by autodE on: 2022-06-21. E = -157.300302 Ha
C    -1.96232  -0.06851  -0.05014
C    -0.51320  -0.02583  -0.42971
C     0.51320   0.02591   0.42971
C     1.96232   0.06845   0.05014
H    -2.51331   0.78839  -0.47702
H    -2.45309  -0.97582  -0.44510
H    -2.09890  -0.05342   1.04265
H    -0.29342  -0.03845  -1.50652
H     0.29342   0.03854   1.50652
H     2.45332   0.97543   0.44559
H     2.51311  -0.78883   0.47653
H     2.09889   0.05389  -1.04266
