34
Generated by autodE on: 2022-06-21. E = -898.562100 Ha
C    -2.22274   3.32516   2.44778
N    -2.36565   2.11404   1.66977
C    -1.31277   1.51970   1.07941
O    -0.16256   2.01638   1.09424
C    -1.55823   0.22668   0.44811
O    -0.48806  -0.45216  -0.05523
C     0.65239  -0.04292  -0.50641
C     0.87815   1.37770  -0.97225
C    -0.21769   2.01003  -1.78834
O     1.98751   1.87552  -0.87563
C     1.65427  -1.07833  -0.66394
C     2.81614  -0.88199  -1.44781
C     3.74593  -1.90847  -1.58732
C     3.54197  -3.14008  -0.95539
C     2.39540  -3.34656  -0.17675
C     1.46078  -2.32933  -0.02758
C    -2.73819  -0.57895   0.57802
C    -2.69607  -1.98790   0.03214
O    -3.78465  -0.13496   1.09739
H    -3.21091   3.78373   2.58257
H    -1.78828   3.13475   3.44472
H    -1.56798   4.03774   1.92614
H    -3.22488   1.55791   1.69465
H    -1.19787   1.53085  -1.67074
H    -0.29060   3.07680  -1.53613
H     0.09075   1.92432  -2.84399
H     2.98170   0.06563  -1.95625
H     4.63603  -1.74824  -2.19907
H     4.27773  -3.93971  -1.06659
H     2.23812  -4.30417   0.32385
H     0.57951  -2.48286   0.59568
H    -1.87074  -2.56197   0.48226
H    -3.65224  -2.48076   0.24994
H    -2.52734  -1.98013  -1.05628
