34
Generated by autodE on: 2022-07-27. E = -898.559081 Ha
C     3.41791  -2.56796  -1.08051
N     2.38835  -1.66248  -0.61600
C     2.70289  -0.54195   0.07962
O     3.88379  -0.26239   0.35467
C     1.58187   0.30337   0.50582
O     0.37933  -0.14740   0.02688
C    -0.84202   0.18935   0.27870
C    -1.24371   0.87453   1.56799
C    -0.62551   0.33602   2.82936
O    -2.19365   1.64016   1.57698
C    -1.81304  -0.28778  -0.68614
C    -3.20218  -0.27640  -0.41648
C    -4.10052  -0.76233  -1.36241
C    -3.63941  -1.26526  -2.58371
C    -2.26567  -1.28334  -2.86166
C    -1.35892  -0.79879  -1.92775
C     1.64048   1.63451   1.00150
C     2.96642   2.30934   1.24642
O     0.57925   2.27450   1.19748
H     4.01308  -2.96574  -0.24255
H     4.11312  -2.07148  -1.77710
H     2.94121  -3.40755  -1.60120
H     1.41711  -1.86672  -0.82025
H    -0.51220   1.15359   3.55438
H    -1.33854  -0.39873   3.24065
H     0.33818  -0.16538   2.67315
H    -3.57181   0.10145   0.53447
H    -5.17001  -0.75394  -1.14290
H    -4.35025  -1.64313  -3.32197
H    -1.90515  -1.67084  -3.81668
H    -0.29116  -0.79968  -2.14885
H     2.77384   3.35835   1.50808
H     3.48981   1.81370   2.07818
H     3.62712   2.24556   0.37156
