20
Generated by autodE on: 2022-10-06. E = -847.943149 Ha
C     3.94826   0.14994   1.48591
O     2.53440  -0.08632   1.47745
C     1.88440   0.29769   0.37442
O     2.40955   0.80645  -0.60036
N     0.52679   0.10029   0.46308
N    -0.06904  -0.48547   1.56134
N    -1.27878  -0.69346   1.35804
C    -1.68424  -0.20418   0.02416
C    -2.64083   1.02958   0.15856
O    -3.51175   0.95819   1.05530
O    -2.47551   1.95217  -0.67307
C    -0.35867   0.06063  -0.69557
C     0.01254  -1.06325  -1.70066
O    -0.74655  -1.13154  -2.69935
O     0.99176  -1.79841  -1.43383
H     4.43682  -0.39248   0.66364
H     4.30816  -0.22580   2.45088
H     4.16307   1.22470   1.39493
H    -2.27536  -0.98563  -0.47485
H    -0.39464   1.02655  -1.21218
