10
Generated by autodE on: 2022-10-06. E = -392.847645 Ha
C    -2.65906  -0.08904  -0.64386
O    -1.30645   0.30429  -0.92913
C    -0.39541  -0.04652  -0.03374
O    -0.59786  -0.65964   0.99097
N     0.85994   0.41736  -0.47817
N     1.81888   0.15947   0.26209
N     2.76245  -0.01594   0.85309
H    -3.26045   0.28567  -1.47963
H    -2.99572   0.36034   0.30120
H    -2.73234  -1.18411  -0.58090
