20
Generated by autodE on: 2022-10-06. E = -847.874095 Ha. Imaginary frequency = -375.5 cm-1
C     3.95320  -0.39432   1.31849
O     2.56143  -0.06009   1.43667
C     2.00255   0.51452   0.36720
O     2.58549   0.77937  -0.66497
N     0.64856   0.78722   0.51196
N     0.03017   0.38392   1.55706
N    -1.02430  -0.04881   1.79386
C    -1.80232  -0.36708  -0.17389
C    -3.03677   0.50029   0.02425
O    -4.06320  -0.08891   0.45448
O    -2.93479   1.72770  -0.24178
C    -0.75687   0.02893  -0.99820
C     0.19908  -0.97744  -1.61737
O     0.50666  -0.76841  -2.81844
O     0.58817  -1.93214  -0.89335
H     4.09996  -1.12773   0.51269
H     4.23862  -0.82820   2.28374
H     4.55033   0.50580   1.11412
H    -1.91326  -1.43192   0.04673
H    -0.82885   1.00493  -1.48088
