44
Generated by autodE on: 2022-06-18. E = -772.283710 Ha
C    -3.46506   1.23974   1.26602
C    -2.21646   1.44259   0.45617
O    -1.70650   2.54934   0.35054
C    -1.56062   0.24550  -0.25186
C    -1.14641   0.68863  -1.66710
N    -2.42661  -0.94467  -0.22549
C    -3.39727  -1.06403  -1.29808
N    -1.58993  -2.14156  -0.17123
C    -2.10505  -3.05586   0.83891
C    -0.21613  -1.68574   0.06231
C    -0.30572  -0.24117   0.58334
C    -0.57416  -0.21993   2.10433
C     0.91622   0.59965   0.33405
C     2.13222   0.15523  -0.03782
C     3.28528   1.02789  -0.19937
C     4.53787   0.66861  -0.56883
C     4.96162  -0.73979  -0.88031
C     5.62827   1.69600  -0.69656
H    -3.69103   2.15780   1.82474
H    -3.36984   0.38098   1.94225
H    -4.30312   1.01101   0.58771
H    -0.62581  -0.12050  -2.19747
H    -0.47832   1.55581  -1.61641
H    -2.02602   0.98016  -2.25826
H    -2.94482  -1.25553  -2.28961
H    -4.00110  -0.14673  -1.35946
H    -4.08562  -1.89461  -1.07593
H    -3.13670  -3.34118   0.58268
H    -2.10925  -2.64612   1.86703
H    -1.50028  -3.97517   0.83204
H     0.35329  -1.70709  -0.87944
H     0.29629  -2.34753   0.77365
H     0.25747  -0.71782   2.62429
H    -1.50322  -0.73977   2.36929
H    -0.63531   0.81105   2.48513
H     0.78778   1.66884   0.53989
H     2.27446  -0.91186  -0.23015
H     3.10144   2.09038   0.00174
H     5.79220  -1.04451  -0.21928
H     5.35300  -0.80275  -1.91117
H     4.15531  -1.47730  -0.77633
H     6.04259   1.70284  -1.72086
H     6.47403   1.45609  -0.02725
H     5.27402   2.70989  -0.45872
