23
Generated by autodE on: 2022-06-18. E = -351.521383 Ha
C     3.34340  -1.09071  -1.38952
C     2.48253  -0.44977  -0.56861
C     2.97636   0.42352   0.55645
C     1.04150  -0.59698  -0.76351
C     0.07715  -0.00915  -0.01162
C    -1.34055  -0.18923  -0.24925
C    -2.36320   0.36030   0.45350
C    -2.18867   1.27445   1.63295
C    -3.79121   0.07655   0.08177
H     2.98192  -1.72409  -2.20553
H     4.42608  -0.99827  -1.26633
H     2.61074   1.45805   0.44656
H     4.07475   0.44718   0.58942
H     2.60831   0.06216   1.53111
H     0.73439  -1.24253  -1.59522
H     0.37504   0.63599   0.81932
H    -1.59974  -0.84198  -1.09166
H    -2.67988   2.24461   1.44003
H    -2.68909   0.85047   2.52149
H    -1.13969   1.46784   1.89154
H    -4.32880   1.01328  -0.15140
H    -3.86971  -0.59497  -0.78582
H    -4.33225  -0.38236   0.92885
