21
Generated by autodE on: 2022-07-27. E = -420.725325 Ha
C     0.10404  -3.16408   0.04940
N     0.67083  -1.85804  -0.18423
N    -0.09727  -0.83266  -0.00550
C    -1.50702  -1.02316   0.40356
C     0.38341   0.40703  -0.32768
C     1.66157   0.42927  -1.10102
C    -0.16583   1.66344   0.14278
C    -1.15370   1.77701   1.29334
O     0.25229   2.73316  -0.34472
H    -0.71389  -3.41632  -0.65221
H    -0.29045  -3.29822   1.07257
H     0.90557  -3.89885  -0.10181
H    -1.93129  -1.82085  -0.21656
H    -2.07957  -0.11617   0.22494
H    -1.55858  -1.32239   1.45802
H     1.61523  -0.26512  -1.95639
H     2.52180   0.10380  -0.48868
H     1.85054   1.44776  -1.45823
H    -0.93211   2.72423   1.80487
H    -1.10120   0.95567   2.01871
H    -2.18764   1.84642   0.91744
