21
Generated by autodE on: 2022-06-18. E = -420.727423 Ha
C    -3.10455  -0.68518  -0.18668
N    -1.76992  -0.86388   0.33048
N    -0.84473  -0.09407  -0.13698
C    -1.17958   0.91856  -1.16113
C     0.43331  -0.24623   0.34532
C     0.56493  -1.31985   1.38076
C     1.57087   0.53950  -0.08643
C     2.90649   0.22261   0.57155
O     1.56984   1.44843  -0.94376
H    -3.51464   0.32347   0.00307
H    -3.75196  -1.41275   0.31972
H    -3.17888  -0.86544  -1.27462
H    -1.59770   0.40455  -2.03589
H    -0.27589   1.46459  -1.42678
H    -1.93939   1.59332  -0.74700
H     0.23940  -2.29565   0.97991
H    -0.09679  -1.12025   2.24171
H     1.59037  -1.41855   1.74593
H     2.86853   0.36681   1.66256
H     3.21432  -0.81853   0.38736
H     3.66045   0.89831   0.14739
