44
Generated by autodE on: 2022-06-18. E = -772.226315 Ha. Imaginary frequency = -412.3 cm-1
C    -3.21922   1.71963   0.73802
C    -2.02727   1.53449  -0.17852
O    -1.34364   2.54666  -0.43877
C    -1.61783   0.26740  -0.76358
C    -0.48573   0.31540  -1.73675
N    -2.20192  -0.95124  -0.53176
C    -3.57984  -1.13357  -0.07204
N    -1.33871  -1.96097  -0.50842
C    -1.89577  -3.30107  -0.51258
C    -0.27452  -1.82510   1.10683
C    -0.13811  -0.50145   1.57025
C    -1.07264  -0.01077   2.65243
C     0.98071   0.33585   1.23988
C     2.03998   0.03746   0.42532
C     3.09751   0.97516   0.13038
C     4.18583   0.77421  -0.65958
C     4.47572  -0.50833  -1.38694
C     5.20119   1.86262  -0.86601
H    -3.07032   2.66065   1.28452
H    -3.37502   0.90609   1.45302
H    -4.13812   1.82104   0.13674
H    -0.51498  -0.55697  -2.40251
H     0.50760   0.32217  -1.25248
H    -0.54956   1.24121  -2.32639
H    -4.01142  -2.00514  -0.57942
H    -4.17692  -0.26450  -0.35095
H    -3.62404  -1.29854   1.01510
H    -2.45196  -3.48170  -1.44751
H    -2.55989  -3.53294   0.33814
H    -1.05146  -4.00368  -0.48325
H     0.59672  -2.32117   0.67435
H    -0.90523  -2.48546   1.70975
H    -0.66897  -0.25492   3.65343
H    -2.06230  -0.48459   2.58404
H    -1.20768   1.08066   2.62394
H     0.95747   1.34447   1.67136
H     2.10387  -0.96247  -0.01355
H     2.99617   1.96123   0.60118
H     5.45936  -0.91055  -1.08446
H     4.54274  -0.32777  -2.47500
H     3.72256  -1.28927  -1.21867
H     5.29742   2.11559  -1.93791
H     6.20553   1.53373  -0.54141
H     4.94390   2.78034  -0.31641
