20
Generated by autodE on: 2022-06-26. E = -457.715346 Ha
C    -3.13534   0.39012  -0.34622
N    -1.82034  -0.17838  -0.09917
C    -1.71726  -1.44535   0.48878
C    -0.53966  -1.99443   0.82576
C     0.78417  -1.30471   0.60659
C     0.57140   0.07351   0.00141
C     1.70777   0.96303  -0.28746
N     2.93529   0.48312   0.03527
O     1.58568   2.09532  -0.79802
C    -0.67573   0.53314  -0.30056
H    -3.02703   1.32363  -0.91255
H    -3.66445   0.61017   0.59659
H    -3.75276  -0.30603  -0.93461
H    -2.66878  -1.95507   0.65040
H    -0.54016  -2.99011   1.27517
H     1.33926  -1.23537   1.56437
H     1.43450  -1.92586  -0.04339
H     3.74622   1.06572  -0.14153
H     3.07413  -0.42507   0.45932
H    -0.80116   1.52608  -0.73523
