35
Generated by autodE on: 2022-07-28. E = -824.535750 Ha
C     2.26135   2.78372   2.11597
O     1.62916   1.80197   1.29822
C     2.43188   0.79424   0.82539
O     3.62065   0.74420   1.13768
C     1.70704  -0.11921  -0.00851
C     2.25905  -1.31149  -0.56731
C     1.36704  -2.15980  -1.46588
O     3.43001  -1.69576  -0.36176
N     0.33008   0.21033  -0.29468
C     0.13336   1.24343  -1.32325
C    -0.65740  -0.39632   0.31167
C    -0.40831  -1.29122   1.47258
C    -2.04857  -0.25428  -0.16590
C    -2.36418  -0.53455  -1.50779
C    -3.68602  -0.45446  -1.94433
C    -4.69778  -0.07574  -1.05575
C    -4.38819   0.20455   0.27902
C    -3.07242   0.09881   0.73017
H     2.68060   2.33188   3.02804
H     3.06895   3.29715   1.57159
H     1.48007   3.50542   2.38625
H     2.01260  -2.79818  -2.08425
H     0.71080  -1.56533  -2.11752
H     0.72576  -2.81823  -0.85637
H     0.88638   2.02077  -1.15070
H     0.29455   0.80857  -2.31932
H    -0.86912   1.67921  -1.25992
H     0.54980  -1.07839   1.96052
H    -1.24063  -1.20809   2.18480
H    -0.39938  -2.33709   1.12066
H    -1.57703  -0.83759  -2.19970
H    -3.92651  -0.68777  -2.98367
H    -5.73083  -0.00370  -1.40330
H    -5.17606   0.50101   0.97460
H    -2.83365   0.31297   1.77355
