35
Generated by autodE on: 2022-06-26. E = -824.538519 Ha
C    -3.14382   0.63047  -2.43224
O    -2.18685   0.76469  -1.38300
C    -2.08877  -0.28731  -0.50980
O    -2.77077  -1.30041  -0.67422
C    -1.12223  -0.04111   0.51436
C    -0.69217  -0.96160   1.51935
C    -1.32111  -2.33907   1.57565
O     0.19937  -0.67043   2.34798
N    -0.51813   1.26243   0.57511
C    -1.37154   2.37043   1.02610
C     0.78001   1.40634   0.50105
C     1.42037   2.67348   0.95616
C     1.61641   0.34675  -0.09602
C     1.25500  -0.22381  -1.33012
C     2.06787  -1.19356  -1.91390
C     3.23386  -1.61837  -1.26514
C     3.59651  -1.05333  -0.03922
C     2.79907  -0.06376   0.53888
H    -4.15973   0.49953  -2.02942
H    -3.09217   1.56032  -3.01249
H    -2.90408  -0.22589  -3.08053
H    -1.13756  -2.88929   0.64018
H    -0.87613  -2.88687   2.41747
H    -2.41195  -2.28418   1.70102
H    -2.41097   2.11983   0.79739
H    -1.26186   2.49778   2.11411
H    -1.09957   3.30403   0.51830
H     1.04200   2.98180   1.94191
H     2.51006   2.57058   0.99079
H     1.17798   3.47966   0.24231
H     0.34995   0.11298  -1.83643
H     1.79060  -1.62062  -2.88015
H     3.86342  -2.38608  -1.72096
H     4.50582  -1.38107   0.46920
H     3.07978   0.37387   1.49835
