55
Generated by autodE on: 2022-06-26. E = -1282.187398 Ha. Imaginary frequency = -428.8 cm-1
C     2.84257   3.12120   2.44372
O     2.24312   2.43353   1.34205
C     2.57997   1.13527   1.18833
O     3.44446   0.61519   1.86627
C     1.84097   0.53846   0.02931
C     2.73963   0.02097  -1.02659
C     2.22102  -0.13747  -2.43515
O     3.88903  -0.34025  -0.75770
N     0.63099   1.13271  -0.33066
C     0.60668   2.13337  -1.41580
C    -0.48700   0.98193   0.50801
C    -0.35694   1.36749   1.96491
C    -1.78343   1.30230  -0.13908
C    -2.06396   0.80952  -1.43106
C    -3.30608   1.02117  -2.02746
C    -4.30117   1.73238  -1.34940
C    -4.03580   2.24078  -0.07366
C    -2.79383   2.02584   0.52527
C    -0.49256  -1.12047   0.79200
N    -1.46158  -1.66788  -0.06041
C    -2.84500  -1.68979   0.37282
C    -1.08812  -2.25666  -1.25573
C     0.18609  -2.59074  -1.52322
C     1.24463  -2.48629  -0.45914
C     0.88969  -1.49125   0.64715
C     1.66327  -1.63038   1.91747
N     2.84236  -2.29489   1.82276
O     1.24164  -1.22824   3.01212
H     2.59154   2.62363   3.39238
H     3.93626   3.15669   2.33289
H     2.42947   4.13670   2.42935
H     2.78303  -0.94588  -2.92190
H     2.41229   0.79055  -2.99592
H     1.14611  -0.35021  -2.47362
H     1.62578   2.49968  -1.58171
H     0.20570   1.75813  -2.36555
H    -0.00383   2.98963  -1.09827
H    -0.22381   2.45775   2.05704
H     0.48777   0.87648   2.45795
H    -1.25946   1.07387   2.51560
H    -1.30559   0.24315  -1.96864
H    -3.50099   0.62062  -3.02507
H    -5.27668   1.89384  -1.81428
H    -4.80130   2.80879   0.46025
H    -2.61161   2.43218   1.51977
H    -0.83582  -1.03094   1.82170
H    -3.50871  -1.73285  -0.50193
H    -3.08558  -0.77913   0.93708
H    -3.06214  -2.56306   1.01666
H    -1.90027  -2.41100  -1.97089
H     0.44648  -3.01598  -2.49330
H     1.37175  -3.47489   0.02760
H     2.23086  -2.28702  -0.90172
H     3.44885  -2.23107   2.63511
H     3.31326  -2.35192   0.92585
