10
Generated by autodE on: 2022-05-25. E = -264.352640 Ha
C     2.29601  -0.52210   0.18082
N     1.09279  -0.40681   0.15227
C    -0.18665  -0.31395  -0.03388
C    -1.05400  -1.53059  -0.22930
C    -0.76300   0.98581  -0.04536
N    -1.27585   2.03417  -0.06169
H     2.88700  -0.63874   1.10218
H    -0.42984  -2.43414  -0.24960
H    -1.61045  -1.46124  -1.17765
H    -1.78675  -1.62610   0.58826
