23
Generated by autodE on: 2022-06-17. E = -351.521381 Ha
C     3.47400  -1.48428  -0.16963
C     2.52940  -0.51840  -0.14476
C     2.89788   0.94055  -0.23349
C     1.11795  -0.88053  -0.03128
C     0.07819  -0.00944  -0.00027
C    -1.30609  -0.42176   0.11080
C    -2.39828   0.38316   0.14195
C    -2.35054   1.88285   0.06476
C    -3.77865  -0.19857   0.25990
H     4.53693  -1.24164  -0.25446
H     3.20300  -2.54264  -0.10532
H     2.54812   1.49335   0.65425
H     3.98597   1.07239  -0.31584
H     2.42395   1.41773  -1.10739
H     0.90240  -1.95403   0.03151
H     0.28546   1.06221  -0.06282
H    -1.47411  -1.50375   0.17418
H    -2.82015   2.32649   0.96053
H    -2.94114   2.23940  -0.79763
H    -1.33487   2.28916  -0.02539
H    -4.29129   0.18869   1.15883
H    -4.40442   0.10081  -0.60013
H    -3.76399  -1.29705   0.31374
