10
Generated by autodE on: 2022-06-17. E = -392.847646 Ha
C    -2.71033   0.33094   0.19729
O    -1.37608   0.54514   0.68684
C    -0.39818   0.01156  -0.03014
O    -0.52615  -0.63299  -1.04756
N     0.82657   0.32314   0.59551
N     1.84060  -0.11610   0.03621
N     2.82834  -0.46214  -0.38211
H    -2.82237   0.76435  -0.80671
H    -3.37279   0.83817   0.90751
H    -2.93639  -0.74437   0.16466
