33
Generated by autodE on: 2022-06-17. E = -744.343210 Ha. Imaginary frequency = -421.6 cm-1
C     3.17508   1.39825   2.10217
C     2.78820   0.73662   0.98843
C     3.50562   0.90312  -0.32511
C     1.62180  -0.13405   1.05037
C     1.07599  -0.80024  -0.00138
C    -0.12922  -1.57908   0.12028
N    -1.70470   0.20823  -0.04894
C    -1.28335   1.50738   0.16562
O    -1.17907   2.40247  -0.65461
O    -0.94313   1.62213   1.45641
C    -0.32021   2.85205   1.84326
N    -2.03327  -0.11424  -1.25044
N    -1.89118  -1.07864  -1.89939
C    -0.67841  -2.38528  -0.89874
C    -1.72399  -3.40041  -0.49696
C     0.14505  -2.75736  -2.11148
H     4.03221   2.07712   2.09420
H     2.63668   1.27578   3.04660
H     4.36264   1.58383  -0.22660
H     3.87121  -0.06544  -0.70396
H     2.82699   1.30826  -1.09393
H     1.13758  -0.22031   2.02844
H     1.53388  -0.71483  -0.98919
H    -0.54646  -1.67480   1.12439
H     0.59276   3.02666   1.25616
H    -1.01313   3.69517   1.70683
H    -0.06669   2.74020   2.90381
H    -1.23388  -4.33934  -0.18416
H    -2.38746  -3.64469  -1.34031
H    -2.33806  -3.04067   0.34197
H     0.85507  -3.56050  -1.84933
H    -0.50549  -3.13491  -2.91373
H     0.72096  -1.91134  -2.51000
