47
Generated by autodE on: 2022-06-22. E = -1073.171804 Ha
C     2.52171   0.73213   3.54603
C     2.83035   0.27993   2.31350
C     4.11970  -0.44333   2.03051
C     1.87499   0.47604   1.21764
C     2.02992   0.03477  -0.04330
C     1.02557   0.19554  -1.15675
C    -0.11716   1.10715  -0.79852
C     0.06663   2.59915  -0.73115
O     1.10795   3.12327  -1.14379
N    -0.95578   3.27932  -0.19481
C    -0.94401   4.72286  -0.08079
N    -1.23435   0.54470  -0.54138
C    -1.07655  -0.90783  -0.66143
C    -2.31006  -1.57157  -1.31820
C    -3.47099  -0.69338  -1.66734
O    -2.30277  -2.76898  -1.52951
C    -0.95733  -1.54297   0.73929
O    -0.84305  -2.73395   0.92735
O    -1.01342  -0.64521   1.71706
C    -0.82666  -1.13203   3.05554
C     0.24451  -1.10904  -1.54389
C     1.01763  -2.39979  -1.30033
C    -0.12015  -1.01453  -3.03514
H     1.57727   1.25092   3.73672
H     3.20112   0.59533   4.39201
H     4.70293   0.07541   1.25161
H     3.92686  -1.46140   1.65304
H     4.73970  -0.52103   2.93465
H     0.95942   1.00784   1.49297
H     2.93915  -0.50341  -0.32388
H     1.55877   0.58037  -2.03978
H    -1.77461   2.74797   0.08607
H    -0.04592   5.06389   0.45688
H    -0.94789   5.20583  -1.07181
H    -1.83387   5.04479   0.47305
H    -3.85399  -0.20394  -0.75858
H    -3.14522   0.11148  -2.34410
H    -4.25796  -1.29491  -2.13991
H    -0.89963  -0.25365   3.70623
H     0.16406  -1.59711   3.15408
H    -1.60716  -1.86330   3.30880
H     0.38891  -3.27084  -1.53117
H     1.37209  -2.49693  -0.26707
H     1.89546  -2.42398  -1.96497
H    -0.68949  -1.89219  -3.36979
H    -0.70752  -0.11115  -3.25873
H     0.80537  -0.96862  -3.62796
