23
Generated by autodE on: 2022-06-22. E = -351.521380 Ha
C    -3.37738   0.45431  -1.63932
C    -2.47052   0.42220  -0.63810
C    -2.85973   0.74402   0.78215
C    -1.08052   0.07178  -0.92327
C    -0.07749   0.01014  -0.01168
C     1.28663  -0.34237  -0.34864
C     2.34437  -0.41893   0.49812
C     3.70709  -0.80073  -0.00704
C     2.27404  -0.14130   1.97299
H    -4.42355   0.71340  -1.45413
H    -3.09154   0.22050  -2.66953
H    -2.64828  -0.10430   1.45419
H    -3.92928   0.98588   0.85712
H    -2.28299   1.60125   1.16761
H    -0.84942  -0.15657  -1.97074
H    -0.30016   0.23735   1.03434
H     1.46922  -0.56816  -1.40630
H     4.07849  -1.70249   0.51232
H     4.44117  -0.00276   0.20568
H     3.70982  -0.99649  -1.08937
H     2.97242   0.67086   2.24188
H     2.60225  -1.02762   2.54436
H     1.27253   0.13958   2.32345
