51
Generated by autodE on: 2022-10-22. E = -1425.216913 Ha
C    -2.70045   3.18907  -4.49920
N    -3.18110   1.85593  -4.19572
C    -4.12310   1.60283  -3.28455
O    -4.68910   2.44727  -2.58762
C    -4.46986   0.10370  -3.10264
C    -5.94340  -0.21503  -3.45660
O    -6.45380  -1.27476  -3.17019
O    -6.52129   0.74686  -4.15156
C    -7.89478   0.54146  -4.53250
O    -3.70017  -0.69825  -3.98351
C    -2.89142  -1.63489  -3.27090
C    -3.34107  -3.04595  -3.66439
C    -1.48623  -1.38805  -3.67863
N    -0.39633  -1.18236  -4.01527
C    -3.12351  -1.28927  -1.79448
C    -4.09290  -0.36391  -1.69969
C    -4.79374   0.18205  -0.44548
C    -6.11793   0.77915  -0.79383
N    -7.19449   1.18611  -0.93261
O    -5.03158  -0.83943   0.49738
C    -5.90897  -1.90013   0.12475
C    -4.00640   1.29260   0.29651
C    -2.65177   0.89204   0.87736
C    -1.54107   0.65152  -0.16121
C    -1.07333  -0.78554  -0.34613
C    -2.18568  -1.85836  -0.72429
C    -1.42091  -3.03261  -1.20449
N    -0.75964  -3.93330  -1.51010
C    -2.82589  -2.38758   0.50042
N    -3.15789  -2.92271   1.47295
H    -3.04878   3.52019  -5.49035
H    -1.60109   3.20563  -4.49114
H    -3.07671   3.88653  -3.74157
H    -2.81165   1.06258  -4.71192
H    -8.51482   0.43696  -3.63118
H    -8.18454   1.43417  -5.09709
H    -7.98460  -0.35820  -5.15663
H    -4.38942  -3.16227  -3.35998
H    -2.72935  -3.82664  -3.19938
H    -3.26472  -3.14122  -4.75681
H    -6.92420  -1.52286  -0.07879
H    -5.94110  -2.58090   0.98367
H    -5.54176  -2.44657  -0.75739
H    -4.66805   1.62319   1.11110
H    -3.88821   2.13441  -0.39734
H    -2.35187   1.72499   1.53061
H    -2.76609   0.02566   1.54639
H    -0.63727   1.20556   0.13603
H    -1.83403   1.07184  -1.13559
H    -0.33124  -0.81426  -1.15519
H    -0.58275  -1.16563   0.56179
