24
Generated by autodE on: 2022-10-26. E = -721.539193 Ha
C     1.58025   3.57353   0.28424
N     1.27189   2.16428   0.15970
C    -0.00397   1.74039   0.00805
O    -0.95316   2.53438  -0.07147
C    -0.19355   0.27627  -0.06465
O     0.91643  -0.42265   0.19944
C     1.23403  -1.65727  -0.06311
C     0.45202  -2.55758  -0.92473
C     2.50960  -2.01496   0.44817
N     3.54731  -2.34815   0.86263
C    -1.48393  -0.40196  -0.03932
O    -1.66184  -1.47013   0.53642
O    -2.46315   0.26869  -0.65595
C    -3.78379  -0.27652  -0.53165
H     1.27330   4.13295  -0.61428
H     2.66307   3.68767   0.41599
H     1.06903   4.02459   1.15018
H     2.02291   1.48641   0.21825
H     1.09273  -3.36984  -1.29109
H    -0.42413  -2.97661  -0.39944
H     0.05000  -1.96916  -1.77138
H    -4.07648  -0.34865   0.52607
H    -4.44587   0.41890  -1.06045
H    -3.83535  -1.27369  -0.99254
