24
Generated by autodE on: 2022-10-22. E = -721.542659 Ha
C    -2.40565   2.78986  -0.49195
N    -1.89653   1.43470  -0.46045
C    -0.61363   1.17892  -0.13146
O     0.22893   2.08011   0.04543
C    -0.24479  -0.22702   0.06722
O     1.03492  -0.52878   0.35635
C     2.15483   0.02534   0.04020
C     3.37390  -0.49316   0.70685
C     2.26648   0.99489  -0.99389
N     2.51451   1.66972  -1.91201
C    -1.17702  -1.29979   0.35253
O    -2.39448  -1.20970   0.19596
O    -0.58425  -2.42976   0.77164
C    -1.44839  -3.53778   1.05085
H    -3.39094   2.78916  -0.97494
H    -2.51049   3.22165   0.51866
H    -1.72903   3.43833  -1.06666
H    -2.54031   0.64480  -0.42173
H     3.74542   0.25062   1.43442
H     4.17653  -0.66607  -0.02655
H     3.13178  -1.42167   1.24117
H    -2.01473  -3.82492   0.15276
H    -0.79236  -4.35944   1.36146
H    -2.15139  -3.28998   1.85973
