27
Generated by autodE on: 2022-10-22. E = -703.531915 Ha
C    -1.60842  -3.44605  -1.75913
O    -1.22311  -2.65575  -0.63630
C    -0.29146  -1.62528  -0.88451
C     1.01217  -2.20785  -1.31896
N     2.00885  -2.67562  -1.68264
C    -0.06895  -0.85747   0.34469
C     0.15589   0.09649   1.05097
C     0.29639   1.51746   1.38809
C    -0.97870   2.03014   1.93410
N    -1.98793   2.44396   2.32401
C     1.37110   1.77353   2.36743
N     2.23740   1.98367   3.10704
C     0.63370   2.25516   0.02980
C    -0.30421   1.91277  -1.14109
C     0.05912   0.71048  -2.05700
C    -0.77235  -0.58275  -1.94392
H    -0.72964  -3.84905  -2.29151
H    -2.23345  -2.87926  -2.46675
H    -2.19284  -4.28350  -1.35615
H     1.67337   1.99155  -0.21275
H     0.60162   3.33184   0.24966
H    -1.34089   1.81689  -0.77701
H    -0.30287   2.81130  -1.77546
H     1.13310   0.47516  -1.96322
H    -0.07036   1.05172  -3.09429
H    -0.78255  -1.09185  -2.91800
H    -1.81549  -0.35314  -1.67631
