51
Generated by autodE on: 2022-10-22. E = -1425.074230 Ha. Imaginary frequency = -109.7 cm-1
C    -2.43837   3.35882  -3.51026
N    -2.88471   2.02330  -3.85212
C    -4.16714   1.64685  -3.64601
O    -5.04893   2.45437  -3.32946
C    -4.44136   0.18531  -3.76466
C    -5.79516  -0.40098  -3.90759
O    -6.10250  -1.54124  -3.60796
O    -6.65779   0.47573  -4.42070
C    -8.02663   0.05255  -4.51086
O    -3.34185  -0.50688  -3.95368
C    -2.85126  -1.70926  -3.93190
C    -3.58347  -2.98072  -4.15982
C    -1.42677  -1.66612  -4.05475
N    -0.26567  -1.64192  -4.14300
C    -3.26741  -1.49052  -1.27793
C    -4.21105  -0.71609  -1.19531
C    -4.98487   0.22529  -0.34592
C    -6.25483   0.68968  -0.96097
N    -7.29106   1.03642  -1.34625
O    -5.28726  -0.38268   0.89566
C    -6.07839  -1.56592   0.85648
C    -4.05740   1.43109  -0.02678
C    -2.66791   1.03252   0.50427
C    -1.60733   0.64782  -0.56165
C    -0.99710  -0.75956  -0.52509
C    -2.03083  -1.96670  -0.61444
C    -1.40091  -3.13818  -1.25507
N    -0.90173  -4.05825  -1.75043
C    -2.42956  -2.39106   0.74892
N    -2.75204  -2.70239   1.81759
H    -1.42544   3.50711  -3.90473
H    -2.41815   3.51530  -2.41766
H    -3.10561   4.11289  -3.95051
H    -2.18236   1.30641  -3.99794
H    -8.39958  -0.24194  -3.52037
H    -8.58208   0.92039  -4.88406
H    -8.12121  -0.79088  -5.20972
H    -4.51279  -3.01394  -3.58246
H    -2.92909  -3.82242  -3.89862
H    -3.84514  -3.06116  -5.23081
H    -7.08639  -1.36208   0.45652
H    -6.16376  -1.91341   1.89400
H    -5.59938  -2.35081   0.24990
H    -4.59562   2.01856   0.73208
H    -3.97313   2.05510  -0.92679
H    -2.29609   1.90307   1.06419
H    -2.78832   0.23819   1.25629
H    -0.74489   1.32564  -0.46382
H    -2.00615   0.83290  -1.56851
H    -0.31794  -0.86506  -1.38132
H    -0.40563  -0.92352   0.38705
