36
Generated by autodE on: 2022-10-08. E = -1249.088836 Ha
C     2.10583   3.16099  -0.26594
N     1.41706   1.91125  -0.51569
C     2.08958   0.75594  -0.49450
O     3.31811   0.65136  -0.54389
C     1.19990  -0.52090  -0.46552
C     2.02330  -1.61792  -1.02763
N     2.60194  -2.51309  -1.48576
C     0.72574  -0.97549   0.95971
C     1.54611  -0.54228   2.20076
O     2.05972   0.60244   2.20318
O     1.58279  -1.38723   3.12748
C    -0.75728  -0.55247   1.02688
C    -0.98918   0.87061   1.59571
O    -1.10678   1.82631   0.77613
O    -1.03980   0.95071   2.83985
C    -1.19927  -0.71864  -0.45563
C    -1.55665  -2.14195  -0.69563
N    -1.75799  -3.26213  -0.92391
C    -2.47984   0.10885  -0.70918
O    -3.48229  -0.09284  -0.05717
O    -2.38251   0.97705  -1.69944
C    -3.51529   1.83516  -1.91554
N    -0.03737  -0.32763  -1.22352
C     0.00021  -0.58611  -2.65291
H     2.96296   3.27507  -0.94452
H     1.41126   3.99499  -0.42933
H     2.48077   3.20867   0.77149
H     0.41667   1.86664  -0.27775
H     0.73659  -2.07263   0.95141
H    -1.30323  -1.24765   1.67409
H    -3.25963   2.45665  -2.78076
H    -3.67730   2.46217  -1.02721
H    -4.41572   1.24007  -2.12173
H     0.84254  -0.03576  -3.09707
H    -0.92385  -0.22580  -3.11891
H     0.12183  -1.65973  -2.89248
