26
Generated by autodE on: 2022-10-08. E = -793.978530 Ha
C    -2.63907   0.45875   2.91071
N    -1.92819  -0.46477   2.04827
C    -1.34134  -0.06743   0.90661
O    -1.32602   1.10581   0.52347
C    -0.75435  -1.16425   0.06910
C    -1.22191  -2.48718   0.24358
N    -1.62221  -3.55925   0.43614
N     0.02831  -0.89835  -0.99617
C     0.04930  -1.88300  -2.10212
C     0.78847   0.22059  -1.09233
C     1.20781   0.67285  -2.36425
N     1.55667   1.07451  -3.39481
C     1.32750   0.89559   0.10614
O     1.35724   0.41335   1.22229
O     1.85935   2.07682  -0.21160
C     2.53465   2.78475   0.84014
H    -2.17881   1.45264   2.84244
H    -3.70130   0.54701   2.62750
H    -2.58113   0.10260   3.94731
H    -1.93627  -1.45118   2.29107
H     0.78241  -1.57729  -2.85253
H     0.34398  -2.85819  -1.69380
H    -0.95313  -1.94974  -2.54261
H     1.81109   3.10319   1.60450
H     2.99608   3.65776   0.36528
H     3.30275   2.14850   1.30137
