26
Generated by autodE on: 2022-10-13. E = -793.969651 Ha
C     4.54521   1.56416   0.69990
N     3.20310   1.05218   0.89532
C     2.37062   0.75945  -0.12010
O     2.64167   0.93947  -1.30970
C     1.06651   0.13620   0.31182
C     1.07998  -0.65637   1.48310
N     1.12466  -1.25210   2.48557
N    -0.08372   0.26088  -0.38276
C    -0.25189   1.43610  -1.27138
C    -1.09726  -0.65097  -0.28458
C    -0.79976  -1.99137   0.05415
N    -0.55513  -3.10780   0.28826
C    -2.52831  -0.36875  -0.49792
O    -3.34750  -1.26761  -0.59501
O    -2.83939   0.92558  -0.51525
C    -4.22055   1.25590  -0.73198
H     5.29629   0.83738   1.04751
H     4.70188   1.75743  -0.36712
H     4.68230   2.50164   1.25914
H     2.89618   0.88327   1.84903
H    -0.59414   2.28552  -0.66822
H    -0.97789   1.19655  -2.04988
H     0.71945   1.65358  -1.71919
H    -4.26781   2.35058  -0.73531
H    -4.84141   0.84845   0.07842
H    -4.56347   0.85468  -1.69625
