10
Generated by autodE on: 2022-10-08. E = -455.045353 Ha
O     0.87447  -1.51898   0.41114
C     1.50098  -0.44800   0.19462
O     2.65303  -0.35125  -0.31318
C     0.85584   0.86662   0.58581
C    -0.42340   1.22094   0.38197
C    -1.51617   0.36676  -0.23080
O    -2.59428   0.32494   0.42464
O    -1.29593  -0.20066  -1.33251
H     1.54289   1.59816   1.02935
H    -0.75754   2.20833   0.72563
