36
Generated by autodE on: 2022-10-08. E = -1249.007871 Ha. Imaginary frequency = -348.2 cm-1
C     2.96489   2.66525  -0.11128
N     1.95803   1.64918  -0.32979
C     2.30921   0.41360  -0.69551
O     3.45241   0.07214  -1.02172
C     1.18606  -0.60655  -0.61316
C     1.67964  -1.94714  -0.52317
N     2.13701  -3.01675  -0.47744
C     0.46478  -0.62510   1.56965
C     1.62849   0.17774   2.16275
O     1.38570   1.27202   2.72733
O     2.75509  -0.38172   2.07889
C    -0.86748  -0.24131   1.41432
C    -1.35930   1.17005   1.21703
O    -0.60571   1.99091   0.61162
O    -2.52511   1.41772   1.61409
C    -1.16473  -0.94691  -0.81861
C    -1.15088  -2.31869  -0.41564
N    -1.17796  -3.42999  -0.07060
C    -2.54685  -0.46175  -1.06806
O    -3.51340  -1.15278  -0.79024
O    -2.63639   0.78893  -1.50162
C    -3.95086   1.36601  -1.54501
N    -0.00756  -0.34511  -1.25554
C    -0.05806   0.72168  -2.28452
H     3.57029   2.83042  -1.01573
H     2.46731   3.60535   0.15932
H     3.64620   2.37462   0.70707
H     1.00644   1.78616   0.07303
H     0.61235  -1.69529   1.74593
H    -1.64621  -0.95981   1.67784
H    -3.81577   2.38020  -1.93707
H    -4.37117   1.40169  -0.53074
H    -4.60766   0.78330  -2.20550
H     0.92852   0.78767  -2.75244
H    -0.34819   1.68459  -1.85870
H    -0.78065   0.42126  -3.04876
