53
Generated by autodE on: 2022-10-22. E = -1628.526286 Ha
C    -2.89046   1.05289  -3.60793
N    -2.04433   1.05392  -2.43348
C    -2.54110   1.04340  -1.18877
O    -3.75636   1.08953  -0.95118
C    -1.51273   1.00731  -0.05556
N    -0.15535   1.16754  -0.55492
C     0.82154   0.60420   0.37557
C     1.06345   1.69394   1.47516
O     0.10340   2.20148   2.06391
N     2.31834   2.12245   1.67612
C     2.61351   3.16034   2.64448
C     2.10796   0.19918  -0.34085
C     2.30444   0.49181  -1.69578
C     3.48994   0.12463  -2.34163
C     4.49658  -0.54430  -1.64246
C     4.30774  -0.84791  -0.29001
C     3.12541  -0.48035   0.35419
C     0.05037  -0.63074   0.98319
Cl    0.55037  -0.82991   2.72428
C     0.22225  -1.97514   0.22618
C    -0.44742  -3.12389   1.00809
C    -1.96128  -2.78753   0.91351
C    -1.98698  -1.55200  -0.00997
C    -0.77922  -1.81368  -0.93048
C    -1.49964  -0.31410   0.79079
O    -2.11467  -0.13958   2.04084
C    -3.52005   0.04317   2.04239
H    -2.27814   1.26316  -4.49380
H    -3.39183   0.08030  -3.74861
H    -3.66968   1.82449  -3.52186
H    -1.03557   0.95321  -2.51723
H    -1.80492   1.80935   0.63914
H     0.05808   2.13899  -0.77630
H     3.08239   1.68475   1.17430
H     3.69266   3.35567   2.63764
H     2.31253   2.85422   3.65919
H     2.08021   4.09272   2.40144
H     1.52026   1.00281  -2.25359
H     3.62298   0.36356  -3.39951
H     5.42202  -0.83113  -2.14726
H     5.08300  -1.37853   0.26761
H     2.98624  -0.73721   1.40538
H     1.26022  -2.18275  -0.04840
H    -0.21691  -4.06842   0.49404
H    -0.08446  -3.20859   2.03850
H    -2.53284  -3.61026   0.46060
H    -2.40390  -2.57209   1.89460
H    -2.94891  -1.38617  -0.50783
H    -0.88859  -2.74233  -1.50935
H    -0.53981  -0.99510  -1.61553
H    -3.81820   0.95366   1.49979
H    -3.82077   0.13261   3.09601
H    -4.05180  -0.81388   1.59501
