32
Generated by autodE on: 2022-10-22. E = -781.410534 Ha
C     5.31460   1.45381   0.05304
N     3.87354   1.56440  -0.01850
C     3.06962   0.47747   0.05031
O     3.53063  -0.67976   0.16334
C     1.63846   0.72794  -0.01927
N     0.86225  -0.34528   0.06991
C    -0.45742  -0.56222   0.07683
C    -0.77711  -1.99109   0.23643
O     0.13375  -2.82446   0.43580
N    -2.06848  -2.37323   0.13498
C    -2.45790  -3.76329   0.24936
C    -1.43155   0.52685  -0.09507
C    -2.53628   0.65360   0.77158
C    -3.46779   1.67908   0.59652
C    -3.31157   2.60473  -0.43926
C    -2.21588   2.49499  -1.30265
C    -1.28615   1.46863  -1.13460
H     5.64645   1.04961   1.02422
H     5.70493   0.79015  -0.73522
H     5.75492   2.44984  -0.07857
H     3.44968   2.48306  -0.08928
H     1.20612   1.72081  -0.12101
H     1.39332  -1.22898   0.18230
H    -2.77566  -1.68191  -0.08690
H    -2.06315  -4.36980  -0.58319
H    -2.08660  -4.20155   1.18858
H    -3.55306  -3.82626   0.23987
H    -2.65739  -0.04985   1.59736
H    -4.31492   1.76018   1.28172
H    -4.03860   3.40904  -0.57284
H    -2.08808   3.21049  -2.11849
H    -0.44689   1.38512  -1.82779
