32
Generated by autodE on: 2022-10-26. E = -781.405031 Ha
C    -5.27489   0.41634  -1.76748
N    -4.24692   0.58024  -0.76190
C    -2.97210   0.18380  -0.97117
O    -2.61212  -0.36480  -2.03737
C    -2.03014   0.42917   0.11222
N    -0.78510   0.03678  -0.14496
C     0.39465   0.05779   0.50276
C     0.44130   0.62694   1.85565
O    -0.59603   0.89463   2.49553
N     1.66194   0.88929   2.38719
C     1.79660   1.46946   3.70627
C     1.55890  -0.45325  -0.24395
C     1.68864  -0.20154  -1.62761
C     2.75996  -0.72035  -2.35573
C     3.74024  -1.48983  -1.72134
C     3.62896  -1.74500  -0.35069
C     2.55062  -1.24217   0.37836
H    -6.23199   0.76072  -1.35710
H    -5.05294   0.99926  -2.67708
H    -5.37878  -0.63961  -2.06419
H    -4.47569   1.04156   0.11202
H    -2.28135   0.89804   1.05622
H    -0.74927  -0.38589  -1.08637
H     2.49642   0.72715   1.83678
H     2.86264   1.53063   3.95827
H     1.28895   0.85476   4.46640
H     1.36457   2.48335   3.75477
H     0.95212   0.42395  -2.13817
H     2.83653  -0.50735  -3.42471
H     4.58361  -1.88764  -2.29020
H     4.37989  -2.35640   0.15551
H     2.46311  -1.48524   1.43825
