21
Generated by autodE on: 2022-10-22. E = -847.064975 Ha
C     2.92983  -0.82538   0.55092
O     1.92936  -0.26733  -0.29931
C     0.71414  -0.03284   0.23997
C    -0.27234   0.69753  -0.32225
Cl   -0.22187   1.45996  -1.88708
C    -1.55548   0.42830   0.43911
C    -1.96273  -1.04409   0.10873
C    -0.82460  -1.87294   0.77428
C     0.08625  -0.77169   1.41620
C    -0.97537   0.25420   1.85771
H     3.85518  -0.85688  -0.03892
H     2.66774  -1.84888   0.86302
H     3.09030  -0.19982   1.44397
H    -2.34899   1.17340   0.30186
H    -2.94245  -1.28121   0.55059
H    -2.03348  -1.20335  -0.97683
H    -0.26355  -2.49017   0.05814
H    -1.21646  -2.53809   1.55823
H     0.77852  -1.13982   2.18197
H    -0.54055   1.17938   2.26201
H    -1.70015  -0.16595   2.57180
