53
Generated by autodE on: 2022-10-22. E = -1628.461147 Ha. Imaginary frequency = -332.7 cm-1
C    -4.38377   1.78992  -2.37355
N    -3.36380   1.91661  -1.35278
C    -2.11683   1.42989  -1.52319
O    -1.76431   0.89346  -2.59356
C    -1.18665   1.54171  -0.38526
N     0.11111   1.39770  -0.75399
C     1.16835   1.16751   0.06603
C     1.27103   2.02473   1.28429
O     0.29047   2.62213   1.75692
N     2.49284   2.15872   1.84402
C     2.65487   2.82612   3.11805
C     2.37808   0.60253  -0.58272
C     2.66925   0.85615  -1.93734
C     3.78537   0.28358  -2.55067
C     4.64392  -0.54655  -1.82431
C     4.37020  -0.80334  -0.47738
C     3.24976  -0.24127   0.13626
C     0.07072  -0.60034   1.22843
Cl    0.79238  -0.50492   2.84979
C     0.30251  -1.89206   0.45592
C    -0.41462  -3.02633   1.24908
C    -1.91989  -2.65716   1.10632
C    -1.88753  -1.38581   0.19928
C    -0.68834  -1.70907  -0.70875
C    -1.29848  -0.27983   1.07230
O    -1.97619   0.25888   2.12823
C    -3.37922   0.43172   1.98628
H    -5.33518   2.16006  -1.97240
H    -4.13123   2.37178  -3.27536
H    -4.51130   0.73865  -2.67592
H    -3.58957   2.38278  -0.48086
H    -1.42114   2.15816   0.47516
H     0.18418   0.99766  -1.69290
H     3.27773   1.64822   1.45863
H     3.70960   2.77202   3.41488
H     2.04003   2.34709   3.89799
H     2.35938   3.88539   3.05867
H     2.03076   1.52460  -2.51895
H     3.99001   0.49950  -3.60198
H     5.51935  -0.99006  -2.30392
H     5.02614  -1.45826   0.10098
H     3.03083  -0.48279   1.17692
H     1.34545  -2.10695   0.19453
H    -0.19361  -4.00003   0.78634
H    -0.07826  -3.06410   2.29402
H    -2.49042  -3.45761   0.61200
H    -2.39994  -2.45019   2.07337
H    -2.83649  -1.15084  -0.29762
H    -0.83743  -2.64130  -1.27343
H    -0.43156  -0.91310  -1.41184
H    -3.62627   1.00808   1.08481
H    -3.71987   0.98326   2.87276
H    -3.90454  -0.53634   1.94324
