23
Generated by autodE on: 2022-06-24. E = -351.521382 Ha
C     3.63708  -0.78926  -0.66894
C     2.57444  -0.07467  -0.23766
C     2.74918   1.27389   0.41273
C     1.22316  -0.60826  -0.39730
C     0.07854   0.00566  -0.00507
C    -1.23839  -0.56977  -0.18777
C    -2.42676  -0.02493   0.17636
C    -2.57923   1.30873   0.85131
C    -3.71638  -0.75166  -0.08192
H     3.50689  -1.76823  -1.14049
H     4.65878  -0.41424  -0.56222
H     2.33530   1.27874   1.43485
H     2.21247   2.05779  -0.14710
H     3.81046   1.55430   0.46861
H     1.15035  -1.59130  -0.87799
H     0.14301   0.98532   0.47594
H    -1.26174  -1.55258  -0.67403
H    -1.62810   1.82801   1.02579
H    -3.08846   1.18811   1.82390
H    -3.22621   1.96992   0.24810
H    -4.26208  -0.92813   0.86252
H    -3.55600  -1.72056  -0.57722
H    -4.38901  -0.14338  -0.71309
