28
Generated by autodE on: 2022-06-24. E = -795.253582 Ha
C    -2.20058   3.85106   0.89195
N    -1.88836   2.44582   0.72427
C    -0.71695   2.04453   0.21448
O     0.16897   2.81303  -0.18814
C    -0.49149   0.56698   0.13016
N     0.73491   0.26121  -0.21867
C     1.49418  -0.85788  -0.33824
C     1.04613  -2.14334   0.02531
N     0.72805  -3.22474   0.33039
C     2.86371  -0.60028  -0.78889
C     3.79442  -1.77169  -0.91551
O     3.20813   0.55730  -1.04355
C    -1.56908  -0.42414   0.42875
O    -2.26644  -0.29444   1.44435
N    -1.75939  -1.38817  -0.48336
C    -2.66345  -2.49799  -0.24483
H    -3.26343   3.95157   1.14253
H    -1.99725   4.40130  -0.03781
H    -1.60077   4.30780   1.69700
H    -2.47825   1.73725   1.15796
H     1.29996   1.11058  -0.44214
H     3.37166  -2.52596  -1.59817
H     4.76710  -1.43185  -1.29216
H     3.92598  -2.25923   0.06405
H    -1.15150  -1.43332  -1.29558
H    -3.61823  -2.13001   0.15465
H    -2.23140  -3.20960   0.47796
H    -2.84532  -3.01917  -1.19229
