28
Generated by autodE on: 2022-07-27. E = -795.247243 Ha
C    -2.18052   0.38035   2.69678
N    -1.59354   0.31714   1.37078
C    -0.41367   0.89968   1.10970
O     0.14314   1.68770   1.88551
C     0.12531   0.69036  -0.27009
N     0.13496  -0.44021  -0.93594
C    -0.00844  -1.75403  -0.57248
C    -0.20243  -2.67200  -1.63129
N    -0.37612  -3.43924  -2.49417
C     0.29043  -2.21582   0.77447
C     0.22255  -3.70211   1.01867
O     0.63115  -1.42718   1.66101
C     0.56174   1.84586  -1.12513
O     0.75875   1.65223  -2.33458
N     0.71267   3.02404  -0.51422
C     1.16659   4.19750  -1.23330
H    -1.58546  -0.19793   3.42273
H    -2.23097   1.42218   3.04242
H    -3.19529  -0.03306   2.65603
H    -1.94891  -0.38376   0.72628
H     0.35346  -0.25570  -1.93413
H     0.43016  -3.90212   2.07736
H     0.95951  -4.23311   0.39514
H    -0.77283  -4.09236   0.75388
H     0.62054   3.03548   0.50219
H     0.52404   4.39117  -2.10501
H     2.20072   4.07226  -1.59419
H     1.12721   5.06236  -0.56080
