50
Generated by autodE on: 2022-06-01. E = -1091.539839 Ha
C    -5.07438  -0.04678   1.39728
N    -3.72993  -0.55329   1.21747
C    -2.64035   0.23918   1.26995
O    -2.67187   1.45429   1.47249
N    -1.40849  -0.45087   1.17818
O    -1.51878  -1.77651   0.66745
N    -0.92239  -1.73143  -0.63934
C    -1.94209  -1.32291  -1.61589
C     0.11750  -0.72952  -0.46132
C    -0.18224   0.06109   0.59527
C     0.57535   1.17740   1.31720
C     0.26378   1.11774   2.82556
C     0.15186   2.55530   0.75904
C     2.11024   1.08521   1.13105
C     2.85639  -0.14470   1.65293
C     2.44734  -1.51181   1.10015
C     2.46283  -1.67463  -0.42094
C     1.38684  -0.91963  -1.27205
C     1.14753  -1.77578  -2.54921
C     1.92578   0.37756  -1.88235
O     3.11338   0.59357  -2.13025
O     0.94171   1.20442  -2.25595
C     1.32337   2.39583  -2.95839
H    -5.72951  -0.40312   0.58849
H    -5.50428  -0.36951   2.36008
H    -5.05252   1.04935   1.37655
H    -3.58810  -1.53696   1.01457
H    -1.48766  -1.34444  -2.61332
H    -2.32384  -0.30366  -1.43358
H    -2.76791  -2.04648  -1.59375
H     0.48790   0.12830   3.25009
H    -0.79089   1.34631   3.02527
H     0.88055   1.86284   3.35157
H    -0.93196   2.69534   0.83191
H     0.65078   3.35253   1.33282
H     0.45066   2.65440  -0.29313
H     2.36739   1.25734   0.08114
H     2.52048   1.96607   1.65123
H     2.77989  -0.17958   2.75233
H     3.92634   0.01480   1.43234
H     3.15119  -2.25836   1.50525
H     1.45874  -1.80081   1.48977
H     3.44858  -1.39885  -0.82589
H     2.32765  -2.74547  -0.63353
H     0.68380  -2.73290  -2.28222
H     0.51045  -1.25735  -3.27826
H     2.11846  -1.97419  -3.02447
H     1.99166   3.01026  -2.33883
H     0.39203   2.93638  -3.16186
H     1.82941   2.13885  -3.90017
