50
Generated by autodE on: 2022-06-01. E = -1091.406657 Ha. Imaginary frequency = -118.1 cm-1
C    -5.41682   0.60627   0.63794
N    -4.17945  -0.13210   0.46981
C    -3.13019   0.07284   1.30968
O    -3.17061   0.91512   2.21872
N    -2.04405  -0.79680   1.23559
O    -1.76484  -1.40899   0.05634
N    -1.46222  -0.82955  -1.05520
C    -1.83391   0.54486  -1.22564
C     0.85600  -0.27291  -0.22353
C     0.62682   0.18690   0.88795
C     0.92444   0.85032   2.16682
C     0.65673  -0.07265   3.36429
C     0.11515   2.15118   2.31253
C     2.44013   1.21491   2.04146
C     3.47683   0.08173   1.95861
C     3.38316  -0.99643   0.85619
C     3.23194  -0.50504  -0.60047
C     1.82543  -0.76817  -1.22770
C     1.62536  -2.25987  -1.53868
C     1.65948   0.10028  -2.48670
O     2.24409   1.14623  -2.68274
O     0.76198  -0.39792  -3.33642
C     0.45574   0.38959  -4.49649
H    -6.07750   0.38137  -0.20896
H    -5.93746   0.33802   1.57317
H    -5.22027   1.68817   0.65524
H    -4.19109  -0.95877  -0.11893
H    -1.24122   0.92306  -2.06654
H    -1.69069   1.16640  -0.33092
H    -2.90487   0.58357  -1.50132
H     1.17426  -1.03740   3.25828
H    -0.42092  -0.27025   3.45718
H     1.00636   0.40880   4.29118
H    -0.96136   1.93856   2.36626
H     0.41499   2.67238   3.23537
H     0.29743   2.82575   1.46165
H     2.54264   1.87482   1.16488
H     2.69286   1.83124   2.92152
H     3.51025  -0.44460   2.92753
H     4.45730   0.58057   1.86327
H     4.30675  -1.59269   0.92936
H     2.57062  -1.69723   1.09997
H     3.42816   0.57452  -0.65738
H     3.97306  -0.99326  -1.25315
H     1.80164  -2.85323  -0.63037
H     0.60636  -2.46088  -1.88891
H     2.33995  -2.58291  -2.31051
H     0.08314   1.38018  -4.19880
H    -0.32118  -0.16175  -5.03827
H     1.34890   0.50832  -5.12647
