37
Generated by autodE on: 2022-06-19. E = -1079.550992 Ha
C     2.29006  -1.30312   2.71885
N     2.07966  -1.27167   1.28309
C     1.89051  -0.08833   0.66255
O     2.19337   1.00347   1.15173
N     1.39430  -0.16442  -0.64796
C     0.75895   1.01609  -1.26352
C     1.21317   2.36653  -0.71257
O     2.22734   2.89559  -1.13920
C     0.31017   3.07885   0.21609
C    -0.97915   2.73728   0.39203
C    -1.60650   1.58224  -0.27649
O    -2.80127   1.34727  -0.16191
C    -0.75376   0.71130  -1.18215
C    -0.79638  -0.80980  -0.78258
C    -1.76101  -1.53956  -1.60115
N    -2.55496  -2.10528  -2.22911
C    -1.09004  -0.99235   0.73849
O    -0.77833  -0.09216   1.51819
N    -1.60041  -2.16426   1.12045
C    -1.73966  -2.50311   2.52686
N     0.61143  -1.28926  -0.97088
C     0.92495  -1.83004  -2.29710
H     2.47968  -2.33885   3.02689
H     3.16040  -0.69178   2.99421
H     1.41173  -0.92291   3.26776
H     1.61791  -2.06589   0.84813
H     1.06023   1.03155  -2.31886
H     0.73756   3.95725   0.70636
H    -1.63887   3.31826   1.04154
H    -1.19380   0.81950  -2.18291
H    -1.77218  -2.88867   0.42927
H    -0.75808  -2.70457   2.98619
H    -2.36727  -3.39763   2.61531
H    -2.21331  -1.67397   3.07009
H     1.99881  -2.05270  -2.32194
H     0.37429  -2.76868  -2.43930
H     0.67625  -1.13960  -3.12241
