25
Generated by autodE on: 2022-07-27. E = -697.866800 Ha
C     4.45035  -0.03545   1.34314
N     3.03374  -0.29797   1.21004
C     2.34289   0.08796   0.11521
O     2.87369   0.63720  -0.85701
N     0.97136  -0.14766   0.28177
N     0.21518  -0.25921  -0.76228
C     0.75417  -0.57982  -2.11403
C    -1.11909  -0.14973  -0.62183
C    -1.98046  -0.46842  -1.69344
N    -2.75821  -0.70890  -2.53092
C    -1.73140   0.38696   0.64609
O    -1.25075   1.34161   1.25630
N    -2.87329  -0.22247   1.01274
C    -3.64352   0.24028   2.15145
H     4.82464  -0.54765   2.23797
H     4.66156   1.04339   1.44031
H     5.00103  -0.40844   0.46642
H     2.51104  -0.66526   1.99783
H    -0.02335  -1.09071  -2.68843
H     1.62376  -1.23199  -1.99865
H     1.04544   0.35303  -2.60795
H    -3.19866  -1.03118   0.49195
H    -4.58229  -0.32420   2.19668
H    -3.09350   0.09252   3.09476
H    -3.87344   1.31240   2.05657
