37
Generated by autodE on: 2022-06-19. E = -1079.496678 Ha. Imaginary frequency = -378.7 cm-1
C     4.60230  -1.07659   1.23249
N     3.19033  -1.03039   0.90062
C     2.69150  -0.06077   0.10852
O     3.35978   0.83510  -0.39929
N     1.27983  -0.11308  -0.03169
C     0.46893   1.41010  -0.95183
C     0.39259   2.32130   0.23939
O     1.37782   2.91494   0.65597
C    -0.92452   2.47728   0.89793
C    -2.05079   2.00711   0.33377
C    -2.02932   1.25974  -0.95133
O    -3.08897   0.93206  -1.49712
C    -0.72716   0.92151  -1.50569
C    -0.61045  -1.26345  -0.37831
C    -1.36997  -2.04862  -1.28968
N    -2.04997  -2.65452  -2.01496
C    -1.20761  -0.99357   0.98963
O    -0.50446  -0.84701   1.98696
N    -2.55211  -0.97754   1.03044
C    -3.25644  -0.68798   2.26591
N     0.73370  -1.19716  -0.54550
C     1.35699  -1.85764  -1.70555
H     4.81501  -2.02820   1.73507
H     4.89389  -0.24909   1.90060
H     5.21264  -1.01305   0.32017
H     2.53931  -1.61953   1.41064
H     1.33572   1.56979  -1.59568
H    -0.93067   3.03863   1.83514
H    -3.03340   2.15707   0.78721
H    -0.72931   0.46990  -2.49935
H    -3.08561  -1.01622   0.16659
H    -4.32533  -0.58797   2.04417
H    -3.11770  -1.49631   3.00064
H    -2.89094   0.24888   2.71351
H     1.10773  -1.28775  -2.61477
H     0.98562  -2.88514  -1.78435
H     2.44234  -1.87687  -1.56584
