39
Generated by autodE on: 2022-07-27. E = -827.702443 Ha
C     1.95286  -2.62808  -1.74167
C     0.78477  -1.75886  -1.30390
O    -0.37669  -2.17675  -1.58299
C     1.02588  -0.55451  -0.59764
C     2.31099   0.07646  -0.28231
C     2.45089   0.80025   0.92676
C     3.64925   1.42749   1.26743
C     4.75789   1.34813   0.41725
C     4.63804   0.64617  -0.78722
C     3.43487   0.03216  -1.13899
N    -0.13541   0.15839  -0.16749
C    -0.30469   1.51705  -0.71004
C    -1.06089  -0.41601   0.57118
C    -0.78539  -1.68247   1.29211
C    -2.42119   0.15516   0.65452
C    -3.01063   0.43370   1.89948
C    -4.30630   0.94839   1.96017
C    -5.03458   1.16116   0.78473
C    -4.46231   0.85942  -0.45553
C    -3.16049   0.36329  -0.52396
H     2.24202  -2.39893  -2.78083
H     1.61223  -3.67401  -1.71991
H     2.84416  -2.52246  -1.10941
H     1.60168   0.86025   1.61183
H     3.72059   1.97527   2.21083
H     5.69873   1.83470   0.68471
H     5.48693   0.59174  -1.47398
H     3.35814  -0.46395  -2.10609
H    -0.69581   1.46311  -1.73516
H    -0.98007   2.10660  -0.08058
H     0.67966   1.99745  -0.73611
H    -1.08684  -2.52801   0.64872
H    -1.37911  -1.72892   2.21503
H     0.28766  -1.79603   1.50250
H    -2.44458   0.26557   2.81802
H    -4.75137   1.18065   2.93020
H    -6.05201   1.55557   0.83600
H    -5.03361   1.00758  -1.37464
H    -2.71639   0.10708  -1.48722
