31
Generated by autodE on: 2022-07-27. E = -817.557076 Ha
C    -1.89594  -3.72440  -0.74472
N    -0.84058  -3.10426   0.03362
C    -0.86961  -1.79390   0.32389
O    -1.81525  -1.05811   0.01938
C     0.28763  -1.28188   1.13063
C     0.92201  -2.13429   2.17611
N     0.68935  -0.04073   0.99574
C     0.42692   0.94550   0.05675
C     0.61584   2.32817   0.48356
O     0.74596   3.28143  -0.30419
N     0.69955   2.53621   1.84047
C     0.90065   3.87626   2.35662
C     0.11727   0.62142  -1.31817
O    -0.38049   1.37775  -2.14421
O     0.48416  -0.64215  -1.65610
C     0.05468  -1.11709  -2.93171
H    -1.94381  -3.29683  -1.75946
H    -1.69436  -4.79939  -0.82101
H    -2.87530  -3.57658  -0.26548
H    -0.02692  -3.65628   0.28399
H     1.56652  -1.53323   2.83412
H     0.15869  -2.64723   2.78084
H     1.55403  -2.91400   1.71419
H     1.33732   0.26460   1.73128
H     0.22860   1.88432   2.45897
H     1.05657   3.82036   3.44190
H     0.03951   4.53845   2.15798
H     1.78774   4.33529   1.89767
H     0.38142  -2.16211  -2.99379
H     0.51194  -0.53455  -3.74528
H    -1.04058  -1.06019  -3.01843
