30
Generated by autodE on: 2022-06-07. E = -1462.564585 Ha
Cl   -1.81904  -1.82243   3.00442
C    -0.80348  -1.70336   1.49255
Cl    0.86786  -2.34372   1.90512
C    -0.68207  -0.34492   1.02230
C    -0.58657   0.49562   0.15255
C    -0.54358   1.11802  -1.16359
C     0.53514   2.16894  -1.35071
C     1.78017   2.04972  -0.71617
C     2.78589   2.99263  -0.94403
C     2.56012   4.06524  -1.81330
C     1.32230   4.18861  -2.45200
C     0.31683   3.24491  -2.22155
C    -0.36500  -0.06878  -2.16648
C    -1.28355  -1.28951  -1.95009
C    -0.78942  -2.42726  -1.01069
C    -1.43031  -2.56662   0.38459
H    -1.52462   1.58301  -1.35746
H     1.96010   1.21325  -0.03583
H     3.74981   2.88975  -0.43961
H     3.34570   4.80382  -1.98984
H     1.13640   5.02493  -3.13032
H    -0.65137   3.34471  -2.71943
H    -0.53158   0.34690  -3.17258
H     0.68901  -0.38897  -2.12661
H    -1.42626  -1.74140  -2.94384
H    -2.28610  -0.95048  -1.63710
H    -0.99655  -3.38141  -1.51844
H     0.30722  -2.38435  -0.90591
H    -2.49450  -2.28702   0.33610
H    -1.38210  -3.61164   0.72492
