61
Generated by autodE on: 2022-06-07. E = -2280.117863 Ha. Imaginary frequency = -264.9 cm-1
C     4.43081 -22.61256  -6.01785
N     5.46245 -21.88887  -5.30174
C     5.80176 -20.62975  -5.66565
O     5.33026 -20.11951  -6.68946
C     6.73692 -19.92608  -4.73118
C     7.53491 -20.72608  -3.74269
N     7.23540 -18.70570  -5.00622
C     6.70219 -17.69416  -5.75028
C     7.12446 -16.32315  -5.34893
O     7.32170 -15.42202  -6.17204
N     7.32836 -16.14463  -4.01372
C     7.62757 -14.82678  -3.49021
C     6.47770 -17.86708  -7.20994
O     5.69268 -17.23156  -7.88171
O     7.37657 -18.71615  -7.74595
C     7.20302 -19.02444  -9.13109
C     4.57319 -17.99271  -4.49833
C     4.82726 -18.96961  -3.76521
C     4.51111 -19.85078  -2.62080
C     5.46429 -19.64477  -1.45402
C     5.95829 -18.37177  -1.13663
C     6.81498 -18.18952  -0.04735
C     7.18326 -19.28088   0.74608
C     6.68246 -20.55208   0.44620
C     5.82907 -20.73044  -0.64622
C     3.03780 -19.64158  -2.17573
C     2.04046 -19.58178  -3.34633
C     1.45662 -18.18916  -3.62645
C     2.40304 -16.98690  -3.74023
C     3.50949 -17.03698  -4.80670
Cl    4.16964 -15.32244  -4.93774
Cl    2.75217 -17.45036  -6.42372
H     4.67707 -22.69047  -7.08726
H     4.35021 -23.62218  -5.59704
H     3.45221 -22.11065  -5.93105
H     5.78822 -22.26754  -4.42078
H     8.08810 -20.06161  -3.06458
H     6.90083 -21.36987  -3.12169
H     8.25836 -21.37522  -4.26500
H     7.87049 -18.38382  -4.27346
H     6.83911 -16.77495  -3.38518
H     7.89312 -14.91486  -2.42867
H     6.76381 -14.14533  -3.58506
H     8.47389 -14.38346  -4.03232
H     7.99095 -19.74403  -9.38453
H     7.30448 -18.12157  -9.75117
H     6.21375 -19.47411  -9.30226
H     4.60599 -20.89689  -2.94934
H     5.66505 -17.51476  -1.74727
H     7.19644 -17.19119   0.18071
H     7.85698 -19.14156   1.59485
H     6.96272 -21.41053   1.06157
H     5.44835 -21.72697  -0.88515
H     2.79071 -20.46522  -1.48841
H     2.98361 -18.71737  -1.57891
H     1.19049 -20.25131  -3.14013
H     2.51439 -19.97762  -4.25937
H     0.76406 -17.93225  -2.80674
H     0.84245 -18.24003  -4.53882
H     1.79127 -16.09790  -3.95210
H     2.91665 -16.79978  -2.78458
