46
Generated by autodE on: 2022-06-20. E = -1072.218578 Ha
C     2.16313  -3.39026   1.36447
N     1.40164  -2.22210   0.97851
C     1.91654  -1.16456   0.34458
O     3.10026  -1.04830   0.00455
C     0.90091  -0.04075   0.01219
C     1.71274   1.25822   0.22550
O     2.10772   1.62238   1.31429
O     1.97981   1.92261  -0.89629
C     2.73819   3.13371  -0.76557
C     0.35507  -0.16753  -1.44741
C     1.19529  -0.99000  -2.41584
C    -1.08192  -0.67857  -1.28612
C    -1.98327  -0.39890  -2.47854
C    -1.51927  -0.04512   0.08192
C    -1.92156   1.44448  -0.12783
C    -3.34064   1.89111  -0.31696
O    -1.01456   2.26230  -0.13017
C    -2.62736  -0.96713   0.62134
C    -2.22738  -2.16157   1.44942
O    -3.78757  -0.80209   0.28776
N    -0.29482  -0.13478   0.85721
C    -0.30522   0.43629   2.19389
H     3.11869  -3.39052   0.82517
H     1.60949  -4.30623   1.11169
H     2.37113  -3.39758   2.44704
H     0.42124  -2.13188   1.23574
H     2.18667   3.86245  -0.15432
H     2.87321   3.51612  -1.78370
H     3.71316   2.92777  -0.30125
H     0.28984   0.85286  -1.84038
H     1.25981  -2.04477  -2.10685
H     2.21610  -0.59059  -2.48865
H     0.74648  -0.95944  -3.41981
H    -1.04500  -1.76634  -1.11535
H    -3.01827  -0.71288  -2.27862
H    -1.62828  -0.96097  -3.35483
H    -1.98672   0.66966  -2.74473
H    -3.91402   1.68838   0.60060
H    -3.83703   1.33851  -1.12447
H    -3.34170   2.96916  -0.52676
H    -1.67664  -1.87513   2.35503
H    -1.56978  -2.81927   0.85925
H    -3.13279  -2.71830   1.72239
H     0.54472   0.05273   2.77437
H    -0.26080   1.53770   2.20902
H    -1.22967   0.13397   2.70690
