12
Generated by autodE on: 2022-06-20. E = -157.300302 Ha
C    -1.96026  -0.00400  -0.12208
C    -0.53677  -0.35174   0.19197
C     0.53678   0.35170  -0.19205
C     1.96026   0.00403   0.12213
H    -2.03243   0.91412  -0.72618
H    -2.45930  -0.81947  -0.67518
H    -2.54871   0.14523   0.80077
H    -0.37995  -1.26111   0.78896
H     0.37996   1.26106  -0.78904
H     2.03246  -0.91441   0.72573
H     2.45901   0.81928   0.67586
H     2.54896  -0.14451  -0.80066
