34
Generated by autodE on: 2022-07-27. E = -914.853875 Ha
C     4.29661  -1.14525   0.87569
N     2.97196  -1.00698   0.29626
C     2.02376  -0.26940   0.87990
O     2.15424   0.30815   1.96328
C     0.71211  -0.15312   0.13452
C     0.70555   0.62886  -1.13617
O    -0.10099   0.51825  -2.03637
O     1.76858   1.43079  -1.17397
C     1.95610   2.20899  -2.36833
N    -0.37230  -0.73460   0.60769
C    -0.21268  -1.79400   1.63143
C    -1.64650  -0.29142   0.26163
C    -1.90245   1.14308   0.19661
C    -0.97664   2.12617   0.89976
O    -2.91699   1.59798  -0.34347
C    -2.63122  -1.32479  -0.04738
C    -4.07428  -0.95361  -0.27759
O    -2.28470  -2.51147  -0.13441
H     4.84660  -1.91460   0.32137
H     4.22314  -1.44489   1.93111
H     4.85525  -0.19676   0.82406
H     2.78434  -1.40739  -0.61876
H     2.10236   1.54597  -3.23258
H     1.08256   2.85384  -2.53869
H     2.85249   2.81342  -2.19244
H     0.36818  -1.36896   2.45939
H    -1.19593  -2.09428   1.99495
H     0.32020  -2.64995   1.20159
H    -0.23003   1.68150   1.56822
H    -1.62769   2.79868   1.47835
H    -0.45550   2.74954   0.15593
H    -4.66580  -1.87934  -0.28682
H    -4.45257  -0.26175   0.48761
H    -4.18150  -0.44412  -1.24708
