34
Generated by autodE on: 2022-06-20. E = -914.856620 Ha
C     3.74157  -2.10862   0.93684
N     2.49164  -1.37517   0.83822
C     1.96205  -1.05100  -0.34428
O     2.46189  -1.30951  -1.44091
C     0.66196  -0.28340  -0.29747
C     0.72631   1.13746  -0.77488
O    -0.15101   1.69967  -1.39094
O     1.92009   1.65230  -0.50687
C     2.15266   3.00385  -0.93816
N    -0.47588  -0.88419  -0.06515
C    -0.49852  -2.35039   0.11898
C    -1.61740  -0.15235   0.34001
C    -1.34640   0.85063   1.34765
C    -2.48999   1.45759   2.12291
O    -0.18336   1.21699   1.60959
C    -2.91263  -0.45040  -0.22401
C    -2.98681  -1.27695  -1.49799
O    -3.97225  -0.00230   0.24289
H     4.53972  -1.58965   0.38515
H     4.02418  -2.18195   1.99332
H     3.63846  -3.12339   0.52123
H     1.99105  -1.11447   1.68377
H     1.43906   3.68099  -0.44778
H     2.04586   3.07849  -2.02939
H     3.17804   3.24242  -0.63566
H     0.14963  -2.83076  -0.62327
H    -0.16263  -2.58593   1.13786
H    -1.52487  -2.70613   0.00080
H    -3.09138   2.09271   1.45389
H    -2.06996   2.07235   2.93011
H    -3.16874   0.69530   2.52616
H    -2.03186  -1.38501  -2.02779
H    -3.38189  -2.27926  -1.26502
H    -3.71497  -0.79073  -2.16384
