46
Generated by autodE on: 2022-06-20. E = -1072.125155 Ha. Imaginary frequency = -344.1 cm-1
C     4.36748  -1.26883   0.95901
N     3.01960  -1.13031   0.43772
C     2.17780  -0.21309   0.91892
O     2.45371   0.53247   1.86534
C     0.81734  -0.02763   0.23725
C     0.90969   1.19635  -0.63330
O     0.07553   2.06538  -0.77253
O     2.08394   1.21597  -1.27632
C     2.31705   2.31742  -2.16606
C     0.30280  -1.29865  -1.43296
C     0.44235  -2.71199  -0.91575
C    -0.99875  -0.84881  -1.73656
C    -1.29878   0.23485  -2.71900
C    -1.55686  -0.05851   0.51736
C    -2.03676   1.34582   0.43459
C    -1.51967   2.29978   1.49145
O    -2.94749   1.69422  -0.31522
C    -2.55482  -1.13636   0.63805
C    -3.99007  -0.86365   0.24631
O    -2.24886  -2.27840   1.00215
N    -0.27588  -0.28925   1.02728
C    -0.07019  -1.05952   2.26594
H     4.83478  -2.14789   0.49954
H     4.34684  -1.40265   2.05021
H     4.97699  -0.37868   0.73281
H     2.75570  -1.65080  -0.39010
H     1.58599   2.30628  -2.98719
H     3.33036   2.17488  -2.55796
H     2.24720   3.27058  -1.62335
H     1.10717  -0.92104  -2.07270
H    -0.24671  -2.88869  -0.07970
H     1.45876  -2.97150  -0.59348
H     0.17409  -3.42149  -1.71792
H    -1.80803  -1.56164  -1.57096
H    -2.03817   0.94935  -2.32440
H    -1.74727  -0.21763  -3.62199
H    -0.40077   0.78710  -3.02581
H    -0.49106   2.08936   1.80561
H    -2.17193   2.18094   2.37515
H    -1.60793   3.33438   1.13339
H    -4.56638  -1.78022   0.42842
H    -4.42043  -0.03153   0.82203
H    -4.06201  -0.58904  -0.81558
H     0.49999  -0.44049   2.97073
H    -1.03764  -1.29790   2.70914
H     0.48029  -1.99235   2.08293
