48
Generated by autodE on: 2022-05-30. E = -999.900329 Ha
C     1.88557  -3.25716   1.95562
N     2.98095  -2.57278   1.29400
C     2.91782  -1.62315   0.33897
O     3.94110  -1.20072  -0.22809
C     1.59341  -1.07913  -0.05839
C     0.70026  -0.43570   0.71007
C     0.75806  -0.17740   2.17699
C    -0.40006   0.15851  -0.17700
C    -1.78300  -0.13855   0.41722
C    -2.27755   0.62223   1.48967
C    -3.50350   0.31331   2.08266
C    -4.26404  -0.76155   1.60962
C    -3.78129  -1.52407   0.54327
C    -2.54873  -1.21689  -0.04286
C    -0.16345   1.67359  -0.37210
C    -1.21252   2.52062  -0.76326
C    -0.98129   3.86639  -1.05776
C     0.31024   4.39503  -0.96867
C     1.36531   3.56123  -0.58938
C     1.13031   2.21400  -0.29714
N    -0.18046  -0.57520  -1.44442
C    -0.73405  -0.00900  -2.65426
C     1.21796  -0.99699  -1.51993
C     1.41761  -2.29823  -2.29226
H     0.95048  -3.08815   1.40960
H     2.08526  -4.33873   1.97504
H     1.75097  -2.91387   2.99353
H     3.92646  -2.87027   1.52649
H     0.58933   0.89084   2.38598
H     1.73040  -0.46024   2.60043
H    -0.02910  -0.73354   2.71096
H    -1.70200   1.47001   1.86380
H    -3.86791   0.91801   2.91681
H    -5.22600  -1.00068   2.06942
H    -4.36530  -2.36594   0.16279
H    -2.16748  -1.81588  -0.86922
H    -2.22612   2.12487  -0.84179
H    -1.81577   4.50463  -1.35884
H     0.49236   5.44840  -1.19466
H     2.38063   3.95900  -0.51765
H     1.96830   1.57809  -0.00806
H    -0.22150   0.91491  -2.99281
H    -0.66950  -0.74471  -3.47021
H    -1.79835   0.22758  -2.51016
H     1.84936  -0.21445  -2.00038
H     0.85459  -3.12055  -1.82342
H     1.08469  -2.19653  -3.33617
H     2.48526  -2.56590  -2.30898
