34
Generated by autodE on: 2022-05-30. E = -674.955708 Ha
C    -0.97557   2.80737   1.18913
C    -0.06539   2.82814   0.03095
N     0.51860   1.75166  -0.47563
C     1.54751   2.00935  -1.51195
C     0.17853   0.43121  -0.16500
C    -1.22257   0.05465  -0.04005
C    -2.25801   0.74643  -0.72351
C    -3.58795   0.33312  -0.65191
C    -3.95569  -0.77816   0.11553
C    -2.95549  -1.46422   0.81754
C    -1.62516  -1.05722   0.74778
C     1.27937  -0.51510  -0.01044
C     1.16126  -1.88430  -0.36280
C     2.23099  -2.76554  -0.22565
C     3.47015  -2.32104   0.25728
C     3.61246  -0.97420   0.60668
C     2.53837  -0.09152   0.48638
H    -0.68777   2.00979   1.89530
H    -2.02567   2.59198   0.90188
H    -0.96196   3.78559   1.69225
H     0.15439   3.76944  -0.47751
H     2.36031   2.62541  -1.10639
H     1.06883   2.54526  -2.34365
H     1.94517   1.06193  -1.88316
H    -2.00897   1.61195  -1.34140
H    -4.34821   0.88920  -1.20750
H    -4.99898  -1.09607   0.17471
H    -3.21765  -2.32404   1.44046
H    -0.87523  -1.60142   1.32365
H     0.21801  -2.25258  -0.76925
H     2.10234  -3.81227  -0.51453
H     4.30779  -3.01470   0.35992
H     4.56709  -0.60738   0.99368
H     2.66737   0.94689   0.79846
