48
Generated by autodE on: 2022-05-30. E = -999.790334 Ha. Imaginary frequency = -229.1 cm-1
C     1.50679  -3.88264   0.43184
N     2.74921  -3.23260   0.06529
C     2.95243  -1.88858   0.04322
O     4.00090  -1.40027  -0.42879
C     1.90625  -1.06868   0.58921
C     1.16124  -0.38121   1.30505
C     0.73319   0.23095   2.56749
C    -0.58511   0.37422  -0.29806
C    -1.82094   0.04533   0.45254
C    -2.91213   0.93662   0.51592
C    -4.07279   0.61383   1.22165
C    -4.18276  -0.61479   1.88110
C    -3.11289  -1.51524   1.82672
C    -1.94970  -1.18689   1.13129
C    -0.19497   1.79305  -0.44724
C     0.29042   2.33888  -1.65879
C     0.60571   3.69230  -1.77696
C     0.44790   4.56224  -0.69238
C    -0.04958   4.04880   0.50974
C    -0.36672   2.69573   0.62913
N    -0.16463  -0.54784  -1.25851
C    -1.06460  -1.61925  -1.71861
C     1.10721  -0.60360  -1.66320
C     1.59959  -1.53453  -2.71573
H     1.13917  -3.51086   1.39837
H     0.71292  -3.73102  -0.31950
H     1.68672  -4.96143   0.52796
H     3.44461  -3.77381  -0.44112
H     0.96567   1.30665   2.57868
H     1.26001  -0.23512   3.41712
H    -0.34833   0.12173   2.73483
H    -2.85546   1.89249  -0.00681
H    -4.90280   1.32460   1.24628
H    -5.09094  -0.86706   2.43356
H    -3.17943  -2.47680   2.34201
H    -1.11460  -1.88902   1.11888
H     0.41488   1.70018  -2.53396
H     0.97267   4.07186  -2.73429
H     0.70145   5.62070  -0.78496
H    -0.19356   4.70838   1.36955
H    -0.76799   2.33137   1.57348
H    -0.93392  -1.75241  -2.79920
H    -0.84658  -2.57033  -1.21340
H    -2.10221  -1.33660  -1.52788
H     1.72712   0.25310  -1.42034
H     1.28968  -2.57655  -2.54917
H     1.24628  -1.23689  -3.72111
H     2.69687  -1.49976  -2.72896
