44
Generated by autodE on: 2022-06-02. E = -1385.825770 Ha
C     3.24896   2.64978  -0.31285
N     2.43938   1.54180   0.15473
C     1.10447   1.61989   0.19682
O     0.50288   2.66046  -0.09562
C     0.33238   0.37663   0.69414
C     1.03411  -0.09304   2.05505
C     0.25000  -1.18010   2.76336
C     0.43441  -2.29152   2.04386
C     1.30820  -1.86504   0.88481
O     2.12013  -0.84961   1.48914
C     0.46412  -0.96440  -0.12480
C     1.21615  -0.93991  -1.46125
F     0.92889  -2.06090  -2.15716
F     2.55229  -0.92298  -1.30777
F     0.90202   0.10004  -2.24367
C    -1.01241  -1.38383  -0.37201
C    -1.23633  -2.83552  -0.28933
N    -1.44308  -3.97644  -0.26961
N    -1.79780  -0.65502   0.61594
C    -3.23465  -0.72187   0.40113
C    -1.19660   0.67978   0.78327
C    -1.58941   1.33126   2.10890
C    -1.66431   1.55071  -0.41527
O    -1.54493   1.20560  -1.57513
O    -2.37649   2.61852  -0.05312
C    -2.88572   3.43716  -1.11328
H     3.08322   3.54964   0.29955
H     3.00946   2.90084  -1.35864
H     4.30615   2.36511  -0.24886
H     2.87633   0.66294   0.41966
H     1.39611   0.73926   2.66524
H    -0.35209  -1.04332   3.65905
H     0.01339  -3.28348   2.19131
H     1.91436  -2.63565   0.40009
H    -1.29765  -1.10326  -1.40314
H    -3.56757  -1.76811   0.47368
H    -3.54842  -0.33371  -0.58792
H    -3.75431  -0.15394   1.18397
H    -2.66341   1.55099   2.13628
H    -1.04863   2.27887   2.23173
H    -1.35631   0.67547   2.95325
H    -2.05549   3.84410  -1.70922
H    -3.55393   2.85739  -1.76610
H    -3.43913   4.25034  -0.62949
