23
Generated by autodE on: 2022-06-02. E = -852.834027 Ha
C     2.99723   0.58228   0.03325
N     2.61564  -0.79087   0.30795
C     1.43058  -1.38307   0.09591
O     1.21101  -2.57474   0.36101
C     0.31838  -0.62295  -0.52962
C    -0.41879   0.43016  -0.15769
C    -0.30315   1.34272   1.00632
F    -1.48094   1.42385   1.66006
F     0.62151   0.94406   1.89765
F     0.02096   2.59835   0.63527
C    -1.65552   0.41623  -1.09717
C    -2.49681  -0.81092  -0.68182
C    -1.76559  -1.86587  -1.05298
C    -0.49772  -1.26091  -1.69201
O    -1.03345  -0.07454  -2.29212
H     3.99041   0.60056  -0.43808
H     2.28117   1.04589  -0.65515
H     3.03656   1.18467   0.95366
H     3.31176  -1.39182   0.74554
H    -2.17106   1.37009  -1.24835
H    -3.44231  -0.76514  -0.14341
H    -1.94034  -2.93052  -0.90626
H     0.06730  -1.87667  -2.39861
