21
Generated by autodE on: 2022-06-02. E = -532.914976 Ha
C     3.76781   0.10083  -0.10160
O     2.57044  -0.65839   0.07588
C     1.40562   0.02010  -0.03878
O     1.40127   1.22701  -0.28269
C     0.24220  -0.82990   0.15734
C     0.40254  -2.29447   0.44474
N    -1.00621  -0.29988   0.08180
C    -2.12654  -1.24097   0.30460
C    -1.32287   0.99005  -0.17218
C    -2.64377   1.44904  -0.22873
N    -3.71796   1.91435  -0.29376
H     4.59563  -0.60708   0.02577
H     3.80514   0.54621  -1.10709
H     3.83948   0.90246   0.64880
H     1.46490  -2.55059   0.46637
H    -0.07894  -2.92413  -0.32171
H    -0.03134  -2.57854   1.41784
H    -2.04094  -1.67784   1.30598
H    -2.08730  -2.03883  -0.44567
H    -3.07660  -0.70893   0.21955
H    -0.50850   1.68861  -0.33563
