44
Generated by autodE on: 2022-06-02. E = -1385.751023 Ha. Imaginary frequency = -188.5 cm-1
C     1.92547   3.81697   0.55974
N     1.66563   2.43364   0.89874
C     1.34068   1.49836  -0.03110
O     1.35503   1.74551  -1.24654
C     1.01819   0.15757   0.49966
C     1.61595  -0.35824   1.85221
C     0.53843  -1.09907   2.63570
C     0.31762  -2.22331   1.94644
C     1.26960  -2.14218   0.75583
O     2.39526  -1.46544   1.34786
C     0.75774  -1.01245  -0.20573
C     0.96418  -1.27902  -1.66763
F     0.61290  -2.55315  -1.97120
F     2.27063  -1.16451  -1.99950
F     0.27850  -0.49628  -2.51305
C    -1.57646  -1.18473  -0.28986
C    -1.95270  -2.54796  -0.35547
N    -2.20037  -3.68391  -0.45471
N    -1.92741  -0.41767   0.78844
C    -2.63372  -1.03252   1.92925
C    -1.56218   0.88506   0.87733
C    -1.69945   1.61285   2.18039
C    -1.52223   1.70190  -0.35970
O    -1.74583   1.30881  -1.49424
O    -1.27390   2.98975  -0.09180
C    -1.23727   3.88120  -1.21441
H     2.29190   3.87488  -0.47213
H     2.69112   4.22949   1.23255
H     1.01852   4.43857   0.64268
H     1.46308   2.22882   1.87121
H     2.24004   0.35213   2.40111
H     0.04113  -0.71806   3.52579
H    -0.41572  -3.01055   2.11041
H     1.55792  -3.07823   0.26912
H    -1.49147  -0.66348  -1.23719
H    -2.84574  -2.08037   1.70282
H    -3.58062  -0.49506   2.07181
H    -2.04676  -0.97997   2.84826
H    -2.72873   1.98636   2.32641
H    -1.03276   2.48227   2.17831
H    -1.43918   0.98642   3.03959
H    -0.44950   3.57465  -1.91509
H    -2.20911   3.89072  -1.72849
H    -1.01679   4.87252  -0.80294
