54
Generated by autodE on: 2022-06-07. E = -1638.151641 Ha
C    10.59182  13.37609   8.99128
N     9.46079  13.59761   9.86992
C     9.01572  12.62266  10.68124
O     9.57268  11.54004  10.85313
N     7.85541  12.95100  11.42701
N     7.05428  14.00887  10.93087
C     5.77653  13.35323  10.55668
C     4.67150  14.28036  10.80342
N     3.80610  15.00941  11.05242
C     5.90928  12.95610   9.06727
O     6.56756  12.00325   8.72096
O     5.33807  13.83534   8.26512
C     5.45729  13.59700   6.85005
C     5.73214  12.10362  11.46659
C     6.98905  11.92155  11.91481
C     7.54472  10.90366  12.90081
F     7.93153   9.74670  12.21986
C     8.75687  11.45671  13.55058
N     9.65549  11.85519  14.16407
C     6.59401  10.44505  14.02003
C     5.93185  11.51276  14.89045
C     4.97663  12.50450  14.21376
C     3.93053  11.92938  13.25417
C     4.44395  11.41985  11.86031
C     4.54530   9.87067  11.79474
O     3.87283   9.12172  12.46724
O     5.39541   9.48530  10.85771
C     5.60347   8.07304  10.68939
C     3.35543  11.64052  10.78092
O     3.59004  11.92980   9.62630
O     2.14490  11.40900  11.25514
C     1.04731  11.52069  10.32881
H    10.32653  12.74780   8.12390
H    11.40447  12.88004   9.53907
H    10.95421  14.34492   8.62461
H     8.82623  14.37136   9.69440
H     6.87719  14.64981  11.70874
H     6.51626  13.58059   6.55740
H     4.93565  14.42733   6.36202
H     4.98270  12.63953   6.59325
H     5.84189   9.79057  13.57134
H     7.19701   9.78439  14.66013
H     6.70857  12.08095  15.42836
H     5.37229  10.95765  15.66023
H     5.54048  13.30305  13.70875
H     4.41655  13.01145  15.01544
H     3.20304  12.72555  13.05331
H     3.37785  11.10359  13.72349
H     6.35355   7.97704   9.89698
H     4.66478   7.58354  10.39469
H     5.97601   7.63498  11.62541
H     0.99583  12.54377   9.93173
H     0.14664  11.28542  10.90587
H     1.17647  10.80576   9.50451
