21
Generated by autodE on: 2022-06-07. E = -678.422540 Ha
C    -4.91945  -0.02350   0.26487
N    -3.61681  -0.41138  -0.23278
C    -2.46579   0.09172   0.22941
O    -2.34655   0.94448   1.11544
N    -1.34193  -0.47873  -0.43422
N    -0.26636   0.02419   0.03644
C     0.98594  -0.25139  -0.32227
C     1.25068  -1.19976  -1.33667
N     1.47659  -1.97952  -2.17174
C     2.03824   0.48442   0.39754
O     1.79700   1.30080   1.26887
O     3.25337   0.14518  -0.02155
C     4.36454   0.80277   0.61096
H    -5.56353   0.31446  -0.56097
H    -4.79868   0.79715   0.98137
H    -5.41677  -0.86649   0.77041
H    -3.55305  -1.11693  -0.96123
H    -0.37940   0.73862   0.79408
H     5.26300   0.39301   0.13662
H     4.36902   0.58924   1.68920
H     4.30639   1.88832   0.44824
