33
Generated by autodE on: 2022-06-07. E = -959.658098 Ha
C    -1.36729  -2.26007   2.69650
O    -0.78760  -1.38476   1.71021
C     0.27254  -1.83626   1.05982
O     0.78876  -2.91739   1.24154
C     0.78267  -0.86723  -0.02226
C     2.31909  -0.88538   0.08432
O     3.06191  -1.32199  -0.76208
O     2.71059  -0.36295   1.24196
C     4.12565  -0.33882   1.50150
C     0.23890   0.47728   0.10753
C    -0.44947   1.44940  -0.10462
C    -1.48184   2.20763  -0.80883
F    -0.88507   3.07259  -1.73091
C    -2.29452   3.04998   0.09528
N    -2.95101   3.70316   0.79174
C    -2.37175   1.19859  -1.57008
C    -1.59881   0.16672  -2.41370
C    -1.17772  -1.17340  -1.74687
C     0.31352  -1.38645  -1.42068
H    -0.63257  -2.48014   3.48328
H    -1.69754  -3.19482   2.22253
H    -2.22297  -1.71600   3.11095
H     4.24195   0.12589   2.48678
H     4.64175   0.25458   0.73384
H     4.52515  -1.36272   1.51037
H    -3.02529   1.80712  -2.21446
H    -3.01525   0.69513  -0.83213
H    -2.26886  -0.08312  -3.24964
H    -0.72532   0.65504  -2.87569
H    -1.44128  -1.97676  -2.45073
H    -1.79283  -1.35781  -0.85063
H     0.55944  -2.45771  -1.45565
H     0.93992  -0.88891  -2.17509
