54
Generated by autodE on: 2022-06-07. E = -1638.052393 Ha. Imaginary frequency = -277.9 cm-1
C    10.55668  12.23171   8.73329
N     9.80307  12.92396   9.76148
C     9.05237  12.22110  10.63904
O     9.15270  11.01504  10.81897
N     8.28294  13.05117  11.51238
N     7.44522  13.93867  11.06539
C     6.42120  13.78718  10.19213
C     5.43701  14.81511  10.23336
N     4.64131  15.66381  10.27221
C     6.35797  12.81592   9.07526
O     7.24841  12.07477   8.71635
O     5.16139  12.89925   8.48964
C     4.89779  12.02841   7.38001
C     5.94340  11.58458  11.90510
C     7.00283  11.76971  12.51683
C     7.66990  11.69272  13.83580
F     8.99939  11.30165  13.71492
C     7.67867  13.04815  14.43710
N     7.65868  14.10559  14.91134
C     6.95235  10.66953  14.73467
C     5.57611  11.05668  15.29312
C     4.44296  11.45126  14.32857
C     4.16082  10.45848  13.18452
C     4.62769  10.94462  11.76530
C     4.71790   9.72674  10.82977
O     3.98474   8.76717  10.90364
O     5.70508   9.85360   9.95446
C     5.91751   8.77853   9.02629
C     3.59546  11.95243  11.22688
O     3.37527  13.01770  11.75696
O     2.97832  11.51317  10.13837
C     2.00920  12.39050   9.53514
H    11.18883  11.45399   9.18331
H    11.20170  12.95477   8.21844
H     9.89293  11.75396   7.99306
H     9.56846  13.89833   9.60028
H     7.30532  14.71342  11.72543
H     5.69462  12.11347   6.62852
H     3.94145  12.36149   6.96249
H     4.81798  10.98991   7.72497
H     6.89979   9.74248  14.14478
H     7.63096  10.48304  15.58094
H     5.70546  11.87978  16.01509
H     5.24524  10.18697  15.88406
H     3.53182  11.55053  14.93755
H     4.62799  12.45536  13.92231
H     3.08803  10.22963  13.11058
H     4.66905   9.50227  13.37392
H     5.01653   8.61476   8.41892
H     6.17091   7.85713   9.56940
H     6.75480   9.09602   8.39581
H     1.65017  11.86782   8.64217
H     1.18104  12.57263  10.23391
H     2.48391  13.34249   9.26241
