33
Generated by autodE on: 2022-06-17. E = -748.178319 Ha
C     4.71324   0.38336  -0.86104
C     3.53088  -0.26017  -0.78348
C     3.41520  -1.74254  -1.02116
C     2.31636   0.49456  -0.45622
C     1.08079  -0.02687  -0.34672
C    -0.12249   0.78575   0.00511
C    -0.83962   0.34893   1.31585
C    -0.21401   0.71785   2.62587
O    -2.16157   0.91366   1.12858
N    -2.48852   0.30843  -0.09686
O    -2.22871  -1.12083   0.23088
C    -1.20239  -1.11952   1.12417
O    -0.72751  -2.12252   1.58654
C    -1.33848   0.74106  -0.99608
C    -1.69384   2.14386  -1.47895
C    -1.19867  -0.21011  -2.17500
H     5.63808  -0.14875  -1.10104
H     4.78361   1.46112  -0.68513
H     4.39342  -2.18646  -1.25339
H     2.72860  -1.95753  -1.85688
H     3.00224  -2.25413  -0.13580
H     2.44943   1.57018  -0.29134
H     0.93113  -1.09795  -0.50716
H     0.17892   1.83160   0.15450
H     0.75300   0.20202   2.71509
H    -0.85509   0.41279   3.46522
H    -0.03939   1.80212   2.67018
H    -0.84726   2.54823  -2.05346
H    -1.88974   2.81663  -0.63244
H    -2.57971   2.12046  -2.13099
H    -2.14038  -0.24550  -2.74324
H    -0.40947   0.16503  -2.84194
H    -0.93421  -1.23027  -1.87299
