10
Generated by autodE on: 2022-06-17. E = -396.601685 Ha
C    -2.22540  -0.21280  -0.05467
C    -0.75260  -0.22894  -0.02381
O    -0.07160  -1.36445  -0.05676
N     1.24284  -1.19910  -0.02378
O     1.41954   0.11975   0.03329
C     0.19486   0.83008   0.03808
O     0.14567   2.04110   0.08638
H    -2.56237   0.83209  -0.04127
H    -2.64583  -0.73582   0.81947
H    -2.60723  -0.70227  -0.96492
