33
Generated by autodE on: 2022-06-17. E = -748.119003 Ha. Imaginary frequency = -315.8 cm-1
C     4.59897  -0.04821  -0.02525
C     3.40100  -0.44493  -0.50791
C     3.21897  -1.78726  -1.16769
C     2.23763   0.42627  -0.37022
C     0.99731   0.15373  -0.84955
C    -0.14991   1.00087  -0.62284
C    -0.94994   0.35927   1.58758
C    -0.20584   1.12124   2.60396
O    -2.18347   0.70531   1.21072
N    -2.57416  -0.09729   0.17088
O    -1.82351  -1.24462   0.33040
C    -0.72445  -0.98684   1.14677
O     0.15518  -1.80039   1.34999
C    -1.38222   0.89082  -1.30698
C    -2.24432   2.12217  -1.39378
C    -1.56539  -0.12212  -2.40568
H     5.48447  -0.68532  -0.10105
H     4.71871   0.92522   0.46006
H     4.15885  -2.35658  -1.18161
H     2.86505  -1.67727  -2.20617
H     2.45615  -2.37871  -0.63456
H     2.39590   1.36483   0.17357
H     0.83439  -0.77439  -1.40163
H     0.04528   1.94404  -0.10532
H     0.87111   0.99241   2.41350
H    -0.41437   0.73950   3.61810
H    -0.46240   2.18808   2.55997
H    -1.91186   2.74488  -2.24310
H    -2.16794   2.73362  -0.48291
H    -3.30002   1.86379  -1.56477
H    -2.63148  -0.24639  -2.64554
H    -1.05287   0.22357  -3.32005
H    -1.15162  -1.10496  -2.14356
