23
Generated by autodE on: 2022-05-28. E = -646.299255 Ha
C     3.56384  -0.46522  -0.15701
O     2.15982  -0.41502   0.11239
C     1.48139   0.63560  -0.40003
O     2.05666   1.55649  -0.96265
C     0.04834   0.54588  -0.13369
C    -0.83497   1.70240  -0.14933
C    -0.29921   3.03446  -0.62412
O    -2.02794   1.62300   0.18373
N    -0.50229  -0.70974   0.11115
C    -0.01362  -1.89234  -0.64355
C    -1.54119  -0.87465   0.90675
C    -2.23483  -2.10391   0.98773
N    -2.83852  -3.09385   1.10815
H     3.92553  -1.39471   0.29852
H     3.75368  -0.47663  -1.24061
H     4.07691   0.39826   0.29102
H     0.55299   3.35795  -0.00881
H     0.06135   2.97609  -1.66045
H    -1.11218   3.76848  -0.55021
H     0.63727  -1.56511  -1.45595
H    -0.88489  -2.40726  -1.06765
H     0.52389  -2.56619   0.03330
H    -1.87171  -0.05432   1.53804
