23
Generated by autodE on: 2022-07-26. E = -646.296641 Ha
C     1.51309   0.67711  -2.68742
O     0.74763  -0.00253  -1.68789
C     1.00633   0.31837  -0.40234
O     1.95180   1.03071  -0.09991
C     0.10077  -0.33003   0.54963
C     0.45820  -0.53603   1.94678
C     1.85039  -0.19218   2.42500
O    -0.36327  -0.98410   2.75896
N    -1.13244  -0.80493   0.10977
C    -1.67305  -2.08787   0.62841
C    -1.88534  -0.20430  -0.79077
C    -1.65880   1.12050  -1.22766
N    -1.54109   2.22268  -1.58628
H     2.57911   0.42054  -2.60400
H     1.11856   0.33676  -3.65211
H     1.39113   1.76599  -2.59367
H     1.98422   0.89904   2.46022
H     2.62931  -0.58921   1.75926
H     1.96756  -0.60378   3.43641
H    -2.23005  -2.56541  -0.18631
H    -2.34249  -1.88796   1.47103
H    -0.84631  -2.72728   0.94671
H    -2.74442  -0.74035  -1.19730
