33
Generated by autodE on: 2022-05-28. E = -802.330182 Ha. Imaginary frequency = -387.0 cm-1
C     2.31763   0.20090  -2.66959
O     1.49777  -0.47003  -1.70593
C     1.42927   0.08284  -0.48096
O     2.13772   1.01942  -0.15110
C     0.46472  -0.61678   0.39586
C     0.86929  -0.94428   1.77465
C     2.24951  -0.54839   2.24861
O     0.10539  -1.51215   2.55858
C    -1.03048   1.29743   1.04505
C    -0.18564   2.02296   1.99482
C    -2.04120   1.02073   0.36617
C    -3.44870   1.24940  -0.02758
C    -1.44816  -0.54485  -1.00124
C    -1.02355   0.42739  -1.96092
N    -0.80935   1.23463  -2.77192
N    -0.62190  -1.24593  -0.18778
C    -1.24880  -2.43944   0.40983
H     3.36792   0.20623  -2.34486
H     1.97230   1.23455  -2.81480
H     2.21243  -0.36542  -3.60221
H     2.32758   0.54159   2.36348
H     3.03142  -0.85637   1.53925
H     2.41730  -1.02351   3.22386
H     0.02852   1.41920   2.89035
H    -0.69509   2.94638   2.32074
H     0.77580   2.30377   1.53865
H    -3.52705   1.47528  -1.10330
H    -3.87385   2.09691   0.53307
H    -4.06625   0.35796   0.16500
H    -2.35369  -1.07251  -1.31371
H    -1.80930  -2.95063  -0.38182
H    -0.47712  -3.11036   0.79501
H    -1.92858  -2.15740   1.22388
