36
Generated by autodE on: 2022-06-17. E = -725.787305 Ha
C    -0.56675   2.85000  -0.94331
N    -0.13680   1.56618  -0.41796
C     1.11450   1.10858  -0.66887
C     1.71765   0.04756  -0.05773
C     3.07500  -0.30169  -0.48579
N     3.67912  -1.31794   0.18644
O     3.67838   0.27702  -1.41539
C     0.99593  -0.70163   1.03406
C    -0.50875  -0.42396   1.02922
C    -0.91616   1.01889   0.69314
N    -2.32604   0.91509   0.31946
C    -3.22563   0.96631   1.46616
N    -2.45448  -0.31824  -0.40064
C    -1.39733  -1.27731   0.06218
C    -2.03590  -2.43647   0.83347
C    -0.66970  -1.82994  -1.16453
H    -0.53325   3.63390  -0.16386
H    -1.59736   2.78935  -1.31683
H     0.09411   3.14914  -1.76736
H     1.65905   1.65113  -1.44507
H     3.26003  -1.76125   0.99372
H     4.63701  -1.55031  -0.05072
H     1.15392  -1.78884   0.94099
H     1.40924  -0.42820   2.02188
H    -0.88240  -0.60688   2.04556
H    -0.82311   1.69264   1.56203
H    -4.25755   0.82619   1.11617
H    -3.02026   0.20125   2.23980
H    -3.15449   1.95699   1.93963
H    -2.25269  -0.09078  -1.37344
H    -1.25971  -3.10230   1.24560
H    -2.64690  -2.06278   1.66848
H    -2.68436  -3.03441   0.17374
H    -1.39411  -2.33615  -1.82310
H     0.09115  -2.57076  -0.87903
H    -0.17744  -1.03547  -1.74100
