20
Generated by autodE on: 2022-06-17. E = -457.715335 Ha
C    -2.96868   1.08006  -0.33032
N    -1.80927   0.27985   0.02853
C    -1.99272  -1.02091   0.51447
C    -0.96853  -1.84964   0.77186
C     0.47574  -1.46555   0.56361
C     0.57412  -0.05691   0.00118
C     1.87635   0.55152  -0.31559
N     2.96760  -0.21724  -0.07291
O     2.00287   1.70214  -0.78198
C    -0.53763   0.69781  -0.22654
H    -3.68883   1.10780   0.50164
H    -2.64899   2.10697  -0.54791
H    -3.48180   0.67539  -1.21944
H    -3.03362  -1.30932   0.67164
H    -1.19182  -2.84770   1.15582
H     0.96960  -2.19604  -0.10936
H     1.03397  -1.55093   1.51886
H     3.88529   0.16356  -0.27564
H     2.90396  -1.15375   0.30495
H    -0.43727   1.70548  -0.63289
