18
Generated by autodE on: 2022-07-27. E = -344.258071 Ha
C     2.66676  -0.96258  -0.43061
C     1.44956  -0.28344   0.09545
N     0.23989  -0.37070  -0.42454
C     0.02462  -1.19774  -1.62468
C    -0.90049   0.26903   0.06816
C    -2.23788   0.11768  -0.60347
C    -0.75921   1.06028   1.20256
N    -0.63598   1.73016   2.16572
H     3.52372  -0.68957   0.20005
H     2.58270  -2.06421  -0.41846
H     2.90801  -0.66712  -1.46729
H     1.53301   0.34717   0.98251
H    -0.33704  -0.56424  -2.44394
H     0.95523  -1.68177  -1.92533
H    -0.72857  -1.96458  -1.40816
H    -2.24906   0.48219  -1.64642
H    -2.97702   0.71167  -0.04754
H    -2.60671  -0.92373  -0.61892
