18
Generated by autodE on: 2022-06-16. E = -344.264715 Ha
C     2.94376  -0.55487   0.13248
C     1.50011  -0.89990   0.02418
N     0.53490   0.00388   0.03014
C     0.92763   1.42055   0.14860
C    -0.81292  -0.30871  -0.06967
C    -1.20724  -1.74494  -0.19334
C    -1.77283   0.69922  -0.05134
N    -2.63402   1.50514  -0.04204
H     3.28821   0.09330  -0.69380
H     3.54023  -1.47657   0.10789
H     3.18335  -0.02172   1.07042
H     1.19705  -1.94096  -0.06522
H     0.03854   2.05580   0.13745
H     1.57892   1.69146  -0.69168
H     1.47175   1.57328   1.08904
H    -0.76814  -2.21960  -1.09283
H    -0.86975  -2.34438   0.67500
H    -2.29960  -1.83351  -0.26260
