52
Generated by autodE on: 2022-06-23. E = -1246.715114 Ha
C    -3.06517   1.31477   1.13178
O    -2.10903   1.25277   0.07613
C    -0.77550   0.94241   0.40687
C    -0.80330  -0.26462   1.36745
O    -0.73547  -0.09925   2.57473
C    -1.04029  -1.59956   0.77095
C    -1.40750  -2.71297   1.70112
C    -0.86109  -1.81640  -0.56373
C    -1.06387  -3.17266  -1.16194
C    -0.38083  -0.74327  -1.47184
O    -0.26426  -0.93066  -2.67475
C     0.00789   0.60554  -0.87998
O    -0.13605   1.65194  -1.80696
C    -1.28252   1.73112  -2.65382
C     1.51628   0.66244  -0.35848
C     2.45266   1.20286  -1.44554
C     2.01605  -0.72067   0.09585
C     2.32322  -1.71495  -0.84974
C     2.69603  -2.99885  -0.44755
C     2.78361  -3.31533   0.91220
C     2.51612  -2.32535   1.85974
C     2.14244  -1.04025   1.45260
N     1.44554   1.60431   0.78730
C     0.08605   2.08620   0.98675
C    -0.11855   3.47932   0.37217
C    -1.47462   4.11663   0.42387
O     0.85086   4.08509  -0.06028
H    -3.37337   0.30682   1.45574
H    -2.68702   1.86905   2.00368
H    -3.93982   1.83881   0.72459
H    -0.65207  -3.51431   1.65549
H    -2.36866  -3.16506   1.40726
H    -1.48171  -2.35671   2.73499
H    -0.33293  -3.88499  -0.74465
H    -0.94406  -3.14562  -2.25100
H    -2.06401  -3.56318  -0.91672
H    -1.60695   2.78253  -2.66753
H    -1.01524   1.42274  -3.67650
H    -2.11686   1.11546  -2.29939
H     2.39288   0.60324  -2.36328
H     3.48814   1.16762  -1.07472
H     2.19928   2.23941  -1.69350
H     2.25268  -1.50019  -1.91571
H     2.91665  -3.75689  -1.20284
H     3.06754  -4.32204   1.22759
H     2.59343  -2.55122   2.92614
H     1.93018  -0.27171   2.19220
H     2.03376   2.41254   0.58979
H    -0.15387   2.20287   2.05830
H    -2.12040   3.64699  -0.33330
H    -1.38554   5.19130   0.21709
H    -1.95034   3.95204   1.40147
