26
Generated by autodE on: 2022-06-23. E = -557.232114 Ha
C     4.41525  -0.91399  -1.50064
C     3.08920  -0.89019  -0.77663
O     2.88332  -1.69098   0.17787
C     2.11151   0.03741  -1.20081
N     0.92734   0.00362  -0.51341
C    -0.16849   0.72345  -0.63838
C    -0.17574   1.78547  -1.68531
C    -1.30724   0.44601   0.24109
C    -1.44141  -0.79131   0.91318
C    -2.51791  -1.02999   1.76418
C    -3.49442  -0.04737   1.96611
C    -3.38024   1.17825   1.30355
C    -2.30432   1.42314   0.45008
H     4.47820  -0.16638  -2.30395
H     4.58034  -1.91695  -1.92845
H     5.22955  -0.73733  -0.77835
H     2.24394   0.74575  -2.01283
H     0.96462  -0.71630   0.22030
H     0.58734   2.55436  -1.47000
H     0.08491   1.34779  -2.66469
H    -1.15138   2.27267  -1.77816
H    -0.71672  -1.59285   0.75376
H    -2.60219  -1.99734   2.26472
H    -4.33986  -0.23942   2.63046
H    -4.13368   1.95495   1.45374
H    -2.22815   2.39310  -0.04234
