26
Generated by autodE on: 2022-07-27. E = -557.227431 Ha
C    -2.07314   3.02374   2.19535
C    -1.21505   2.76906   0.97785
O    -0.89618   3.73326   0.22532
C    -0.79654   1.44559   0.72238
N    -0.07196   1.28232  -0.43268
C     0.48343   0.27243  -1.06933
C     1.04733   0.55972  -2.42809
C     0.54311  -1.08721  -0.52325
C     0.60676  -2.18478  -1.41049
C     0.69263  -3.49034  -0.92934
C     0.74272  -3.73428   0.44703
C     0.71188  -2.65654   1.33779
C     0.60836  -1.34939   0.86311
H    -2.27311   2.11184   2.77563
H    -1.57669   3.76341   2.84532
H    -3.03205   3.46824   1.88040
H    -1.07552   0.59013   1.32675
H     0.00624   2.19983  -0.89779
H     2.06135   0.14417  -2.53270
H     0.42705   0.10335  -3.21842
H     1.08328   1.64256  -2.61632
H     0.57267  -2.01617  -2.48728
H     0.72352  -4.32366  -1.63509
H     0.81301  -4.75752   0.82292
H     0.77313  -2.83342   2.41412
H     0.61795  -0.52752   1.57773
