47
Generated by autodE on: 2022-06-01. E = -1587.677018 Ha
C    -1.01824  -3.17965  -0.15410
C    -1.47528  -1.79558   0.20441
O    -2.25116  -1.60665   1.11963
C    -1.09243  -0.55013  -0.69100
C    -1.44738  -1.02125  -2.12696
C    -2.78414  -0.61922  -2.67721
O    -0.69712  -1.76885  -2.72456
N    -1.92511   0.58322  -0.31421
C    -1.26793   1.43894   0.64347
C    -1.48612   1.04067   2.06612
N    -1.74361   0.76151   3.16121
C    -1.82112   2.81137   0.54841
N    -2.28612   3.87026   0.48084
C     0.24942   1.37598   0.21934
Cl    1.25943   1.66923   1.69393
C     0.62433   2.41616  -0.87865
C     2.14965   2.45236  -1.06655
C     2.44896   1.03955  -1.62734
C     1.04043   0.43533  -1.86626
C     0.21402   1.69473  -2.17301
C     0.42411  -0.04851  -0.51281
C     1.25476  -1.11280   0.19797
C     1.06826  -1.41945   1.55650
C     1.75873  -2.47164   2.16209
C     2.65262  -3.24792   1.42154
C     2.84259  -2.96200   0.06742
C     2.15035  -1.90904  -0.53492
H    -0.09673  -3.20512  -0.74054
H    -0.91642  -3.76771   0.76712
H    -1.82142  -3.63394  -0.75996
H    -2.95541  -1.14048  -3.62732
H    -3.57931  -0.87425  -1.95780
H    -2.83038   0.46888  -2.82945
H    -2.85358   0.30183  -0.00083
H     0.18134   3.39966  -0.68694
H     2.69769   2.68460  -0.14705
H     2.38256   3.23621  -1.80117
H     2.99333   1.08537  -2.58111
H     3.05414   0.44248  -0.93487
H     1.03053  -0.33967  -2.63313
H     0.57764   2.22681  -3.06305
H    -0.86330   1.53441  -2.27740
H     0.36218  -0.85309   2.15955
H     1.58798  -2.68558   3.21959
H     3.19117  -4.07275   1.89370
H     3.52842  -3.56584  -0.53127
H     2.29800  -1.73098  -1.59884
