20
Generated by autodE on: 2022-06-01. E = -623.989566 Ha
C     1.13843  -3.30548  -0.33029
C     0.27315  -2.14183  -0.69699
O    -0.53672  -2.22125  -1.62220
C     0.37141  -0.83146   0.01434
N    -0.45248   0.05455  -0.55395
C    -0.86201   1.31186  -0.33192
C    -1.76121   1.87661  -1.27869
N    -2.49123   2.35965  -2.04730
C    -0.59537   2.09508   0.82046
N    -0.52787   2.81792   1.73196
C     1.32364  -0.41386   1.06530
C     1.97100  -1.41819   1.97472
O     1.57634   0.78405   1.16921
H     0.90436  -3.65637   0.68589
H     2.20173  -3.02539  -0.34872
H     0.95396  -4.11639  -1.04540
H    -0.91376  -0.41659  -1.36360
H     2.79064  -1.93504   1.45219
H     1.25593  -2.17728   2.32021
H     2.39487  -0.87694   2.83050
