37
Generated by autodE on: 2022-05-30. E = -1174.701860 Ha
C     1.10777   3.98188  -1.67256
N     1.07354   2.56226  -1.38049
C     0.07308   2.03091  -0.67015
O    -0.90659   2.66865  -0.26214
C     0.13640   0.56967  -0.36802
C     1.13693  -0.31374  -0.15986
C     2.59988  -0.14889  -0.27673
O     3.14426   0.70299  -0.95774
O     3.24788  -1.05251   0.44339
C     4.68574  -1.02974   0.39809
C     0.43161  -1.54810   0.41964
C     1.12012  -2.82858   0.52394
N     1.61715  -3.87100   0.59599
O     0.01425  -1.14154   1.81442
C    -0.98603  -0.25832   1.60397
O    -1.58849   0.30092   2.48172
C    -1.14638  -0.16011   0.05201
C    -2.44198   0.35398  -0.56923
O    -2.53281   0.38734  -1.79675
N    -3.41754   0.69562   0.27741
C    -4.66209   1.26604  -0.20138
N    -0.79791  -1.55213  -0.32857
C    -1.78358  -2.57779   0.02360
H     1.27667   4.57937  -0.76122
H     1.92003   4.17885  -2.38232
H     0.15493   4.30456  -2.11684
H     1.90381   1.98717  -1.54222
H     5.05891  -0.07449   0.79258
H     5.01530  -1.86275   1.02823
H     5.03116  -1.16631  -0.63610
H    -3.19801   0.73734   1.27066
H    -5.36997   1.32883   0.63377
H    -4.50588   2.27623  -0.61511
H    -5.09402   0.63555  -0.99146
H    -2.07316  -2.57267   1.08842
H    -2.67833  -2.41914  -0.59125
H    -1.36943  -3.56301  -0.22737
