17
Generated by autodE on: 2022-05-30. E = -513.467391 Ha
C    -2.91894   1.24546   0.82440
N    -3.05582  -0.13488   0.39904
C    -2.09266  -0.94800  -0.06400
O    -2.28200  -2.11545  -0.42080
C    -0.73953  -0.39560  -0.13733
C     0.41926  -0.04528  -0.22959
C     1.78691   0.40586  -0.40440
O     2.20874   0.86472  -1.44605
O     2.49918   0.25329   0.70914
C     3.87552   0.67084   0.65174
H    -3.29805   1.37035   1.84964
H    -1.86294   1.54143   0.80793
H    -3.48018   1.91968   0.15899
H    -3.98415  -0.55342   0.42622
H     4.41584   0.09545  -0.11332
H     4.28947   0.46894   1.64578
H     3.93819   1.74357   0.42017
