20
Generated by autodE on: 2022-05-30. E = -661.180982 Ha
C    -4.06664   0.53049  -0.30945
N    -2.70999   0.02881  -0.34676
C    -1.64468   0.73830   0.08732
O    -1.71990   1.88295   0.55856
C    -0.36310   0.02991  -0.04276
C    -0.14123  -1.28004  -0.55140
O    -0.85882  -2.15244  -1.00772
O     1.26054  -1.47864  -0.44401
C     1.79763  -0.37320   0.08271
C     3.18085  -0.26220   0.31735
N     4.32726  -0.18222   0.50674
N     0.86201   0.53733   0.32973
C     1.12887   1.85771   0.90664
H    -4.06827   1.52447   0.15240
H    -4.48835   0.61221  -1.32422
H    -4.71591  -0.13554   0.28053
H    -2.53910  -0.90446  -0.71724
H     0.57679   1.95386   1.84743
H     0.78996   2.62758   0.20543
H     2.20626   1.94824   1.08429
