37
Generated by autodE on: 2022-05-30. E = -1174.639740 Ha. Imaginary frequency = -407.5 cm-1
C    -0.93173   3.66503  -2.10656
N    -0.35142   2.37551  -1.78134
C     0.16858   2.13379  -0.56422
O     0.25689   2.98576   0.32731
C     0.60721   0.76152  -0.32367
C     1.39669  -0.19712  -0.13169
C     2.76680  -0.69556  -0.27872
O     3.35936  -0.75423  -1.33605
O     3.25842  -1.10299   0.89066
C     4.56296  -1.70629   0.87234
C     0.23151  -1.64766   0.77785
C     0.93808  -2.88451   0.91567
N     1.55888  -3.86142   0.99967
O    -0.03544  -0.95909   1.94181
C    -0.99578  -0.00690   1.62339
O    -1.34622   0.84798   2.40177
C    -1.38968  -0.30661   0.24743
C    -2.45837   0.37550  -0.53208
O    -2.76378   0.00798  -1.67109
N    -3.00455   1.43495   0.08520
C    -3.97496   2.27879  -0.58421
N    -0.84778  -1.51735  -0.06173
C    -0.87606  -2.16537  -1.37018
H    -0.15456   4.43996  -2.20208
H    -1.46525   3.58096  -3.06057
H    -1.63749   3.98471  -1.32546
H    -0.48545   1.59336  -2.41545
H     4.77961  -1.98018   1.91079
H     4.55414  -2.60145   0.23438
H     5.31063  -0.99205   0.50010
H    -2.68424   1.67242   1.02311
H    -4.96291   1.79261  -0.63663
H    -4.07216   3.21801  -0.02694
H    -3.64856   2.49823  -1.61055
H    -0.36513  -3.13154  -1.28666
H    -1.91463  -2.31582  -1.67520
H    -0.36126  -1.53063  -2.10625
