20
Generated by autodE on: 2022-05-30. E = -610.059752 Ha
F     1.37976   1.64454  -0.47046
C     1.45480   0.42616   0.12007
F     1.98439   0.61435   1.34268
F     2.36233  -0.27608  -0.59751
C     0.13533  -0.24531   0.15911
C    -0.59579  -0.54504   1.24559
C    -1.94279  -1.03117   0.74774
C    -2.66394   0.24046   0.18308
C    -1.81804   0.59436  -1.07360
C    -0.71518  -0.51305  -1.07341
C    -1.52653  -1.72540  -0.56887
H    -0.32959  -0.36293   2.28784
H    -2.53908  -1.61041   1.46337
H    -2.69663   1.05242   0.92343
H    -3.70041  -0.00992  -0.08760
H    -1.37777   1.60007  -1.03035
H    -2.41812   0.52579  -1.99298
H    -0.16723  -0.62081  -2.01758
H    -2.38028  -1.97580  -1.21696
H    -0.90594  -2.61880  -0.40556
