61
Generated by autodE on: 2022-07-01. E = -1497.737108 Ha
C     4.41636  -1.41993  -0.36771
O     3.27245  -1.91422  -1.07507
C     2.06657  -1.71941  -0.48986
C     1.15190  -2.72446  -0.38019
O     1.33093  -4.02004  -0.66168
C     2.63755  -4.60580  -0.63269
C    -0.25965  -2.41432  -0.02344
O    -1.09051  -3.30663  -0.08516
C    -0.63570  -1.02598   0.53508
C    -1.55894  -1.32228   1.73113
C    -1.36817  -0.07954  -0.49633
C    -0.84288  -0.21549  -1.94776
C    -0.85398   1.01494  -2.80135
O    -0.47897  -1.29843  -2.37068
C    -2.87984  -0.29501  -0.58749
C    -3.75558   0.62515   0.00436
C    -5.13706   0.42192  -0.05022
C    -5.65974  -0.69888  -0.70112
C    -4.79022  -1.61460  -1.30136
C    -3.40925  -1.41275  -1.25111
O    -1.11431   1.23093  -0.01860
C    -0.00705   1.32457   0.90309
C    -0.57068   1.76619   2.26706
C     0.90786   2.47869   0.47739
C     0.50283   3.38890  -0.50528
C     1.30012   4.49217  -0.83176
C     2.50997   4.71072  -0.17047
C     2.90637   3.82271   0.83640
C     2.10759   2.72696   1.16435
C     0.60614  -0.12450   0.88558
C     1.31056  -0.53065   2.19502
C     1.63826  -0.32308  -0.23634
O     2.14216   0.56905  -0.89924
H     5.28811  -1.64037  -0.99657
H     4.51944  -1.93782   0.59932
H     4.35105  -0.33471  -0.20217
H     2.47302  -5.68951  -0.57048
H     3.20206  -4.36708  -1.54296
H     3.19684  -4.26569   0.25213
H    -2.08586  -0.43085   2.07842
H    -2.31512  -2.05247   1.42565
H    -0.98953  -1.75198   2.56580
H    -1.71087   1.66204  -2.57120
H     0.06222   1.58744  -2.58707
H    -0.85055   0.72418  -3.85983
H    -3.34926   1.49755   0.51410
H    -5.80724   1.14603   0.41920
H    -6.73993  -0.85656  -0.74456
H    -5.18745  -2.49222  -1.81656
H    -2.74478  -2.13436  -1.72486
H    -1.23515   1.02899   2.72605
H    -1.13786   2.69431   2.10569
H     0.24096   1.98920   2.97111
H    -0.44132   3.23378  -1.02328
H     0.96659   5.18476  -1.60873
H     3.13484   5.56931  -0.42752
H     3.84442   3.98530   1.37303
H     2.43519   2.05214   1.95597
H     0.70562  -0.27037   3.07040
H     1.49690  -1.61168   2.21692
H     2.28259  -0.02626   2.28756
