35
Generated by autodE on: 2022-07-01. E = -808.222402 Ha
C    -0.68823   2.99761   1.13452
C    -1.70339   1.99301   0.61441
O    -2.92147   2.28127   0.63159
C    -1.20719   0.75682   0.09759
O     0.16396   0.64890   0.22982
C     1.02087   0.03607  -0.52880
C     0.59449  -0.53664  -1.82036
C     2.38029   0.03165  -0.02384
C     2.68407   0.64096   1.21869
C     3.98888   0.65214   1.69747
C     5.01695   0.04441   0.96389
C     4.72773  -0.57612  -0.25612
C     3.42521  -0.58508  -0.74936
C    -2.01413  -0.40333  -0.26055
C    -3.28891  -0.25033  -0.85483
C    -4.08789  -1.35885  -1.13173
C    -3.64681  -2.65305  -0.83125
C    -2.39046  -2.82185  -0.24033
C    -1.58573  -1.71781   0.04239
H    -0.03574   3.35958   0.32373
H    -0.03259   2.55497   1.90086
H    -1.23186   3.84876   1.56575
H    -0.19740   0.10004  -2.24794
H     1.43496  -0.60999  -2.51871
H     0.15364  -1.54237  -1.69884
H     1.88533   1.10091   1.80041
H     4.20929   1.13093   2.65404
H     6.03983   0.04954   1.34690
H     5.52359  -1.05759  -0.82820
H     3.22045  -1.07670  -1.70018
H    -3.64367   0.74958  -1.09725
H    -5.06552  -1.21010  -1.59767
H    -4.27387  -3.51879  -1.05606
H    -2.03224  -3.82355   0.01021
H    -0.62163  -1.87694   0.53006
