61
Generated by autodE on: 2022-07-01. E = -1497.690280 Ha. Imaginary frequency = -262.0 cm-1
C     4.50789  -0.97212  -0.71927
O     3.19495  -0.58948  -1.14263
C     2.13908  -1.02183  -0.39038
C     1.30625  -2.02279  -0.79921
O     1.37508  -2.77231  -1.90095
C     2.44665  -2.68562  -2.84492
C     0.11767  -2.41130   0.03692
O    -0.44769  -3.48041  -0.20202
C    -0.29143  -1.51380   1.12116
C    -1.34460  -2.04116   2.05024
C    -1.47002  -0.33520  -0.71986
C    -1.21303  -0.98268  -2.03973
C    -0.27135  -0.30335  -3.00301
O    -1.80336  -2.01322  -2.34725
C    -2.88729  -0.31945  -0.29590
C    -3.59387   0.89979  -0.26057
C    -4.95596   0.92368   0.03649
C    -5.64433  -0.26838   0.28484
C    -4.96090  -1.48597   0.21128
C    -3.59777  -1.51582  -0.08566
O    -0.67000   0.73827  -0.54213
C    -0.31181   1.33285   0.61237
C    -1.34809   1.64922   1.64743
C     0.79653   2.28708   0.40329
C     1.50750   2.30929  -0.81440
C     2.59508   3.15965  -0.98948
C     3.00211   4.00948   0.04560
C     2.30373   4.00187   1.25507
C     1.21123   3.15149   1.43463
C     0.58815  -0.48466   1.56311
C     0.60510  -0.10691   3.02577
C     1.91049  -0.35068   0.89985
O     2.80470   0.34293   1.39436
H     5.18935  -0.70393  -1.53798
H     4.56020  -2.05953  -0.54530
H     4.80156  -0.43935   0.19548
H     2.21065  -3.43045  -3.61552
H     2.50183  -1.68814  -3.29717
H     3.40616  -2.93980  -2.37253
H    -2.04312  -1.25773   2.37379
H    -1.91045  -2.85408   1.58780
H    -0.86414  -2.44301   2.95913
H    -0.68318   0.68250  -3.27315
H     0.72057  -0.12994  -2.56965
H    -0.18107  -0.92580  -3.90164
H    -3.07556   1.82921  -0.49573
H    -5.48491   1.87928   0.06006
H    -6.71118  -0.24891   0.51900
H    -5.49256  -2.42431   0.38583
H    -3.07776  -2.46733  -0.15865
H    -2.00714   0.80534   1.86062
H    -1.96138   2.49025   1.28481
H    -0.87988   1.96713   2.58208
H     1.20469   1.65053  -1.62441
H     3.13204   3.15667  -1.94062
H     3.85854   4.67349  -0.09161
H     2.61017   4.66095   2.07033
H     0.69066   3.16174   2.39117
H    -0.39746  -0.05875   3.46097
H     1.17391  -0.86932   3.58559
H     1.10878   0.85486   3.18237
