34
Generated by autodE on: 2022-05-26. E = -1068.027035 Ha
C    -2.19506   4.07794   1.00197
O    -1.93741   2.90167   0.21616
C    -0.83534   2.21283   0.50589
O    -0.04057   2.53579   1.36383
C    -0.72604   0.96952  -0.34897
C     0.64874   0.28004  -0.27796
C     1.29641   0.13893  -1.64679
O     0.83053   0.55306  -2.68528
O     2.45386  -0.51084  -1.55687
C     3.14658  -0.79538  -2.78321
C     0.23223  -1.11594   0.31269
C     1.22406  -2.26439   0.18640
C     0.92454  -3.30701  -0.84113
O     2.18392  -2.27818   0.92964
O    -1.02492  -1.33597  -0.33156
C    -1.67278  -0.17419   0.13517
C    -3.12647  -0.11919  -0.19821
O    -1.47035  -0.26760   1.58832
C    -0.24852  -0.82349   1.75069
O     0.28337  -1.00133   2.80998
H    -3.13507   4.49324   0.62203
H    -2.29545   3.81181   2.06377
H    -1.37890   4.80386   0.87943
H    -0.98854   1.21493  -1.38507
H     1.35210   0.78888   0.39403
H     3.42671   0.14000  -3.28762
H     4.04166  -1.35885  -2.49740
H     2.51006  -1.39771  -3.44663
H    -0.00298  -3.83130  -0.55683
H     0.73599  -2.83737  -1.81955
H     1.75697  -4.01862  -0.90620
H    -3.24358  -0.10795  -1.29044
H    -3.63487  -0.99939   0.21871
H    -3.56905   0.79523   0.21675
