16
Generated by autodE on: 2022-05-26. E = -533.379516 Ha
C    -2.25730   0.92285   1.45934
C    -1.83855   0.11278   0.25690
O    -2.65878  -0.42946  -0.49306
C    -0.43058  -0.00954   0.00722
O     0.50535   0.60601   0.85961
C     1.69509   0.34915   0.42635
C     2.90286   0.85620   1.09008
O     1.70453  -0.37953  -0.63328
C     0.25448  -0.68269  -1.00596
O     0.04227  -1.35743  -1.97754
H    -3.35259   0.92511   1.52912
H    -1.88781   1.95738   1.37428
H    -1.82615   0.49839   2.38008
H     3.43846   1.52235   0.39445
H     2.63030   1.39969   2.00172
H     3.56776   0.01081   1.32481
