18
Generated by autodE on: 2022-05-26. E = -534.601419 Ha
C     4.16381  -0.59278   0.36519
O     2.76498  -0.80287   0.60429
C     1.91609  -0.00991  -0.05786
O     2.26972   0.85994  -0.83193
C     0.50832  -0.33524   0.27839
C    -0.50831   0.33536  -0.27844
C    -1.91607   0.00996   0.05782
O    -2.26969  -0.85990   0.83186
O    -2.76504   0.80295  -0.60421
C    -4.16382   0.59253  -0.36512
H     4.45322   0.42859   0.65278
H     4.39969  -0.75277  -0.69707
H     4.69084  -1.32608   0.98624
H     0.33112  -1.14044   0.99466
H    -0.33108   1.14056  -0.99469
H    -4.39978   0.75253   0.69711
H    -4.45293  -0.42895  -0.65267
H    -4.69098   1.32570  -0.98621
