34
Generated by autodE on: 2022-05-26. E = -1067.971810 Ha. Imaginary frequency = -413.4 cm-1
C    -2.68252   4.00353   0.58157
O    -2.21197   2.86963  -0.16158
C    -1.05009   2.33415   0.23154
O    -0.38908   2.76646   1.15721
C    -0.69787   1.14687  -0.58311
C     0.62101   0.69268  -0.55669
C     1.17229  -0.03580  -1.72025
O     0.50957  -0.45791  -2.65191
O     2.49704  -0.18525  -1.62144
C     3.14971  -0.92311  -2.66481
C     0.26631  -1.35484   0.57784
C     1.24308  -2.37388   0.17422
C     0.80827  -3.36537  -0.86524
O     2.35341  -2.36934   0.69075
O    -1.00613  -1.37669   0.07936
C    -1.65439  -0.35595   0.64310
C    -3.11945  -0.23729   0.49843
O    -1.06169  -0.04857   1.81650
C     0.23595  -0.60938   1.81880
O     1.01959  -0.39823   2.70559
H    -3.63458   4.29173   0.12149
H    -2.83487   3.73322   1.63642
H    -1.96213   4.83163   0.51607
H    -1.29796   0.96235  -1.47567
H     1.33991   1.12486   0.14021
H     2.77784  -1.95719  -2.69195
H     2.97878  -0.44473  -3.63975
H     4.21720  -0.91223  -2.41759
H    -0.01275  -3.98088  -0.46151
H     0.41601  -2.84817  -1.75386
H     1.65625  -4.00596  -1.13693
H    -3.40209  -0.45138  -0.53972
H    -3.60237  -0.96608   1.17048
H    -3.44496   0.77317   0.77419
