20
Generated by autodE on: 2022-05-28. E = -586.145259 Ha
C    -4.70981  -0.00856  -0.12079
N    -3.45629   0.36083   0.49795
C    -2.24867   0.03932  -0.00226
O    -2.06648  -0.60274  -1.05050
N    -1.19909   0.51604   0.80037
N    -0.06225   0.17551   0.27567
C     1.14172   0.43252   0.72466
C     2.25954  -0.07380  -0.06437
O     2.14076  -0.70691  -1.10389
O     3.43563   0.24016   0.49141
C     4.61059  -0.21144  -0.19600
H    -5.31204  -0.64387   0.54840
H    -5.30485   0.88274  -0.37646
H    -4.50185  -0.56708  -1.04089
H    -3.46723   0.88654   1.36640
H    -0.12918  -0.37023  -0.61360
H     1.27114   0.99735   1.64670
H     4.65268   0.21406  -1.20932
H     5.46197   0.14038   0.39789
H     4.62082  -1.30938  -0.26108
