39
Generated by autodE on: 2022-06-19. E = -1043.620041 Ha
C     3.61773   1.22024  -1.25033
O     2.62062   0.36754  -0.66039
C     1.95409   0.86010   0.36631
O     2.18287   1.92759   0.89314
C     0.80204  -0.05406   0.83988
C     0.79012  -0.00215   2.31701
N     0.76036  -0.03481   3.47651
C    -0.62538   0.47731   0.30985
N    -0.72636   1.84543  -0.07392
C    -0.89050   2.84802   0.96692
C    -0.27649   2.20293  -1.34206
C    -0.04363   1.31405  -2.32526
C    -0.20926  -0.16555  -2.13890
C    -0.95505  -0.52368  -0.82464
C    -2.44961  -0.64348  -1.12459
N    -3.16307   0.48784  -1.05171
O    -2.92700  -1.73273  -1.45668
C    -0.38353  -1.83144  -0.24192
C    -1.26962  -2.44809   0.77720
N    -1.87095  -2.93420   1.64289
N     0.88032  -1.40395   0.32638
C     1.71582  -2.37439   1.00368
H     3.14033   2.13033  -1.64094
H     4.06225   0.64007  -2.06614
H     4.38021   1.48744  -0.50592
H    -1.32458   0.30390   1.13925
H     0.04381   3.04111   1.51970
H    -1.23458   3.78889   0.51547
H    -1.65518   2.50909   1.68210
H    -0.16461   3.27742  -1.50147
H     0.28072   1.68095  -3.30046
H     0.77561  -0.65807  -2.12889
H    -0.75962  -0.60703  -2.98544
H    -2.72860   1.36002  -0.75963
H    -4.15194   0.46669  -1.28282
H    -0.21982  -2.58449  -1.02750
H     2.71376  -1.94348   1.17098
H     1.30549  -2.69758   1.98000
H     1.82782  -3.26163   0.36361
