20
Generated by autodE on: 2022-06-19. E = -457.715346 Ha
C     3.10027  -0.68258  -0.13656
N     1.80914  -0.13978   0.25414
C     1.75719   0.94556   1.13819
C     0.61018   1.56414   1.46010
C    -0.73202   1.15072   0.90891
C    -0.57075   0.00594  -0.07788
C    -1.72948  -0.55558  -0.79084
N    -2.93302  -0.00049  -0.49963
O    -1.64534  -1.48336  -1.62129
C     0.64878  -0.54563  -0.33447
H     3.66788   0.02920  -0.76021
H     3.70265  -0.91848   0.75388
H     2.94906  -1.60633  -0.70921
H     2.72199   1.25058   1.54745
H     0.64994   2.40080   2.16139
H    -1.41249   0.86663   1.73833
H    -1.22967   2.01803   0.42967
H    -3.75813  -0.35745  -0.96885
H    -3.04333   0.74670   0.17374
H     0.73599  -1.36731  -1.04715
