19
Generated by autodE on: 2022-06-19. E = -585.866343 Ha
C    -3.49328   0.11151   1.38594
O    -2.41249  -0.49826   0.66888
C    -1.27113   0.20417   0.58655
O    -1.13455   1.31063   1.09310
C    -0.25830  -0.52306  -0.16774
C    -0.57808  -1.79815  -0.68401
N    -0.85752  -2.85092  -1.10450
N     1.00330  -0.02133  -0.39570
C     1.91960  -0.89237  -1.16874
C     1.42947   1.16011   0.02709
C     2.73358   1.63031  -0.22437
N     3.79244   2.09253  -0.38927
H    -3.78569   1.05967   0.91167
H    -3.20777   0.29806   2.43145
H    -4.32239  -0.60416   1.34273
H     2.05609  -1.83350  -0.62273
H     1.47462  -1.09068  -2.15112
H     2.88277  -0.39162  -1.29266
H     0.73680   1.78328   0.59162
