39
Generated by autodE on: 2022-06-19. E = -1043.569925 Ha. Imaginary frequency = -169.5 cm-1
C     3.16095   1.76846  -0.62334
O     2.31180   0.69376  -0.22547
C     2.07016   0.56525   1.10702
O     2.53015   1.37402   1.92203
C     1.25688  -0.56127   1.43440
C     1.00825  -0.83693   2.78874
N     0.79636  -1.07237   3.91876
C    -1.21944   0.97817  -0.38618
N    -0.50302   2.04329  -0.69740
C    -0.32848   3.14299   0.25093
C     0.13566   2.13886  -1.95737
C     0.22293   1.07488  -2.76182
C    -0.22761  -0.28326  -2.31507
C    -1.24573  -0.20318  -1.18333
C    -2.56016  -0.88674  -1.44747
N    -3.66138  -0.42550  -0.82343
O    -2.60357  -1.85819  -2.21296
C    -0.50658  -1.66090   0.19816
C    -1.44842  -1.43480   1.26524
N    -2.24584  -1.24896   2.08886
N     0.80790  -1.48699   0.44230
C     1.80642  -2.31423  -0.24490
H     2.70983   2.74396  -0.38884
H     3.28222   1.67339  -1.70893
H     4.14193   1.69932  -0.12953
H    -1.80165   1.05990   0.53496
H     0.67827   3.09365   0.69080
H    -0.44956   4.10046  -0.27245
H    -1.07568   3.05825   1.04883
H     0.50953   3.13207  -2.20196
H     0.68561   1.18704  -3.74454
H     0.66922  -0.83995  -1.99187
H    -0.65084  -0.86097  -3.14835
H    -3.65703   0.37498  -0.20330
H    -4.52608  -0.94777  -0.92710
H    -0.76728  -2.50627  -0.44660
H     2.59553  -1.67911  -0.66474
H     2.25820  -3.01044   0.48019
H     1.33286  -2.88764  -1.05136
