30
Generated by autodE on: 2022-10-06. E = -1024.865182 Ha
C    -2.01261   2.99641  -1.14746
C    -2.10517   1.87198  -0.14888
O    -2.90810   1.85290   0.79426
N    -1.24373   0.85324  -0.32158
O    -0.36525   0.85872  -1.48275
N     0.60715  -0.10840  -1.20176
C     1.70768   0.43896  -0.46339
C     1.70304   1.74714   0.03921
C     2.82680   2.23686   0.71219
C     3.95801   1.43710   0.89012
C     3.96427   0.13750   0.37116
C     2.85404  -0.35846  -0.31106
C    -0.19250  -1.18354  -0.56279
C     0.64344  -2.30469   0.11092
O     0.81583  -2.23106   1.34885
O     1.08354  -3.18505  -0.66886
C    -1.13837  -0.40681   0.37448
C    -2.49148  -1.15754   0.53334
O    -2.63908  -1.77484   1.61448
O    -3.27715  -1.12027  -0.44308
H    -1.02130   3.47385  -1.10226
H    -2.14997   2.61816  -2.17196
H    -2.78843   3.73646  -0.91591
H     0.83133   2.38433  -0.09473
H     2.80983   3.25755   1.10198
H     4.83157   1.82479   1.41881
H     4.84726  -0.49573   0.48622
H     2.87031  -1.35942  -0.74147
H    -0.78755  -1.63213  -1.36915
H    -0.66725  -0.27513   1.35768
