20
Generated by autodE on: 2022-10-13. E = -569.726628 Ha
C    -4.26156   1.10687  -0.10739
C    -2.85085   0.56973  -0.11543
O    -2.58023  -0.52246  -0.63101
N    -1.99660   1.39155   0.56486
O    -0.71419   0.89930   0.65471
N    -0.16470   0.40514  -0.39422
C     1.06743  -0.13858  -0.13437
C     1.64383  -0.26443   1.15674
C     2.90829  -0.81599   1.27373
C     3.60241  -1.25307   0.12999
C     3.03061  -1.14140  -1.14339
C     1.76415  -0.58812  -1.28214
H    -4.32682   2.09187   0.37234
H    -4.61874   1.17443  -1.14682
H    -4.91448   0.39479   0.42181
H     1.08845   0.06244   2.03550
H     3.36691  -0.92055   2.25878
H     4.59678  -1.69120   0.24000
H     3.57595  -1.48816  -2.02273
H     1.28726  -0.48463  -2.25798
