20
Generated by autodE on: 2022-10-06. E = -569.728248 Ha
C     3.55625  -0.97330  -1.17746
C     2.90792   0.14796  -0.40484
O     3.55116   1.10177   0.03433
N     1.54365  -0.03507  -0.27859
O     1.05595   1.04219   0.40883
N    -0.17480   1.18898   0.69946
C    -1.16048   0.29494   0.36311
C    -1.08783  -0.93691  -0.35110
C    -2.25312  -1.66423  -0.56226
C    -3.48784  -1.20564  -0.08524
C    -3.57243   0.00500   0.61892
C    -2.42629   0.74757   0.84074
H     2.87260  -1.81129  -1.36382
H     4.43937  -1.32510  -0.62295
H     3.90990  -0.57600  -2.14311
H    -0.13389  -1.29119  -0.71988
H    -2.19964  -2.60740  -1.10943
H    -4.39039  -1.79452  -0.26327
H    -4.53555   0.36028   0.98936
H    -2.46031   1.69269   1.38410
