10
Generated by autodE on: 2022-10-06. E = -455.051694 Ha
O    -2.04340  -1.34975  -0.72344
C    -1.95336  -0.21591  -0.17730
O    -2.92048   0.52987   0.14362
C    -0.57176   0.32324   0.13211
C     0.57181  -0.32342  -0.13164
C     1.95338   0.21581   0.17752
O     2.04336   1.34998   0.72299
O     2.92047  -0.52987  -0.14373
H    -0.52971   1.31052   0.60460
H     0.52978  -1.31073  -0.60405
