30
Generated by autodE on: 2022-10-06. E = -1024.783004 Ha. Imaginary frequency = -208.6 cm-1
C    -3.57880   1.73510  -0.76347
C    -2.08943   1.60339  -0.95539
O    -1.56151   1.73975  -2.05893
N    -1.42185   1.46098   0.24422
O    -0.07627   1.39438   0.15733
N     0.39972   0.44225  -0.62014
C     1.78802   0.39493  -0.54061
C     2.57109   1.18483   0.32884
C     3.95281   1.02760   0.32883
C     4.56358   0.09236  -0.51903
C     3.78520  -0.69552  -1.37566
C     2.40214  -0.54886  -1.38851
C    -0.45160  -1.30698   0.60060
C     0.70946  -1.32476   1.56626
O     0.70641  -0.46592   2.49089
O     1.60311  -2.18592   1.34805
C    -1.68302  -0.80059   0.94872
C    -2.93835  -1.14950   0.17673
O    -4.01498  -1.12409   0.83104
O    -2.81239  -1.43296  -1.04472
H    -3.86638   2.78004  -0.96422
H    -4.08499   1.09407  -1.49872
H    -3.89832   1.45824   0.24736
H     2.09194   1.90534   0.98970
H     4.56514   1.63750   0.99660
H     5.64973  -0.02210  -0.50960
H     4.26078  -1.42568  -2.03361
H     1.77311  -1.15428  -2.04317
H    -0.37990  -1.93965  -0.28574
H    -1.81203  -0.37406   1.94380
