58
Generated by autodE on: 2022-06-30. E = -4102.430550 Ha
C     4.09725  -6.78897  -7.75128
O     3.07716  -6.84462  -8.76328
C     3.12643  -7.86411  -9.60382
O     4.01149  -8.69327  -9.61658
C     1.92389  -7.90293 -10.58724
C     2.43684  -8.81909 -11.72379
O     3.04235  -8.41654 -12.69181
O     2.17223 -10.09417 -11.48340
C     2.64073 -11.06187 -12.43365
C     1.61414  -6.46146 -11.10430
C     0.17276  -6.12654 -11.47865
C    -0.41961  -6.80183 -12.71464
C    -0.51239  -8.33314 -12.73457
C    -1.18041  -9.02895 -11.52962
Br   -1.17224 -11.01147 -12.02753
C    -2.62967  -8.49122 -11.41895
C    -3.77881  -9.21290 -12.04488
O    -2.75888  -7.41983 -10.85767
C    -0.46693  -8.96922 -10.21987
C     0.76039  -8.53872  -9.85931
N     0.95183  -8.89336  -8.43605
C     1.08487 -10.37685  -8.52199
O     2.10001 -10.99841  -8.38858
O    -0.12553 -10.87633  -8.77929
C    -1.00436  -9.64390  -8.92433
C    -2.44141 -10.02281  -8.76234
C    -3.37512  -9.03832  -8.40650
C    -4.72561  -9.36577  -8.28715
C    -5.15305 -10.67768  -8.51612
C    -4.22190 -11.66330  -8.85395
C    -2.86868 -11.33978  -8.97617
N    -0.41721  -8.76782  -7.93681
C    -0.53902  -9.14409  -6.53273
H     4.04243  -7.68524  -7.11707
H     3.88604  -5.88918  -7.16315
H     5.09138  -6.72186  -8.21437
H     2.21084 -10.86143 -13.42494
H     2.30184 -12.03419 -12.06067
H     3.73797 -11.03225 -12.49126
H     2.29135  -6.27862 -11.95115
H     1.90505  -5.77105 -10.30586
H     0.14954  -5.03989 -11.66131
H    -0.48259  -6.29362 -10.61218
H     0.17949  -6.52671 -13.59879
H    -1.42313  -6.38195 -12.88175
H     0.47505  -8.78234 -12.88056
H    -1.08885  -8.62133 -13.62552
H    -3.99723 -10.12139 -11.46115
H    -4.65693  -8.55517 -12.04094
H    -3.54060  -9.53599 -13.06883
H    -3.04580  -8.01266  -8.24154
H    -5.44667  -8.59173  -8.01620
H    -6.21175 -10.93171  -8.42679
H    -4.54776 -12.69139  -9.02584
H    -2.14517 -12.10856  -9.24122
H     0.10744  -8.48002  -5.94501
H    -1.57906  -8.98178  -6.22376
H    -0.26895 -10.19336  -6.32070
