37
Generated by autodE on: 2022-06-30. E = -3494.413272 Ha
C    -0.53228  -4.50895  -1.27894
O     0.10865  -3.25362  -0.99104
C    -0.07053  -2.26949  -1.86697
O    -0.73712  -2.35533  -2.87131
C     0.70216  -1.00828  -1.42735
C     2.20177  -1.32882  -1.47590
O     2.99583  -1.03950  -0.61081
O     2.51137  -1.93562  -2.61783
C     3.89481  -2.26886  -2.82837
C     0.27218  -0.59625  -0.09633
C    -0.32600   0.04297   0.74148
C    -1.17801   1.08166   1.26767
Br    0.03101   2.50092   2.11211
C    -2.07414   0.69031   2.46069
C    -1.54248  -0.35018   3.40077
O    -3.16703   1.20549   2.58090
C    -1.95310   1.70752   0.09788
C    -1.14646   1.99698  -1.18166
C    -0.98149   0.85146  -2.22082
C     0.40554   0.19529  -2.37884
H    -0.15727  -4.91600  -2.22859
H    -1.62138  -4.37369  -1.33749
H    -0.27350  -5.17502  -0.44848
H     4.24451  -2.94872  -2.03888
H     3.93884  -2.76193  -3.80566
H     4.50750  -1.35647  -2.83083
H    -0.47285  -0.20506   3.60766
H    -2.12336  -0.34814   4.33185
H    -1.64835  -1.33404   2.91208
H    -2.43217   2.62423   0.46819
H    -2.77035   1.00242  -0.13187
H    -0.16068   2.41047  -0.91132
H    -1.67759   2.81748  -1.68678
H    -1.21503   1.27679  -3.20865
H    -1.74436   0.07468  -2.05211
H     0.52714  -0.17982  -3.40412
H     1.19143   0.94781  -2.21057
