21
Generated by autodE on: 2022-06-30. E = -607.999655 Ha
C    -1.82017  -1.62330  -1.09222
N    -1.60515  -0.38634  -0.35803
N    -2.69645   0.35077   0.02716
C    -2.20960   1.37897   0.72207
O    -2.73708   2.32014   1.28855
O    -0.76994   1.25444   0.73797
C    -0.47404   0.15703   0.04876
C     0.90666  -0.26642  -0.12590
C     1.84427   0.10532   0.85830
C     3.17776  -0.27482   0.72848
C     3.59198  -1.01780  -0.38264
C     2.66827  -1.37292  -1.37045
C     1.32985  -1.00008  -1.25078
H    -1.86841  -1.42310  -2.17164
H    -1.01087  -2.32881  -0.87616
H    -2.77466  -2.04162  -0.75355
H     1.51698   0.68178   1.72456
H     3.89775   0.00873   1.49886
H     4.63857  -1.31403  -0.48216
H     2.99237  -1.93685  -2.24744
H     0.62995  -1.25270  -2.04625
