56
Generated by autodE on: 2022-06-12. E = -1909.841213 Ha
C     5.04929  -3.66686   5.04782
C     4.21477  -2.47134   5.34134
O     3.34712  -2.40109   6.17908
C     4.41875  -1.20625   4.41524
C     5.79304  -1.06138   3.89073
N     6.86106  -0.94674   3.45556
O     3.53329  -1.44298   3.32848
C     2.86469  -0.23154   3.02232
C     1.54487  -0.60721   2.46998
N     0.57570  -0.97483   1.95516
C     3.62001   0.44278   1.92631
N     4.28760   0.83539   1.06454
C     2.91083   0.60198   4.34388
C     3.90955   0.07268   5.07980
C     4.62022   0.52860   6.34855
Cl    5.57369   2.08466   5.95215
C     5.72363  -0.38576   6.68963
N     6.58102  -1.09487   7.01509
C     3.77988   0.66741   7.65449
C     2.28460   0.92349   7.54802
C     1.83602   2.30060   7.07495
C     2.28276   2.74230   5.68217
C     1.96630   1.79546   4.48294
C     0.51758   1.30375   4.67445
C     0.20512  -0.01104   5.04084
C    -1.11791  -0.39449   5.28433
C    -2.15076   0.53699   5.17792
C    -1.84878   1.85911   4.83141
C    -0.52902   2.23696   4.58627
C     2.15009   2.60218   3.17021
C     1.24972   2.51427   2.09676
C     1.49011   3.20113   0.90299
C     2.63327   3.98864   0.76005
C     3.53660   4.08477   1.82328
C     3.29803   3.39710   3.01227
H     4.67989  -4.53312   5.60997
H     6.09180  -3.45053   5.33539
H     5.04767  -3.86909   3.96458
H     3.90201  -0.29589   8.17075
H     4.28160   1.42260   8.27681
H     1.88757   0.76995   8.56425
H     1.83088   0.13041   6.94031
H     2.20386   3.05959   7.78602
H     0.73740   2.33413   7.13227
H     1.77589   3.69063   5.45371
H     3.35031   2.97488   5.68981
H     0.98981  -0.76187   5.14639
H    -1.33412  -1.42893   5.56053
H    -3.18454   0.23967   5.36822
H    -2.64587   2.60219   4.75368
H    -0.30990   3.27348   4.32480
H     0.34989   1.90809   2.18119
H     0.77525   3.11396   0.08162
H     2.82204   4.52303  -0.17382
H     4.44001   4.69071   1.72381
H     4.03705   3.45806   3.81046
