15
Generated by autodE on: 2022-07-27. E = -583.361692 Ha
C     1.72281  -2.16150   2.09466
C     0.44293  -1.66767   1.49605
O    -0.65858  -2.13364   1.72729
C     0.55245  -0.52042   0.54438
C     1.78260   0.09131   0.20884
N     2.82922   0.55272  -0.01510
O    -0.58413  -0.12817   0.04537
C    -0.95265   0.78877  -0.81652
C    -2.34645   0.88220  -1.04377
N    -3.48918   0.98204  -1.24612
C    -0.05028   1.63680  -1.49876
N     0.64973   2.35553  -2.09141
H     1.51305  -3.00387   2.76485
H     2.21865  -1.35012   2.65228
H     2.41603  -2.47799   1.29807
