56
Generated by autodE on: 2022-06-12. E = -1909.741215 Ha. Imaginary frequency = -200.8 cm-1
C     5.50113  -3.55987   5.17039
C     4.21001  -2.93672   4.74462
O     3.10670  -3.36664   5.01940
C     4.29029  -1.70610   3.87187
C     5.54141  -1.19718   3.41730
N     6.59821  -0.85180   3.07485
O     3.17704  -1.50619   3.21244
C     2.80326  -0.46723   2.48071
C     1.46073  -0.55886   2.01555
N     0.37038  -0.64577   1.62032
C     3.72270   0.34421   1.76126
N     4.45431   0.99043   1.12789
C     2.96988   0.91022   4.73648
C     3.85496   0.26745   5.31150
C     4.57831   0.16868   6.59627
Cl    6.39765   0.33202   6.33500
C     4.36921  -1.12398   7.26278
N     4.18336  -2.11317   7.83729
C     4.11713   1.30179   7.54864
C     2.58748   1.30815   7.75255
C     1.84820   2.52779   7.17963
C     2.16362   2.97089   5.74956
C     1.92004   1.93952   4.57965
C     0.52544   1.32341   4.74690
C     0.33110  -0.04264   4.98599
C    -0.95528  -0.55834   5.17740
C    -2.06558   0.28619   5.14184
C    -1.88015   1.65500   4.91637
C    -0.59689   2.16756   4.72479
C     2.12859   2.67654   3.23860
C     1.19645   2.62395   2.19414
C     1.44198   3.28242   0.98402
C     2.61953   4.00819   0.80111
C     3.55751   4.06380   1.83734
C     3.31540   3.40071   3.04001
H     5.30454  -4.34720   5.90740
H     6.19207  -2.81221   5.58759
H     5.99173  -3.99260   4.28152
H     4.65199   1.16026   8.49816
H     4.47600   2.24262   7.10919
H     2.37717   1.26533   8.83138
H     2.14916   0.38774   7.33602
H     2.07055   3.40015   7.81735
H     0.76685   2.34657   7.28062
H     1.54266   3.84842   5.51586
H     3.20577   3.30979   5.68681
H     1.18185  -0.72463   5.01696
H    -1.08341  -1.62869   5.35462
H    -3.07024  -0.11608   5.29110
H    -2.73997   2.32858   4.89113
H    -0.46785   3.23721   4.55068
H     0.27119   2.06394   2.31239
H     0.70167   3.22304   0.18273
H     2.80995   4.52299  -0.14343
H     4.49046   4.61636   1.70450
H     4.07499   3.42978   3.82275
