42
Generated by autodE on: 2022-06-18. E = -937.466976 Ha
C     0.05266   2.76179  -2.14958
C    -0.92188   2.37698  -1.31374
C    -2.38057   2.57858  -1.60998
C    -0.64783   1.66481   0.00098
C     0.79178   1.74654   0.44798
C     1.36464   2.96441   0.95750
N     1.79620   3.96191   1.36698
N     1.49889   0.68572   0.33291
C     0.65371  -0.36232  -0.24749
C     1.02118  -0.57962  -1.74412
C     2.45911  -0.40257  -2.12326
O     0.16163  -0.91171  -2.53287
C     0.89176  -1.73515   0.41162
O     0.36829  -2.74677  -0.06215
N     1.67202  -1.73992   1.49694
C     1.94670  -2.95867   2.23371
C    -0.83119   0.11816  -0.08057
C    -1.50934  -0.42184   1.14568
C    -2.40410  -1.42566   1.18456
C    -3.01145  -1.86839   2.48809
C    -2.86516  -2.19741  -0.02168
H    -0.18626   3.24768  -3.09976
H     1.11248   2.60442  -1.93177
H    -2.92269   1.61831  -1.57321
H    -2.84319   3.22807  -0.84721
H    -2.53551   3.03088  -2.59974
H    -1.30662   2.09469   0.77164
H     2.62499  -0.76907  -3.14428
H     2.71543   0.66765  -2.06916
H     3.11392  -0.92543  -1.40971
H     2.10345  -0.86546   1.77945
H     2.55623  -2.71252   3.11126
H     1.01107  -3.43136   2.56984
H     2.49256  -3.68689   1.61306
H    -1.38409  -0.15851  -0.98227
H    -1.22399   0.05490   2.09091
H    -2.76509  -2.92540   2.69180
H    -2.66198  -1.26046   3.33556
H    -4.11341  -1.81048   2.44643
H    -2.35299  -1.91028  -0.94832
H    -2.69013  -3.27526   0.13626
H    -3.95315  -2.07599  -0.16512
