19
Generated by autodE on: 2022-06-18. E = -585.859059 Ha
C     3.45433   0.96484   0.00440
N     2.02356   0.74253   0.08160
C     1.49124  -0.45860  -0.23359
O     2.19320  -1.40495  -0.60160
C     0.00425  -0.57969  -0.12125
N    -0.70034   0.49424   0.13281
C    -1.35390   1.44957   0.35867
C    -2.10111   2.54735   0.62269
N    -2.74850   3.49740   0.85156
C    -0.73382  -1.85335  -0.27534
C    -2.23635  -1.78038  -0.14793
O    -0.15917  -2.91349  -0.48999
H     3.83529   0.74244  -1.00427
H     4.00305   0.33075   0.71990
H     3.65983   2.01686   0.23620
H     1.44067   1.49318   0.43351
H    -2.65881  -1.09884  -0.90385
H    -2.52523  -1.39142   0.84174
H    -2.65497  -2.78519  -0.28358
