42
Generated by autodE on: 2022-06-18. E = -937.382840 Ha. Imaginary frequency = -352.9 cm-1
C    -0.57390   4.14674  -0.64650
C    -0.86110   2.85332  -0.89438
C    -1.28390   2.38538  -2.26146
C    -0.79274   1.86036   0.19978
C     1.38410   1.49774   0.09782
C     2.16364   2.62061   0.38883
N     2.70448   3.61552   0.66661
N     1.59233   0.35551  -0.26351
C     0.97386  -0.78880  -0.56121
C     0.67968  -1.07245  -1.97886
C     1.37103  -0.21234  -3.00880
O    -0.07419  -1.98260  -2.31518
C     0.85146  -1.81716   0.50933
O     0.26111  -2.88818   0.32651
N     1.41332  -1.50786   1.69875
C     1.27160  -2.37931   2.84785
C    -1.33868   0.58045   0.10614
C    -1.65494  -0.21026   1.26618
C    -2.32766  -1.39282   1.27493
C    -2.60678  -2.10535   2.56463
C    -2.85433  -2.06968   0.04252
H    -0.62746   4.90122  -1.43601
H    -0.28254   4.48322   0.35250
H    -0.66990   1.54241  -2.60979
H    -2.32709   2.02786  -2.24738
H    -1.20853   3.19775  -2.99761
H    -0.67590   2.27715   1.20580
H     0.88925  -0.35679  -3.98413
H     1.37012   0.85298  -2.74177
H     2.42650  -0.52729  -3.07729
H     1.86008  -0.60804   1.82997
H     0.24339  -2.36935   3.24501
H     1.52310  -3.41622   2.58110
H     1.95559  -2.04058   3.63588
H    -1.67598   0.22604  -0.86799
H    -1.32617   0.19650   2.22883
H    -2.10166  -3.08759   2.57246
H    -2.26791  -1.53224   3.43958
H    -3.68618  -2.31297   2.67456
H    -2.46517  -1.64548  -0.89062
H    -2.59887  -3.14121   0.05933
H    -3.95781  -2.01104   0.02076
