30
Generated by autodE on: 2022-10-06. E = -609.446732 Ha
C    -2.90420  -1.06533  -0.15047
N    -1.53094  -1.56907  -0.04957
C    -0.49981  -0.66339  -0.45170
N    -0.49060  -0.36938  -1.85480
N     0.84171  -1.31931  -0.13325
C     1.85735  -0.21026   0.15214
C     2.78066  -0.01299  -1.03461
C     2.61629  -0.52134   1.43062
O     1.03167   0.94615   0.29454
C    -0.34379   0.60734   0.47816
C    -0.69535   0.40543   1.95271
C    -1.12575   1.73228  -0.06622
N    -1.75383   2.61957  -0.46674
H    -3.09925  -0.29319   0.60516
H    -3.58693  -1.90132   0.05039
H    -3.16515  -0.64922  -1.14077
H    -1.44930  -2.40283  -0.63507
H     0.02733   0.48131  -2.07930
H    -1.44401  -0.25186  -2.19481
H     1.13181  -1.90274  -0.92963
H     0.72694  -1.92941   0.68760
H     3.43959  -0.88499  -1.15066
H     3.40092   0.87339  -0.84370
H     2.21854   0.14201  -1.96487
H     3.27708   0.32672   1.65602
H     1.93548  -0.67556   2.27828
H     3.23255  -1.42135   1.29343
H    -0.32106   1.27163   2.51552
H    -0.23568  -0.50658   2.35259
H    -1.78123   0.33594   2.09223
