17
Generated by autodE on: 2022-10-13. E = -364.109596 Ha
C    -1.56091  -0.51265   1.15227
C    -0.78709   0.41218   0.26210
C    -1.40065   1.47147  -0.40970
N    -1.92267   2.39498  -0.92225
O     0.36158   0.01243  -0.38777
C     1.27324  -0.82926  -0.05920
C     2.34683  -1.02568  -1.06471
C     1.33651  -1.45688   1.28231
H    -2.54924  -0.06322   1.32807
H    -1.10868  -0.69975   2.13846
H    -1.72753  -1.49381   0.66816
H     2.41737  -2.09339  -1.33732
H     3.32567  -0.74889  -0.63397
H     2.15712  -0.43106  -1.96763
H     0.51677  -2.16773   1.46854
H     1.26330  -0.66667   2.05113
H     2.29013  -1.98741   1.39639
