13
Generated by autodE on: 2022-10-06. E = -245.298502 Ha
C    -1.92766  -0.42990   0.13058
N    -0.62376  -0.13929   0.70100
C     0.47113   0.10498  -0.02287
N     1.62999   0.36097   0.59192
N     0.41591   0.09477  -1.35648
H    -1.90354  -1.34205  -0.48720
H    -2.29390   0.40705  -0.48525
H    -2.63376  -0.58842   0.95324
H    -0.52748  -0.11627   1.71109
H     1.68051   0.39171   1.60410
H     2.46532   0.56165   0.05336
H    -0.44556  -0.11232  -1.84744
H     1.25199   0.27280  -1.90218
