52
Generated by autodE on: 2022-06-08. E = -1714.001124 Ha
C    -2.43447   3.04933   0.18714
C    -2.29591   1.73724  -0.52669
O    -3.18360   1.24676  -1.19668
C    -0.90911   1.09054  -0.49736
O    -0.15316   1.56835   0.59483
C     0.87594   0.66887   1.01021
C     0.69093   0.44992   2.52486
C     2.25989   1.37512   0.96489
C     2.26242   2.87756   0.92409
O     3.27364   0.72134   1.11043
C     0.74972  -0.58872   0.02433
C     1.74158  -0.44774  -1.16465
C     2.43943  -1.53269  -1.72101
C     3.31006  -1.35963  -2.80057
C     3.50616  -0.10022  -3.36595
C     2.81813   0.98937  -2.83028
C     1.95422   0.81316  -1.75039
C     1.02875  -1.91640   0.78169
F     0.76624  -3.00542   0.03314
F     2.31883  -1.99091   1.14716
F     0.31014  -2.07898   1.90080
C    -0.79060  -0.46120  -0.47868
C    -1.81448  -1.12142   0.46639
C    -2.40398  -0.39144   1.50872
C    -3.32036  -0.98271   2.38110
C    -3.67243  -2.32437   2.22863
C    -3.09651  -3.06381   1.19306
C    -2.17883  -2.47157   0.32472
C    -1.01228  -1.01350  -1.92501
F    -0.43110  -2.21179  -2.11665
F    -0.52979  -0.20014  -2.88003
F    -2.31324  -1.17607  -2.19900
H    -1.65831   3.74584  -0.16949
H    -2.26873   2.92111   1.26757
H    -3.43307   3.46506   0.00236
H    -0.47069   1.45729  -1.44008
H     1.49642  -0.16629   2.93996
H    -0.27625   0.00050   2.76083
H     0.73492   1.43958   3.00228
H     1.71188   3.26328   0.05554
H     1.74568   3.26288   1.81823
H     3.29924   3.23673   0.91532
H     2.32374  -2.54033  -1.33530
H     3.83646  -2.22999  -3.19869
H     4.18637   0.03128  -4.21023
H     2.95001   1.98971  -3.24800
H     1.44853   1.69937  -1.37814
H    -2.14010   0.64969   1.67863
H    -3.75735  -0.38364   3.18293
H    -4.38974  -2.78931   2.90859
H    -3.35988  -4.11484   1.05483
H    -1.74516  -3.08706  -0.46026
