20
Generated by autodE on: 2022-06-08. E = -498.616693 Ha
C     2.43918  -0.29902  -1.31914
C     1.95632   1.09570  -0.99239
O     2.60966   2.10509  -1.29629
C     0.69464   1.24080  -0.31949
O     0.04211   0.13974  -0.01447
C    -1.11579   0.01461   0.57638
C    -1.87621   1.20723   0.98959
C    -1.54608  -1.36625   0.77604
C    -0.62916  -2.47013   0.31009
O    -2.62874  -1.59770   1.32088
H     1.76137  -0.77797  -2.04434
H     3.44669  -0.23663  -1.75042
H     2.45601  -0.93598  -0.42148
H     0.27056   2.21290  -0.06590
H    -2.81796   0.90207   1.45917
H    -1.29064   1.81777   1.70235
H    -2.09062   1.85468   0.11874
H    -0.37821  -2.35417  -0.75527
H     0.31880  -2.44221   0.87100
H    -1.12276  -3.43626   0.47443
