20
Generated by autodE on: 2022-07-27. E = -498.607865 Ha
C    -2.98976   0.29385   0.74349
C    -2.30569   0.47196  -0.59124
O    -2.93105   0.78554  -1.61432
C    -0.88011   0.27078  -0.67014
O    -0.27322  -0.06193   0.44574
C     0.96956  -0.31838   0.77636
C     1.17844  -0.66680   2.20934
C     2.03171  -0.25316  -0.21267
C     3.42582  -0.56123   0.26882
O     1.79973   0.04270  -1.39386
H    -2.57212   0.98730   1.49067
H    -2.83506  -0.72709   1.12728
H    -4.06430   0.48395   0.62434
H    -0.30860   0.38109  -1.58740
H     1.61767  -1.67295   2.31580
H     0.21950  -0.64270   2.74367
H     1.87264   0.03886   2.69572
H     4.12626  -0.47488  -0.57178
H     3.47592  -1.57870   0.68906
H     3.72329   0.13281   1.07139
