52
Generated by autodE on: 2022-06-08. E = -1713.928807 Ha. Imaginary frequency = -229.1 cm-1
C    -2.93233   2.70592   1.17159
C    -2.23569   2.34979  -0.11714
O    -2.77723   2.53675  -1.20437
C    -0.86045   1.82108  -0.11685
O    -0.24763   1.73608   1.05998
C     1.01770   1.42245   1.26792
C     1.34619   1.16201   2.70114
C     2.07020   1.91144   0.35010
C     3.47558   1.45898   0.62233
O     1.80256   2.70215  -0.55166
C     0.56196  -0.78189  -0.32674
C     1.63875  -0.87896  -1.37177
C     2.31949  -2.10456  -1.55528
C     3.30540  -2.24742  -2.53034
C     3.64980  -1.17263  -3.35449
C     2.98297   0.04203  -3.19270
C     1.98918   0.18472  -2.22220
C     0.84021  -1.64017   0.90029
F     2.14640  -1.62270   1.23921
F     0.16302  -1.29957   2.00472
F     0.53006  -2.94593   0.67459
C    -0.77795  -0.44795  -0.61240
C    -1.89328  -1.07728   0.20780
C    -2.42006  -0.53231   1.38403
C    -3.44392  -1.17984   2.07979
C    -3.95479  -2.39439   1.61815
C    -3.41884  -2.96399   0.45994
C    -2.39591  -2.31593  -0.23366
C    -1.20998  -0.30320  -2.08109
F    -0.66914   0.72875  -2.74975
F    -0.89356  -1.41301  -2.79024
F    -2.54025  -0.15463  -2.18191
H    -3.24408   3.75971   1.09945
H    -2.30927   2.57317   2.06309
H    -3.84635   2.09948   1.26470
H    -0.25787   2.04499  -0.98929
H     2.09405   0.36472   2.80013
H     0.44326   0.87938   3.25432
H     1.77594   2.07078   3.15907
H     3.84483   1.92077   1.55320
H     3.51616   0.36866   0.75569
H     4.11859   1.76634  -0.21167
H     2.07179  -2.97255  -0.94773
H     3.80421  -3.21240  -2.64637
H     4.42572  -1.28363  -4.11533
H     3.23358   0.89710  -3.82482
H     1.50229   1.14628  -2.12961
H    -2.00853   0.38228   1.79602
H    -3.83587  -0.72864   2.99421
H    -4.75654  -2.89942   2.16171
H    -3.79342  -3.92211   0.09231
H    -1.98200  -2.78285  -1.12815
