19
Generated by autodE on: 2022-06-03. E = -403.245293 Ha
C     3.99783   0.13923   0.20019
C     2.83157  -0.56823   0.79941
N     1.81239  -0.93296   0.23868
C     0.65925  -1.28029  -0.22128
C    -0.49806  -0.39551  -0.18739
C    -0.43215   0.90917   0.34755
C    -1.56549   1.72067   0.37535
C    -2.78567   1.25629  -0.13232
C    -2.86077  -0.03487  -0.66807
C    -1.73198  -0.85378  -0.69526
H     4.91491  -0.43623   0.40299
H     3.90043   0.31207  -0.88599
H     4.12423   1.10504   0.71564
H     0.55427  -2.29071  -0.62885
H     0.51653   1.28275   0.74039
H    -1.49676   2.72782   0.79422
H    -3.67021   1.89697  -0.11205
H    -3.80786  -0.40716  -1.06658
H    -1.79588  -1.86309  -1.11006
