33
Generated by autodE on: 2022-05-30. E = -1854.003399 Ha
C    -2.85243   1.24459   2.57576
O    -2.16591   0.43451   1.60475
C    -1.10126   0.97363   1.01752
O    -0.68938   2.08232   1.25337
C    -0.41367  -0.08692   0.13442
C    -1.53966  -0.86442  -0.57391
O    -2.46587  -0.28162  -1.09225
O    -1.38013  -2.17412  -0.57858
C    -2.36403  -2.94398  -1.29254
C     0.56848  -0.92341   1.07177
C    -0.01128  -1.91194   2.05243
N     1.52788  -1.43099   0.08102
C     1.97457  -0.16028  -0.40821
C     3.19485  -0.12729  -1.27741
O     2.24606   0.64815   0.81034
C     1.42493   0.16391   1.76298
O     1.41841   0.54005   2.90575
C     0.63252   0.41984  -0.96575
Cl    0.32386  -0.34774  -2.58060
Cl    0.73620   2.17277  -1.25266
H    -2.16690   1.51354   3.39140
H    -3.67470   0.62603   2.95133
H    -3.24195   2.15523   2.09998
H    -3.36211  -2.77461  -0.86553
H    -2.06636  -3.99131  -1.17304
H    -2.36022  -2.66087  -2.35457
H    -0.57290  -2.70120   1.54362
H    -0.67397  -1.39439   2.75835
H     0.80997  -2.36596   2.62646
H     2.29237  -1.94192   0.53006
H     4.05588  -0.48107  -0.69308
H     3.39053   0.89895  -1.61623
H     3.05966  -0.77873  -2.14883
