33
Generated by autodE on: 2022-05-30. E = -1853.969031 Ha. Imaginary frequency = -327.9 cm-1
C    -2.53762   1.18616   2.65087
O    -1.97698   0.41540   1.58324
C    -1.19305   1.07824   0.70728
O    -0.95640   2.26538   0.83287
C    -0.64612   0.16649  -0.31899
C    -1.37266  -1.11244  -0.59066
O    -0.85206  -2.19167  -0.80426
O    -2.69710  -0.93381  -0.63811
C    -3.49855  -2.10441  -0.85308
C     0.92760  -1.21146   1.42924
C     0.12708  -2.22065   2.15096
N     1.65568  -1.40323   0.32109
C     2.16625  -0.21744  -0.13392
C     3.34185  -0.12500  -1.03487
O     2.08392   0.65767   0.91765
C     1.24467   0.12476   1.89327
O     0.91867   0.74718   2.88315
C     0.42492   0.50262  -1.18246
Cl    0.55558  -0.35958  -2.73629
Cl    0.90194   2.18299  -1.40087
H    -1.74118   1.62233   3.26980
H    -3.13561   0.48473   3.24463
H    -3.17808   1.98943   2.25800
H    -3.33251  -2.83631  -0.04929
H    -4.53941  -1.76124  -0.84408
H    -3.25707  -2.56460  -1.82197
H    -0.07441  -3.09359   1.51915
H    -0.82490  -1.77061   2.46936
H     0.66144  -2.54583   3.05965
H     1.56534  -2.22793  -0.27384
H     4.26771  -0.28022  -0.45766
H     3.38110   0.86701  -1.50393
H     3.27432  -0.89284  -1.81591
