48
Generated by autodE on: 2022-07-04. E = -1074.917140 Ha
C     4.65736  -1.82726   1.53344
N     3.71513  -1.09154   0.71888
C     2.44893  -1.55721   0.50433
O     2.16062  -2.73449   0.83505
C     1.49726  -0.65085  -0.11470
C     1.56116   0.81063   0.01167
C     1.12325   1.64254  -1.04649
C     1.13795   3.02966  -0.93031
C     1.59471   3.64112   0.24589
C     2.02807   2.83742   1.30335
C     2.00384   1.44461   1.19313
N     0.34866  -1.20234  -0.69027
C     0.51713  -2.31802  -1.63649
C    -0.86233  -0.68252  -0.43500
C    -1.94402  -0.72162  -1.42220
C    -3.28148  -0.88457  -1.00065
C    -4.32172  -0.89572  -1.92714
C    -4.05374  -0.72808  -3.29149
C    -2.73496  -0.54511  -3.72058
C    -1.68879  -0.54052  -2.79830
C    -1.07323   0.03056   0.83898
C    -0.63123  -0.53965   2.05040
C    -0.84607   0.11842   3.25699
C    -1.48813   1.36610   3.27889
C    -1.92235   1.94138   2.08357
C    -1.72221   1.27538   0.87008
H     4.28903  -1.98006   2.56346
H     5.59957  -1.26631   1.58121
H     4.86573  -2.82066   1.10632
H     3.91446  -0.11970   0.51404
H     0.75982   1.18428  -1.96912
H     0.79636   3.64337  -1.76788
H     1.60608   4.72975   0.33541
H     2.37103   3.29572   2.23456
H     2.30656   0.83672   2.04695
H    -0.44179  -2.82011  -1.80315
H     0.92722  -1.95279  -2.58701
H     1.22064  -3.02577  -1.18646
H    -3.49574  -1.01622   0.06131
H    -5.34951  -1.03598  -1.58446
H    -4.87151  -0.73199  -4.01578
H    -2.51976  -0.39424  -4.78098
H    -0.66798  -0.36871  -3.14183
H    -0.11107  -1.49939   2.03113
H    -0.51099  -0.34028   4.19025
H    -1.64664   1.88366   4.22780
H    -2.41860   2.91458   2.09087
H    -2.05531   1.73030  -0.06414
