35
Generated by autodE on: 2022-07-04. E = -955.993954 Ha
C    -0.95820  -3.01497  -2.02503
O    -0.52193  -1.97803  -1.12782
C     0.26306  -1.04027  -1.63766
O     0.63592  -1.01396  -2.78997
C     0.62089   0.06363  -0.62064
C     2.14820   0.25607  -0.64663
F     2.54073   1.10990   0.31241
F     2.59209   0.74240  -1.81248
F     2.78299  -0.91056  -0.42783
C     0.16024  -0.22561   0.73638
C    -0.59762  -0.14620   1.67915
C    -1.71164   0.25845   2.54117
C    -1.22367   1.25969   3.60440
C    -2.38400  -0.94287   3.22363
C    -2.71634   0.93838   1.55433
C    -2.14375   1.95026   0.53963
C    -1.61754   1.41636  -0.82365
C    -0.09418   1.38544  -1.06105
H    -1.52528  -2.57896  -2.85935
H    -1.59845  -3.67479  -1.42927
H    -0.09210  -3.56811  -2.41443
H    -0.47386   0.79538   4.26298
H    -2.07393   1.58549   4.22381
H    -0.76896   2.14832   3.14225
H    -2.70133  -1.69220   2.48260
H    -3.27358  -0.60745   3.77948
H    -1.69653  -1.42665   3.93449
H    -3.24504   0.14312   1.00294
H    -3.47317   1.44179   2.17897
H    -2.96465   2.64759   0.31069
H    -1.36631   2.56831   1.01928
H    -2.02045   2.07663  -1.60661
H    -2.05006   0.42282  -1.03036
H     0.12240   1.52763  -2.12955
H     0.38283   2.21414  -0.51626
