67
Generated by autodE on: 2022-06-12. E = -1643.840261 Ha
C   -22.94874   0.15765 -23.67176
N   -21.63242   0.70866 -23.40671
C   -21.45316   1.59952 -22.42413
O   -22.36851   2.13476 -21.80248
C   -19.97092   2.01958 -22.10483
C   -18.91062   1.23310 -22.88951
O   -18.92855  -0.00753 -22.90057
N   -17.97433   1.95593 -23.49990
C   -16.84212   1.33486 -24.16085
N   -19.93194   3.43804 -22.41540
C   -19.84520   4.04822 -21.28760
C   -19.73885   3.17526 -20.09181
C   -19.75349   1.90259 -20.58933
C   -19.59805   0.52086 -19.96559
C   -20.58143  -0.42703 -20.52941
N   -21.39227  -1.18430 -20.86505
C   -18.17379  -0.02784 -20.26159
O   -17.21488   0.66582 -20.50764
O   -18.13670  -1.34697 -20.14732
C   -16.87394  -1.98607 -20.40693
C   -19.81430   0.44720 -18.42594
C   -21.22432   0.87492 -17.98665
C   -21.25893   2.17280 -17.18926
C   -21.07395   3.48113 -17.95733
C   -19.72126   3.80991 -18.68201
C   -18.49954   3.43029 -17.83500
C   -18.50161   3.69962 -16.45651
C   -17.38164   3.42390 -15.66984
C   -16.22766   2.88374 -16.24837
C   -16.20447   2.64071 -17.62316
C   -17.32806   2.92147 -18.40723
C   -19.64742   5.35752 -18.87173
C   -20.80527   6.14708 -18.95874
C   -20.72590   7.52252 -19.19815
C   -19.48518   8.14292 -19.35968
C   -18.32461   7.36873 -19.28118
C   -18.40748   5.99529 -19.03875
H   -23.68593   0.96562 -23.77032
H   -23.26949  -0.51089 -22.85537
H   -22.91519  -0.41316 -24.60808
H   -20.82264   0.15452 -23.67731
H   -18.05862   2.96737 -23.46101
H   -16.24477   2.11498 -24.64693
H   -16.21125   0.79997 -23.43336
H   -17.17862   0.61404 -24.92080
H   -19.82801   5.13749 -21.24791
H   -16.57204  -1.79751 -21.44688
H   -17.04157  -3.05631 -20.24409
H   -16.10613  -1.60655 -19.71889
H   -19.03972   1.05602 -17.94678
H   -19.61778  -0.59306 -18.13557
H   -21.89290   0.96133 -18.85931
H   -21.64849   0.07416 -17.36267
H   -20.53251   2.10563 -16.36448
H   -22.24874   2.25032 -16.70942
H   -21.25338   4.29010 -17.23616
H   -21.87294   3.55995 -18.71002
H   -19.38274   4.13983 -15.98783
H   -17.41082   3.63392 -14.59788
H   -15.35324   2.66214 -15.63196
H   -15.30927   2.22951 -18.09607
H   -17.29195   2.72282 -19.47574
H   -21.79202   5.69667 -18.86333
H   -21.64554   8.10939 -19.26127
H   -19.42318   9.21764 -19.54594
H   -17.34398   7.83415 -19.40719
H   -17.48663   5.41456 -18.98912
