47
Generated by autodE on: 2022-06-19. E = -1089.448349 Ha
C    -1.33361   1.23126  -3.08181
N    -0.87096   0.94303  -1.74214
C    -1.49344   0.10628  -0.90509
O    -2.57355  -0.44617  -1.13235
C    -0.78400  -0.08873   0.47960
C    -1.84710   0.48868   1.42280
O    -2.62715  -0.16502   2.07778
O    -1.88490   1.81707   1.34217
C    -2.89555   2.48861   2.11255
N     0.47370   0.65866   0.49136
C     0.91656   1.35183   1.70966
N     1.42683  -0.23908  -0.05048
C     2.40903   0.24975  -0.85481
O     3.27713  -0.43198  -1.38753
O     2.35105   1.59281  -0.97690
C     3.38148   2.19559  -1.76676
C     0.98317  -1.67012  -0.06676
C     2.04817  -2.57787   0.55725
C     0.73585  -2.14096  -1.50967
C    -0.34799  -1.58053   0.77762
C    -1.36349  -2.66034   0.39649
C    -0.04420  -1.75346   2.28053
H    -2.26836   0.68672  -3.26244
H    -1.51927   2.30904  -3.21073
H    -0.58705   0.91557  -3.82765
H    -0.01421   1.36815  -1.38957
H    -2.75940   3.55799   1.91717
H    -3.89502   2.16335   1.79114
H    -2.76339   2.27448   3.18247
H     0.52297   0.91591   2.64085
H     0.61685   2.40745   1.66911
H     2.01134   1.30736   1.74905
H     4.37257   1.98774  -1.33796
H     3.18202   3.27358  -1.74565
H     3.34719   1.82690  -2.80222
H     2.90899  -2.66015  -0.11902
H     2.40703  -2.19409   1.51984
H     1.63738  -3.58689   0.71087
H    -0.07101  -1.59295  -2.01074
H     1.65041  -2.01665  -2.10220
H     0.47748  -3.20826  -1.51115
H    -2.25647  -2.57081   1.03000
H    -1.68577  -2.61100  -0.64705
H    -0.91861  -3.65094   0.57857
H     0.78330  -1.12520   2.62986
H     0.23047  -2.79825   2.47797
H    -0.93056  -1.52755   2.88320
