18
Generated by autodE on: 2022-06-19. E = -235.968069 Ha
C    -1.76425  -0.78836   0.38963
C    -0.65967   0.14813  -0.03765
C    -1.20574   1.45613  -0.55774
C     0.65966  -0.14821   0.03748
C     1.76423   0.78832  -0.38974
C     1.20576  -1.45606   0.55793
H    -1.41546  -1.75445   0.77358
H    -2.38468  -0.31760   1.17339
H    -2.44625  -0.98825  -0.45633
H    -1.89148   1.27579  -1.40499
H    -0.43918   2.16504  -0.89261
H    -1.81096   1.95582   0.22003
H     2.44503   0.98990   0.45679
H     2.38594   0.31676  -1.17199
H     1.41536   1.75363  -0.77559
H     1.89025  -1.27547   1.40615
H     0.43916  -2.16542   0.89172
H     1.81229  -1.95528  -0.21910
