29
Generated by autodE on: 2022-06-19. E = -853.430380 Ha
C    -1.76151   0.60620   2.00422
N    -1.14037   1.47668   1.02444
C    -0.42768   1.10826  -0.04777
O     0.19037   1.90556  -0.76082
C    -0.44379  -0.35460  -0.43241
C    -1.75019  -1.04488  -0.58429
O    -1.93243  -2.24249  -0.48255
O    -2.72380  -0.16211  -0.81011
C    -4.06578  -0.67210  -0.84967
N     0.67543  -0.95762  -0.81387
C     0.64626  -2.22784  -1.57879
N     1.90667  -0.51319  -0.65301
C     2.18608   0.22795   0.46501
O     1.55545   0.26949   1.51543
O     3.36345   0.85517   0.29661
C     3.85027   1.59676   1.41939
H    -2.84026   0.47975   1.82068
H    -1.62681   1.03989   3.00474
H    -1.28010  -0.38007   2.00330
H    -1.15531   2.47908   1.19900
H    -4.71339   0.20066  -0.98775
H    -4.18258  -1.37297  -1.68842
H    -4.30506  -1.18270   0.09404
H     0.56889  -3.06254  -0.87173
H    -0.19687  -2.24175  -2.27484
H     1.59707  -2.27766  -2.11565
H     3.12721   2.37005   1.71795
H     4.04297   0.93113   2.27404
H     4.78626   2.06383   1.09031
