50
Generated by autodE on: 2022-10-22. E = -1663.421338 Ha
C     1.95589   4.78775  -0.32149
N     1.33361   3.74683   0.47547
C     0.57555   2.79226  -0.08439
O     0.36171   2.76775  -1.30391
C     0.00712   1.67555   0.82825
C    -0.02537   2.08433   2.30375
C     0.88054   0.41890   0.55112
C     1.07457  -0.55658   1.75115
O    -0.16356  -1.27515   1.76782
C    -0.05860  -1.78001   0.42910
C     1.33503  -2.39937   0.44233
Cl    1.76921  -3.65385  -0.67183
C     2.05993  -1.61721   1.26768
O     3.34228  -1.50174   1.62119
C     4.30679  -2.34459   0.98232
C     0.05324  -0.47335  -0.42074
C    -1.27090   0.29154  -0.69593
C    -1.37400   0.89039  -2.13647
C    -0.37701   0.51544  -3.19652
O    -2.34002   1.58730  -2.39890
C    -2.44119  -0.71307  -0.61997
O    -2.70777  -1.42666  -1.59599
N    -3.06585  -0.77829   0.55989
C    -4.04612  -1.79301   0.88300
N    -1.33045   1.28692   0.37066
C    -2.33604   2.33574   0.33971
H     1.20055   5.37388  -0.86791
H     2.65163   4.36077  -1.06120
H     2.51294   5.45901   0.34311
H     1.48539   3.74414   1.47685
H     0.99056   2.19303   2.70982
H    -0.54174   1.31240   2.88887
H    -0.55468   3.03620   2.44779
H     1.85875   0.70962   0.14989
H     1.31036  -0.11133   2.72171
H    -0.87497  -2.46552   0.18218
H     5.27980  -2.07761   1.41322
H     4.09298  -3.40505   1.18258
H     4.32053  -2.16653  -0.10323
H     0.57384  -0.70283  -1.35160
H     0.65375   0.72765  -2.88625
H    -0.61173   1.06259  -4.11914
H    -0.45999  -0.56824  -3.38272
H    -2.66196  -0.19749   1.29253
H    -4.60497  -2.06450  -0.02225
H    -3.56931  -2.70454   1.28280
H    -4.74721  -1.40670   1.63518
H    -3.30530   1.91848   0.04201
H    -2.09872   3.16018  -0.35692
H    -2.44981   2.76017   1.34838
