17
Generated by autodE on: 2022-10-22. E = -881.716534 Ha
C     2.79314  -1.29828   0.28177
O     1.92965  -0.17687   0.48885
C     0.70959  -0.22178  -0.06241
C    -0.19565   0.76672  -0.16673
Cl   -0.09906   2.39077   0.41115
C    -1.49389   0.08103  -0.63044
C    -1.99186  -0.82332   0.52703
C    -1.09082  -1.80604   0.60681
C    -0.06445  -1.49219  -0.51130
O    -0.92935  -0.91745  -1.50489
H     3.74256  -1.04941   0.77209
H     2.96941  -1.46851  -0.79213
H     2.37726  -2.20943   0.73958
H    -2.23073   0.71546  -1.13490
H    -2.86612  -0.62432   1.14575
H    -1.01581  -2.63572   1.30853
H     0.52498  -2.32568  -0.90560
