43
Generated by autodE on: 2022-06-21. E = -1141.967951 Ha
C    -0.27663   0.30522  -2.79294
N     0.64698   0.52153  -1.68750
C     1.83719  -0.13880  -1.67548
C     2.77859  -0.04306  -0.69841
C     4.02741  -0.79593  -0.87897
N     5.01367  -0.56579   0.02599
O     4.20165  -1.61555  -1.80365
C     2.57340   0.91973   0.44116
C     1.10229   1.27143   0.69832
C     0.09295   1.09454  -0.47638
C    -1.03758   0.19019   0.18810
C    -2.41118   0.22260  -0.42729
C    -3.15647  -0.94604  -0.64045
C    -4.44791  -0.87553  -1.17035
C    -5.01512   0.36160  -1.48451
C    -4.28426   1.53247  -1.25947
C    -2.99325   1.46310  -0.73407
C    -0.31940  -1.17111   0.31940
O    -0.38550  -2.18070  -0.33007
O     0.57216  -1.01421   1.33567
C     0.41296   0.39082   1.76425
C     0.92772   0.50771   3.12590
N     1.35599   0.62256   4.19557
N    -0.98284   0.68926   1.58619
C    -1.91218   0.04238   2.51453
H     0.29352   0.16361  -3.72053
H    -0.91635  -0.57844  -2.63423
H    -0.92508   1.18449  -2.91154
H     2.03350  -0.76014  -2.55128
H     5.90027  -1.04188  -0.09855
H     4.94943   0.15218   0.73622
H     3.00193   0.52512   1.37645
H     3.11667   1.85868   0.23728
H     1.03454   2.30130   1.06475
H    -0.36986   2.05778  -0.71902
H    -2.72963  -1.91807  -0.39943
H    -5.01286  -1.79602  -1.33412
H    -6.02472   0.41501  -1.89843
H    -4.72093   2.50612  -1.49309
H    -2.43974   2.38693  -0.55925
H    -2.93648   0.31979   2.23747
H    -1.72049   0.41500   3.52982
H    -1.83663  -1.05988   2.52106
