20
Generated by autodE on: 2022-06-21. E = -457.715333 Ha
C     3.13378   0.50616   0.13788
N     1.82708  -0.09979  -0.05806
C     1.73485  -1.47553  -0.30428
C     0.55952  -2.11480  -0.41265
C    -0.77288  -1.41981  -0.27778
C    -0.57380   0.05966   0.00895
C    -1.71990   0.96436   0.19319
N    -2.94899   0.39803   0.09408
O    -1.60281   2.18438   0.42931
C     0.67206   0.60488   0.10164
H     3.02201   1.59547   0.20481
H     3.79895   0.27422  -0.70828
H     3.61220   0.14405   1.06365
H     2.69266  -1.98908  -0.40536
H     0.56873  -3.18878  -0.61229
H    -1.37307  -1.90145   0.52111
H    -1.37353  -1.56671  -1.19899
H    -3.76570   0.98797   0.20910
H    -3.08544  -0.58368  -0.10993
H     0.78664   1.66960   0.31138
