43
Generated by autodE on: 2022-06-21. E = -1141.928222 Ha. Imaginary frequency = -445.2 cm-1
C    -0.08358   0.45143  -2.77838
N     0.82819   0.67496  -1.66325
C     2.06464   0.08174  -1.63541
C     2.92615   0.19489  -0.59123
C     4.24812  -0.44298  -0.73169
N     5.11966  -0.24520   0.28764
O     4.57062  -1.13130  -1.71938
C     2.56279   0.99635   0.64193
C     1.08528   1.37472   0.66594
C     0.33495   1.27397  -0.52313
C    -1.45576  -0.32194   0.47596
C    -2.70990  -0.15969  -0.25935
C    -3.28510  -1.27663  -0.90135
C    -4.45544  -1.14309  -1.64718
C    -5.07800   0.10401  -1.76869
C    -4.51410   1.21946  -1.14194
C    -3.34015   1.09423  -0.39809
C    -0.43037  -1.28041   0.17380
O    -0.26423  -2.08948  -0.72530
O     0.53578  -1.14150   1.18240
C     0.21870   0.01501   1.86157
C     0.82101   0.15694   3.15696
N     1.36157   0.33245   4.17048
N    -1.13518   0.23068   1.70411
C    -1.81075   1.32743   2.37083
H     0.49490   0.22810  -3.68355
H    -0.76485  -0.38644  -2.56867
H    -0.68128   1.35749  -2.95277
H     2.34332  -0.47490  -2.53016
H     4.90363   0.33230   1.09003
H     6.04371  -0.65817   0.22258
H     2.82565   0.43053   1.55410
H     3.17454   1.91717   0.69416
H     0.83205   2.23776   1.28809
H    -0.57240   1.85761  -0.66527
H    -2.80541  -2.25147  -0.81230
H    -4.88742  -2.02086  -2.13350
H    -5.99529   0.20657  -2.35291
H    -4.98517   2.20015  -1.24072
H    -2.90003   1.98293   0.05275
H    -2.89272   1.15521   2.35403
H    -1.58290   2.28980   1.88473
H    -1.47606   1.36542   3.41532
