35
Generated by autodE on: 2022-10-07. E = -1032.112590 Ha. Imaginary frequency = -171.2 cm-1
C    -0.10669  -3.41439   0.18527
C     0.80544  -2.30390  -0.29631
O     1.59970  -2.51357  -1.23475
C     0.68631  -1.01542   0.32619
C     1.65187   0.07688   0.13362
C     2.06590   0.43700  -1.16563
C     3.02946   1.42741  -1.35913
C     3.59887   2.08869  -0.26557
C     3.19769   1.74025   1.02848
C     2.24140   0.74341   1.22762
O    -0.18634  -1.01293   1.37598
C    -0.72575   0.02660   1.92226
C    -1.69036  -0.19250   3.01896
C    -2.09170   0.68836   0.02387
C    -2.08225   2.10139   0.57062
O    -3.07634   2.42829   1.27721
O    -1.09518   2.84009   0.30010
C    -1.31405   0.28681  -1.01796
C    -1.55652  -0.96433  -1.82172
O    -0.83086  -1.12785  -2.84436
O    -2.47158  -1.75087  -1.44096
H    -1.14213  -3.19491  -0.12022
H    -0.09467  -3.51975   1.27994
H     0.21501  -4.35452  -0.28267
H     1.60370  -0.05293  -2.02159
H     3.32922   1.69364  -2.37594
H     4.34640   2.87030  -0.41994
H     3.63887   2.24242   1.89312
H     1.96112   0.47395   2.24827
H    -0.25109   0.99621   1.76595
H    -2.16206  -1.18204   2.93881
H    -1.17740  -0.11888   3.99619
H    -2.45449   0.59823   2.99100
H    -2.92764   0.05236   0.32866
H    -0.55153   0.97075  -1.39443
