41
Generated by autodE on: 2022-05-29. E = -1023.302586 Ha
C    -1.78574  -3.59242   0.94689
C    -2.31970  -2.19657   0.76917
O    -3.33940  -1.82207   1.32255
C    -1.56266  -1.26492  -0.20635
C    -2.09056  -1.60964  -1.60235
O    -0.16658  -1.55786  -0.19472
C     0.55067  -0.67269   0.68175
C     0.63086  -1.29647   2.07913
C     1.93535  -0.44581   0.08699
C     2.93211   0.20093   0.83599
C     4.18316   0.47174   0.27708
C     4.46188   0.09753  -1.04162
C     3.47549  -0.54476  -1.79395
C     2.22119  -0.81103  -1.23524
C    -0.30162   0.62879   0.73642
C     0.07352   1.75022  -0.28058
O    -0.53561   1.28338  -1.49069
C    -1.88366   1.22752  -0.96825
C    -2.06247   2.61754  -0.36580
C    -0.83343   2.92260   0.05056
F    -0.40789   3.97116   0.75215
C    -1.70804   0.21899   0.20601
H    -0.97454  -3.57096   1.69130
H    -2.58545  -4.24618   1.31981
H    -1.35766  -3.99187   0.01772
H    -1.94204  -2.67802  -1.81473
H    -1.54179  -1.03057  -2.35703
H    -3.16346  -1.38356  -1.67846
H     1.11026  -2.28481   2.02727
H     1.20825  -0.66013   2.76326
H    -0.37482  -1.40849   2.51077
H     2.72930   0.51395   1.86184
H     4.94360   0.97930   0.87561
H     5.44095   0.30746  -1.47887
H     3.67974  -0.84047  -2.82609
H     1.45320  -1.30561  -1.82819
H    -0.31069   1.02738   1.75752
H     1.13817   1.96770  -0.40555
H    -2.59684   0.94424  -1.74720
H    -3.00089   3.15052  -0.22532
H    -2.51312   0.32636   0.93930
