28
Generated by autodE on: 2022-05-29. E = -616.391760 Ha
C    -1.99193   2.21938   0.42021
C    -2.82848   0.95036   0.41617
O    -4.07514   1.03339   0.53610
C    -2.17884  -0.31055   0.27687
C    -2.93120  -1.59697   0.22410
O    -0.83751  -0.21564   0.15193
C     0.16547  -1.02717   0.03828
C     0.02567  -2.51080   0.09942
C     1.44940  -0.37345  -0.17416
C     1.56796   1.03739  -0.14331
C     2.79683   1.65237  -0.35621
C     3.94119   0.88497  -0.61337
C     3.83894  -0.50869  -0.65409
C     2.61199  -1.13458  -0.43605
H    -1.43996   2.33868  -0.52473
H    -2.66498   3.07698   0.55132
H    -1.25224   2.21481   1.23530
H    -2.64047  -2.21961  -0.63642
H    -2.83082  -2.20955   1.13656
H    -3.99337  -1.33915   0.11960
H    -0.11063  -2.93974  -0.90876
H     0.93445  -2.95528   0.52419
H    -0.82099  -2.81421   0.72058
H     0.68636   1.64459   0.05392
H     2.86571   2.74216  -0.32242
H     4.90421   1.37214  -0.78174
H     4.72282  -1.11714  -0.85865
H     2.55912  -2.22233  -0.48018
