13
Generated by autodE on: 2022-05-29. E = -406.788329 Ha
F     1.98745  -0.59732  -1.03401
C     0.99107  -0.09198  -0.31270
C     0.70732   1.17093  -0.00063
C    -0.64164   1.03305   0.74568
C    -1.71876   0.60724  -0.28373
C    -1.40844  -0.64980  -0.61164
C    -0.14946  -0.97286   0.23108
O    -0.44301  -0.23004   1.42770
H     1.21157   2.09716  -0.26699
H    -0.90263   1.83759   1.44161
H    -2.50668   1.25370  -0.66916
H    -1.86654  -1.32038  -1.33760
H     0.08810  -2.02490   0.42349
