41
Generated by autodE on: 2022-05-29. E = -1023.180557 Ha. Imaginary frequency = -177.8 cm-1
C    -3.42604  -2.81814   1.07575
C    -1.92004  -2.67747   0.96293
O    -1.18102  -3.36641   1.69143
C    -1.44007  -1.79392  -0.07155
C    -2.18102  -1.69954  -1.37641
O    -0.11613  -1.54262  -0.22552
C     0.81018  -1.11909   0.59745
C     0.74862  -1.36500   2.06499
C     2.01930  -0.66003  -0.08551
C     3.18700  -0.32498   0.63342
C     4.31618   0.15997  -0.02682
C     4.31134   0.32124  -1.41550
C     3.16124  -0.01345  -2.14230
C     2.03174  -0.49987  -1.49129
C    -0.38890   1.10777   0.97453
C    -0.11149   1.94740  -0.28731
O    -0.92380   1.25453  -1.24999
C    -2.15046   1.34909  -0.48370
C    -2.23684   2.87986  -0.27382
C    -0.95616   3.22858  -0.15585
F    -0.40940   4.41057   0.11595
C    -1.68260   0.71125   0.84400
H    -3.95167  -1.85892   0.96077
H    -3.79915  -3.49843   0.29097
H    -3.66478  -3.26070   2.05269
H    -2.19537  -2.66406  -1.91808
H    -1.71533  -0.94796  -2.02498
H    -3.22740  -1.40696  -1.21393
H     1.44318  -0.70456   2.59572
H     1.00804  -2.41238   2.29025
H    -0.26177  -1.19465   2.44885
H     3.21949  -0.44248   1.71626
H     5.20829   0.41256   0.55096
H     5.19641   0.70298  -1.92937
H     3.14661   0.10720  -3.22809
H     1.14169  -0.75413  -2.06564
H     0.22439   1.14667   1.87036
H     0.92737   2.06684  -0.61337
H    -2.99305   0.88531  -1.00365
H    -3.14375   3.47104  -0.16815
H    -2.35300   0.31730   1.60431
