46
Generated by autodE on: 2022-06-19. E = -832.334085 Ha
C    -2.79971  -1.71333   2.06641
C    -2.08136  -0.72788   1.15503
C    -2.54305  -0.79238  -0.30454
C    -3.84003  -0.04862  -0.59608
C    -1.32689  -0.31072  -1.13906
C    -1.08418  -1.24374  -2.32422
C    -0.13916  -0.18343  -0.10313
C     0.10126   1.28047   0.33779
C     1.32541   1.64037   0.93193
C     1.54189   2.91981   1.44644
C     0.53072   3.88403   1.38640
C    -0.69423   3.54459   0.80987
C    -0.90437   2.25994   0.29500
C     1.14734  -0.78124  -0.67433
C     1.89257  -0.05466  -1.61822
C     3.03135  -0.59981  -2.21319
C     3.45472  -1.88950  -1.87164
C     2.71956  -2.62370  -0.93857
C     1.57385  -2.07475  -0.35068
N    -0.64345  -0.97525   1.04941
C     0.08363  -0.86596   2.29908
H    -3.88679  -1.54646   2.01324
H    -2.59441  -2.75170   1.75877
H    -2.50210  -1.59824   3.11957
H    -2.26898   0.29549   1.55156
H    -2.69941  -1.85996  -0.53648
H    -3.74948   1.02586  -0.36796
H    -4.11890  -0.14374  -1.65786
H    -4.67422  -0.44849   0.00264
H    -1.52912   0.68535  -1.55272
H    -0.29332  -0.87788  -2.99424
H    -2.01161  -1.32651  -2.91446
H    -0.80528  -2.25564  -1.99286
H     2.13007   0.90686   0.99169
H     2.50764   3.16405   1.89614
H     0.69723   4.88782   1.78463
H    -1.49856   4.28236   0.75375
H    -1.87346   2.03987  -0.14851
H     1.57387   0.95250  -1.89459
H     3.59169  -0.01503  -2.94704
H     4.34903  -2.31690  -2.33158
H     3.03492  -3.63368  -0.66436
H     0.99708  -2.65960   0.36477
H     1.16211  -0.98541   2.12930
H    -0.07192   0.10119   2.81998
H    -0.22927  -1.66781   2.98440
