12
Generated by autodE on: 2022-06-19. E = -157.300303 Ha
C     1.96259   0.00028   0.07627
C     0.50806  -0.05207   0.43335
C    -0.50806   0.05203  -0.43335
C    -1.96259  -0.00026  -0.07627
H     2.11245   0.13921  -1.00602
H     2.48271  -0.92601   0.37894
H     2.47459   0.82538   0.60270
H     0.27491  -0.18754   1.49885
H    -0.27491   0.18747  -1.49886
H    -2.11244  -0.14000   1.00592
H    -2.48249   0.92642  -0.37815
H    -2.47482  -0.82480  -0.60335
