34
Generated by autodE on: 2022-06-19. E = -674.955711 Ha
C    -2.18935   1.58567   1.71589
C    -1.10151   2.36383   1.09849
N    -0.06060   1.82530   0.47923
C     1.02101   2.76924   0.10752
C     0.04178   0.48420   0.09727
C     1.34159  -0.15617   0.27731
C     1.82148  -1.16308  -0.59916
C     3.07362  -1.74618  -0.42054
C     3.90880  -1.34493   0.63198
C     3.45937  -0.35022   1.50650
C     2.19877   0.22489   1.34073
C    -1.11043  -0.19599  -0.47721
C    -2.13405   0.50063  -1.17348
C    -3.19594  -0.16982  -1.77981
C    -3.30074  -1.56379  -1.70980
C    -2.31551  -2.27225  -1.00883
C    -1.25130  -1.60806  -0.40342
H    -1.80716   0.62815   2.10930
H    -2.65554   2.17072   2.52251
H    -2.98641   1.31792   0.99158
H    -1.12636   3.45541   1.12099
H     0.59374   3.53569  -0.55428
H     1.43589   3.25466   1.00018
H     1.80951   2.23698  -0.42969
H     1.20557  -1.47403  -1.44448
H     3.41126  -2.51445  -1.12153
H     4.89164  -1.80235   0.76672
H     4.09041  -0.02825   2.33944
H     1.85857   0.97490   2.05773
H    -2.08128   1.58816  -1.25903
H    -3.95254   0.40864  -2.31726
H    -4.13695  -2.08564  -2.18039
H    -2.38359  -3.36026  -0.92133
H    -0.51330  -2.18865   0.15196
