55
Generated by autodE on: 2022-06-25. E = -1137.553466 Ha
C     1.36213   0.07338  -2.95078
C     1.28791   1.00740  -1.76547
O     1.26249   2.21439  -1.93112
C     1.24604   0.35642  -0.35556
C     2.60810  -0.31083  -0.14300
C     3.78784   0.35070  -0.52050
C     5.03717  -0.23535  -0.30284
C     5.12737  -1.49602   0.29579
C     3.95730  -2.16413   0.66891
C     2.70789  -1.57682   0.44721
N     0.15414  -0.62000  -0.28435
C    -1.03796   0.01297   0.28572
C    -1.75702   0.89444  -0.76280
C    -2.05756   2.25014  -0.58278
C    -2.68552   2.98785  -1.59387
C    -3.03079   2.38016  -2.80211
C    -2.75102   1.02146  -2.98907
C    -2.12543   0.29178  -1.97811
C    -2.03811  -1.02434   0.78963
C    -1.76484  -2.39657   0.76345
C    -2.69562  -3.31890   1.25728
C    -3.90859  -2.87965   1.79177
C    -4.18841  -1.50785   1.82445
C    -3.26366  -0.59160   1.32202
C    -0.38008   0.82386   1.43942
C    -0.05816  -0.03662   2.66123
C     0.86661   1.41703   0.73865
C     1.98649   1.87445   1.66445
H     0.37955   0.07231  -3.44993
H     1.62471  -0.95714  -2.67961
H     2.09605   0.46670  -3.66894
H     3.73514   1.33785  -0.98519
H     5.94360   0.29599  -0.60304
H     6.10362  -1.95622   0.46613
H     4.01563  -3.15144   1.13403
H     1.79243  -2.09620   0.73014
H    -0.01734  -1.11493  -1.15587
H    -1.80113   2.75415   0.34898
H    -2.90226   4.04648  -1.43093
H    -3.51791   2.95722  -3.59165
H    -3.02351   0.52793  -3.92519
H    -1.91983  -0.77002  -2.13723
H    -0.81409  -2.74557   0.36058
H    -2.46630  -4.38704   1.22446
H    -4.63383  -3.59901   2.17966
H    -5.13395  -1.15138   2.24064
H    -3.49347   0.47615   1.34362
H    -1.04536   1.63349   1.76826
H    -0.97622  -0.43155   3.11920
H     0.45815   0.56066   3.42656
H     0.58689  -0.88925   2.40409
H     0.53686   2.30155   0.18083
H     1.59129   2.59082   2.40248
H     2.77850   2.38630   1.09832
H     2.45400   1.04428   2.21248
