43
Generated by autodE on: 2022-07-27. E = -980.210723 Ha
C     0.01672  -0.57610  -2.72273
C     1.19654   0.05855  -2.00823
O     2.01181   0.70219  -2.70876
C     1.39961  -0.15880  -0.60483
N     0.37559  -0.66695   0.18666
C    -0.92293  -0.38087   0.17977
C    -1.43214   0.85643  -0.43591
C    -0.74374   2.07524  -0.26526
C    -1.25785   3.25284  -0.79859
C    -2.45792   3.23775  -1.52437
C    -3.14501   2.03528  -1.70041
C    -2.63884   0.85169  -1.15674
C    -1.82062  -1.31574   0.86220
C    -1.49676  -2.68725   0.94894
C    -2.32159  -3.56775   1.64899
C    -3.48615  -3.10079   2.26559
C    -3.82358  -1.74422   2.17779
C    -3.00465  -0.85900   1.48175
C     2.65082   0.10896   0.10141
C     3.90425   0.18080  -0.55635
C     5.07895   0.39934   0.15897
C     5.05662   0.55186   1.55216
C     3.83104   0.48751   2.21954
C     2.64759   0.27866   1.50805
H    -0.51126  -1.34847  -2.14888
H     0.40767  -1.01808  -3.65226
H    -0.71242   0.19770  -3.01094
H     0.66489  -1.35217   0.89220
H     0.19074   2.09670   0.29776
H    -0.72313   4.19298  -0.64556
H    -2.85339   4.16387  -1.94756
H    -4.07971   2.01384  -2.26516
H    -3.17465  -0.08731  -1.30378
H    -0.61358  -3.07250   0.43518
H    -2.06120  -4.62730   1.69888
H    -4.13468  -3.79255   2.80788
H    -4.73006  -1.37356   2.66145
H    -3.26626   0.19855   1.43505
H     3.94407   0.05948  -1.63670
H     6.03013   0.44448  -0.37809
H     5.98235   0.72460   2.10591
H     3.78901   0.61609   3.30421
H     1.70099   0.27195   2.05241
