55
Generated by autodE on: 2022-06-25. E = -1137.475553 Ha. Imaginary frequency = -390.6 cm-1
C     0.64079   0.72154  -3.05613
C     1.28409   1.14982  -1.75605
O     1.87596   2.22727  -1.69999
C     1.33201   0.17317  -0.63467
C     2.65228  -0.38435  -0.28037
C     3.85083   0.13876  -0.81768
C     5.09398  -0.38856  -0.46914
C     5.19296  -1.46082   0.42327
C     4.02029  -1.98909   0.97085
C     2.77601  -1.45507   0.63641
N     0.24030  -0.63957  -0.41133
C    -1.02769  -0.20308  -0.12310
C    -1.69025   0.78001  -1.06136
C    -1.55378   2.17516  -1.02834
C    -2.19442   2.98233  -1.97512
C    -2.98923   2.41497  -2.97142
C    -3.14232   1.02476  -3.01393
C    -2.50130   0.22315  -2.07121
C    -1.93658  -1.18524   0.50517
C    -1.56917  -2.51641   0.78492
C    -2.43185  -3.37013   1.47668
C    -3.68402  -2.92103   1.90368
C    -4.06851  -1.60400   1.62287
C    -3.21134  -0.75197   0.93076
C    -0.38917   1.08591   1.64449
C    -0.42934   0.12567   2.80434
C     0.82231   1.62918   1.21913
C     2.09609   1.47531   2.00043
H     0.05428  -0.19772  -2.97416
H     1.47340   0.54224  -3.75885
H     0.02537   1.53318  -3.46954
H     3.81200   0.97527  -1.51372
H     5.99695   0.04403  -0.90734
H     6.16778  -1.87285   0.69327
H     4.07037  -2.81746   1.68184
H     1.89874  -1.87692   1.13090
H     0.48029  -1.48171   0.10305
H    -0.93849   2.65716  -0.27512
H    -2.06605   4.06605  -1.92560
H    -3.48851   3.04858  -3.70815
H    -3.76210   0.56223  -3.78582
H    -2.62222  -0.86089  -2.11758
H    -0.61286  -2.92045   0.44688
H    -2.12159  -4.39907   1.67369
H    -4.35724  -3.59084   2.44332
H    -5.04507  -1.23736   1.94828
H    -3.51980   0.27524   0.73048
H    -1.30476   1.64783   1.45395
H    -1.45081  -0.21669   3.01650
H    -0.03524   0.59133   3.72572
H     0.18882  -0.76799   2.61301
H     0.79451   2.49862   0.55921
H     2.06525   2.11714   2.90198
H     2.97398   1.77642   1.41182
H     2.26397   0.44684   2.34933
