23
Generated by autodE on: 2022-05-25. E = -497.043288 Ha
C     2.78928  -1.48756  -0.13534
C     2.10258  -0.14726  -0.05410
O     2.74623   0.90105  -0.01895
C     0.63496  -0.13060  -0.01917
N    -0.06791  -1.27735  -0.04839
N    -1.34388  -0.90938  -0.00341
C    -2.40781  -1.89599  -0.02074
C    -1.50825   0.45350   0.05372
C    -2.85778   1.07938   0.10913
C    -0.23032   1.00319   0.04581
C     0.14297   2.44973   0.09394
H     3.87732  -1.34283  -0.14900
H     2.50505  -2.11558   0.72308
H     2.47143  -2.02480  -1.04235
H    -3.04595  -1.75945  -0.90601
H    -3.02955  -1.80709   0.88181
H    -1.94772  -2.88972  -0.05150
H    -2.77008   2.17316   0.14349
H    -3.46233   0.81117  -0.77286
H    -3.41696   0.75219   1.00115
H     0.73481   2.74188  -0.78802
H    -0.75157   3.08801   0.13212
H     0.76290   2.67642   0.97598
