10
Generated by autodE on: 2022-05-25. E = -156.052969 Ha
C    -2.06179   0.12254   0.10052
C    -0.60564   0.03605   0.02898
C     0.60565  -0.03554  -0.02939
C     2.06178  -0.12291  -0.10023
H    -2.50530   0.24292  -0.90162
H    -2.49528  -0.78608   0.54997
H    -2.38178   0.98222   0.71213
H     2.49034   0.74955  -0.62047
H     2.38229  -1.02636  -0.64481
H     2.50960  -0.16389   0.90637
