13
Generated by autodE on: 2022-05-25. E = -340.827199 Ha
C     3.01506   0.11384   0.49768
N     1.92872   1.00062   0.06993
N     0.87169   0.44059  -0.19928
C    -0.16114  -0.03922  -0.57031
C    -1.47549  -0.44759  -0.09561
C    -2.52505   0.62957  -0.12215
O    -1.68921  -1.60467   0.24129
H     2.88046  -0.17792   1.55228
H     3.96051   0.66105   0.40744
H     3.05716  -0.79986  -0.11670
H    -2.17858   1.51423   0.43569
H    -2.70145   0.94586  -1.16315
H    -3.45699   0.24305   0.31214
