49
Generated by autodE on: 2022-10-22. E = -3760.084278 Ha
C    -0.09961   1.18869  -4.80060
O    -0.17897   0.46242  -3.56123
C     0.79381   0.67324  -2.68722
O     1.76290   1.37548  -2.88009
C     0.60388  -0.15477  -1.44053
N     0.70588  -1.43166  -1.56174
C     0.52608  -1.98007  -0.21383
C     1.74714  -2.71262   0.13400
N     2.74121  -3.26598   0.35847
C    -0.75766  -2.89817  -0.27545
C    -0.54979  -4.37474  -0.28288
O    -1.83150  -2.35176  -0.36615
C     0.29972  -0.79536   0.71134
C     0.35617   0.32901  -0.04909
C     0.30039   1.79145   0.33750
C     1.68532   2.41789   0.17446
Br   -0.93776   2.69841  -1.02842
C    -0.25273   2.13569   1.71895
C    -1.71222   1.82094   2.04642
C    -2.20326   0.40291   1.76485
C    -1.50686  -0.73178   2.51577
C    -0.03451  -1.06225   2.17284
O     0.19907  -2.45954   2.30385
C    -0.06155  -3.04849   3.56927
O     0.79294  -0.35634   3.06734
C     2.19672  -0.53350   2.90183
H    -0.10842   2.27042  -4.60356
H    -0.98547   0.89764  -5.37558
H     0.81758   0.91938  -5.34279
H     0.14038  -4.64417  -1.09874
H    -0.07475  -4.68304   0.66127
H    -1.51180  -4.88629  -0.40964
H     2.11733   2.22875  -0.81381
H     1.63747   3.50137   0.35029
H     2.34435   1.97018   0.93617
H    -0.09060   3.21439   1.86162
H     0.40609   1.62791   2.43487
H    -1.85635   2.04492   3.11714
H    -2.35989   2.52138   1.49601
H    -3.26772   0.35732   2.04711
H    -2.18146   0.19716   0.68382
H    -1.54263  -0.54903   3.60108
H    -2.07377  -1.65180   2.31827
H     0.38755  -2.46070   4.38465
H    -1.14205  -3.16067   3.75475
H     0.40050  -4.04488   3.54895
H     2.53140  -0.22125   1.89919
H     2.68074   0.10244   3.65457
H     2.49261  -1.58110   3.06654
