18
Generated by autodE on: 2022-10-22. E = -605.729059 Ha
C     4.29269   0.79367   0.66749
O     2.85354   0.73398   0.55738
C     2.35141  -0.34707  -0.00944
O     2.94857  -1.30366  -0.45039
C     0.90366  -0.28048  -0.06083
N    -0.25520  -0.34670  -0.18266
C    -1.57785  -0.24244  -0.22722
C    -2.33178  -1.28821  -0.80721
N    -2.98011  -2.13544  -1.28012
C    -2.16371   0.98176   0.34665
C    -3.66315   1.09221   0.29800
O    -1.43973   1.84493   0.83235
H     4.74588   0.75755  -0.33267
H     4.65642  -0.04556   1.27616
H     4.50929   1.74901   1.15664
H    -3.97463   2.04049   0.75361
H    -4.01622   1.04546  -0.74472
H    -4.12618   0.24948   0.83606
