31
Generated by autodE on: 2022-10-22. E = -3154.227921 Ha
C    -1.63523   3.18829  -1.78544
O    -2.18354   1.91867  -1.45838
C    -1.32260   0.82603  -1.66553
O    -0.89484   0.75387  -3.01370
C    -1.91299   0.53250  -3.98353
C    -0.08131   0.88208  -0.86006
C     0.77544   0.40004  -0.14966
C     1.53543  -0.57338   0.60649
C     3.04687  -0.46299   0.47851
Br    1.08126  -0.26073   2.57581
C     0.99879  -1.96537   0.20658
C    -0.52838  -2.14473   0.12294
C    -1.25901  -1.73633  -1.18826
C    -2.07970  -0.43179  -1.18803
H    -2.37582   3.94295  -1.48838
H    -1.43449   3.28151  -2.86489
H    -0.69494   3.36847  -1.23421
H    -2.79367   1.16785  -3.79989
H    -1.48048   0.79864  -4.95810
H    -2.22832  -0.52375  -4.01318
H     3.54136  -1.24288   1.07443
H     3.40575   0.52227   0.80551
H     3.32160  -0.60254  -0.57951
H     1.42366  -2.69319   0.91489
H     1.44752  -2.18748  -0.77757
H    -0.70748  -3.22078   0.27021
H    -1.00089  -1.64884   0.98723
H    -1.96573  -2.54551  -1.42643
H    -0.54519  -1.71596  -2.02882
H    -2.96585  -0.53962  -1.83115
H    -2.45319  -0.21082  -0.17693
