49
Generated by autodE on: 2022-10-22. E = -3759.955629 Ha. Imaginary frequency = -290.4 cm-1
C    -0.52833   0.91676  -4.72964
O    -0.19750   0.24242  -3.49800
C     0.85214   0.69547  -2.83881
O     1.62317   1.55358  -3.19882
C     0.99567  -0.02067  -1.53831
N     1.37886  -1.14439  -1.32144
C     1.42199  -2.15911  -0.47972
C     2.69934  -2.63928  -0.06697
N     3.73868  -3.03784   0.27153
C     0.24616  -3.06970  -0.33316
C    -1.03348  -2.64532  -0.99213
O     0.39026  -4.12653   0.26416
C     0.39252  -0.24518   1.23797
C     0.32225   0.70497   0.43824
C     0.01233   2.14428   0.28947
C     1.22557   2.96440  -0.13062
Br   -1.39294   2.33864  -1.18480
C    -0.60390   2.70637   1.58175
C    -1.96005   2.18866   2.07233
C    -2.12276   0.68742   2.35871
C    -1.02302   0.08108   3.24209
C    -0.07286  -0.88673   2.50580
O    -0.72354  -2.06847   2.08500
C    -1.31852  -2.88321   3.08389
O     0.95418  -1.15269   3.42747
C     2.02036  -1.97866   2.98384
H    -0.69609   1.98552  -4.53535
H    -1.44657   0.44090  -5.08932
H     0.28413   0.79166  -5.45821
H    -1.82910  -3.35013  -0.72193
H    -1.31602  -1.62590  -0.69526
H    -0.89831  -2.64112  -2.08631
H     1.67921   2.59453  -1.05734
H     0.94802   4.01938  -0.26276
H     1.97662   2.89922   0.67320
H    -0.68289   3.79694   1.45204
H     0.16477   2.54708   2.35653
H    -2.16871   2.74103   3.00445
H    -2.73971   2.49576   1.35774
H    -3.09882   0.55321   2.85036
H    -2.19286   0.12492   1.41490
H    -0.39075   0.86405   3.68439
H    -1.44879  -0.47910   4.08710
H    -0.66380  -2.99322   3.96220
H    -2.29705  -2.48970   3.40672
H    -1.46577  -3.87134   2.62544
H     1.65155  -2.89229   2.49438
H     2.59557  -2.25970   3.87703
H     2.68158  -1.43173   2.29356
