67
Generated by autodE on: 2022-06-12. E = -1498.301773 Ha
C    -4.73060   0.04815 -22.53499
C    -3.58853  -0.76691 -22.00569
O    -3.01794  -1.60205 -22.67136
C    -3.23129  -0.62415 -20.46709
C    -3.65333   0.70815 -20.01202
N    -4.13148   1.71558 -19.69304
N    -4.11964  -1.60667 -19.82410
C    -3.34434  -2.85301 -19.75672
C    -3.65504  -3.56326 -18.44259
C    -1.87074  -2.45190 -19.94286
C    -1.78790  -1.11763 -20.17988
C    -0.62208  -0.12598 -20.29915
C    -0.59876   0.39528 -21.75672
C    -1.48470   1.40240 -22.17702
C    -1.55526   1.80223 -23.51307
C    -0.72174   1.21557 -24.46809
C     0.19461   0.24415 -24.05997
C     0.25769  -0.15479 -22.72149
C    -0.81051   1.03885 -19.30039
C    -1.51714   0.87338 -18.10052
C    -1.59502   1.90283 -17.15911
C    -0.95470   3.12097 -17.39596
C    -0.22731   3.29269 -18.57836
C    -0.15259   2.25949 -19.51503
C     0.75215  -0.74439 -19.92535
C     0.94310  -1.15474 -18.45303
C     1.14048  -2.64727 -18.23356
C    -0.08729  -3.53799 -18.43789
C    -0.80748  -3.56331 -19.81928
C    -1.48119  -4.97550 -20.07256
C    -1.08081  -6.16058 -19.23891
O    -2.23253  -5.11527 -21.01931
C     0.20660  -3.68816 -21.00217
C    -0.24156  -3.37272 -22.40142
O     1.29579  -4.19367 -20.79209
H    -4.43152   1.10453 -22.60847
H    -5.01083  -0.32232 -23.52894
H    -5.58873  -0.00398 -21.84952
H    -4.28773  -1.28235 -18.87034
H    -3.64309  -3.49777 -20.59307
H    -4.74277  -3.71213 -18.35994
H    -3.18790  -4.55280 -18.36540
H    -3.31956  -2.95652 -17.58655
H    -2.12594   1.90306 -21.45450
H    -2.26441   2.58101 -23.80331
H    -0.77561   1.52226 -25.51519
H     0.87138  -0.21224 -24.78641
H     0.98939  -0.90858 -22.44466
H    -2.02969  -0.06875 -17.89758
H    -2.16256   1.74902 -16.23828
H    -1.01716   3.92987 -16.66415
H     0.28774   4.23641 -18.77379
H     0.42543   2.40960 -20.42826
H     0.96788  -1.59681 -20.57737
H     1.50313   0.01100 -20.19543
H     0.09897  -0.82008 -17.83695
H     1.82212  -0.62523 -18.05392
H     1.45475  -2.80494 -17.18820
H     1.97020  -3.01000 -18.85702
H     0.24066  -4.55398 -18.19961
H    -0.84996  -3.28040 -17.68723
H     0.00524  -6.32286 -19.32137
H    -1.31016  -6.00779 -18.17484
H    -1.61447  -7.04236 -19.61492
H     0.63627  -3.13270 -23.01436
H    -0.99450  -2.58258 -22.45185
H    -0.69690  -4.29022 -22.80725
