50
Generated by autodE on: 2022-06-12. E = -1079.899797 Ha
C    -1.57424  -0.78087  -4.82040
C    -1.69124  -0.46953  -3.35751
O    -2.63849  -0.82897  -2.68445
C    -0.53079   0.32501  -2.70175
C    -0.61025   1.77718  -3.26383
C    -1.54172   2.72141  -2.56532
O     0.04468   2.09332  -4.23655
C    -0.63838   0.31987  -1.24624
C    -0.27084   0.22301  -0.09640
C     0.60304   0.00092   1.05863
C     0.28959   0.99792   2.18595
C    -1.05107   1.21682   2.54071
C    -1.38510   2.08174   3.58356
C    -0.37837   2.74550   4.29417
C     0.95803   2.53339   3.94941
C     1.29103   1.66624   2.90184
C     0.44877  -1.43205   1.61015
C    -0.41666  -2.36843   1.03170
C    -0.51696  -3.66471   1.55125
C     0.24902  -4.04276   2.65541
C     1.11615  -3.11230   3.24035
C     1.21193  -1.81969   2.72338
C     2.03986   0.18846   0.46129
C     2.32718  -0.57318  -0.84961
C     2.03796   0.14620  -2.19907
C     0.84125  -0.33174  -3.04700
H    -0.83766  -1.59071  -4.95227
H    -1.20665   0.08337  -5.39117
H    -2.54545  -1.11742  -5.20522
H    -1.71062   3.61208  -3.18394
H    -2.49314   2.22064  -2.32803
H    -1.09115   3.02151  -1.60527
H    -1.84119   0.69877   1.99138
H    -2.43504   2.23951   3.84210
H    -0.63609   3.42411   5.11071
H     1.75321   3.04621   4.49603
H     2.34168   1.51587   2.65401
H    -1.01946  -2.08500   0.16764
H    -1.19949  -4.37994   1.08565
H     0.17145  -5.05436   3.06081
H     1.71937  -3.39391   4.10692
H     1.88542  -1.10178   3.19586
H     2.76119  -0.13006   1.22747
H     2.20263   1.26536   0.29924
H     3.40330  -0.80453  -0.83543
H     1.81991  -1.55240  -0.83087
H     2.92468   0.00398  -2.83628
H     1.96718   1.23504  -2.03809
H     0.73343  -1.42290  -2.94469
H     1.04210  -0.12239  -4.10620
