17
Generated by autodE on: 2022-07-27. E = -418.350486 Ha
C     0.06612  -3.20614   1.26973
C     0.11489  -2.02386   0.38461
N    -0.06518  -0.81993   0.83879
C    -0.06226   0.41917   0.17388
C    -0.28294   1.54775   0.98513
N    -0.46481   2.49502   1.64936
C     0.14883   0.53476  -1.23643
C     0.11789   1.93157  -1.82446
O     0.35128  -0.45232  -1.97255
H    -0.71523  -3.90113   0.91689
H     1.02111  -3.75569   1.20740
H    -0.13208  -2.93701   2.31779
H     0.30296  -2.11458  -0.68513
H    -0.24159  -0.74839   1.84628
H     0.28652   1.86526  -2.90725
H     0.89656   2.56786  -1.37469
H    -0.85136   2.42014  -1.63690
