67
Generated by autodE on: 2022-06-12. E = -1498.235208 Ha. Imaginary frequency = -350.5 cm-1
C    -4.29077   0.41665 -23.24538
C    -3.77701  -0.84358 -22.60132
O    -3.46607  -1.81932 -23.28616
C    -3.78735  -0.89725 -21.12312
C    -4.18966   0.26487 -20.41042
N    -4.49667   1.22617 -19.82486
N    -4.08362  -2.10099 -20.50707
C    -3.36428  -3.20777 -20.76882
C    -3.80081  -4.49010 -20.13646
C    -1.48113  -2.44176 -20.17738
C    -1.40544  -1.24366 -20.54397
C    -0.65869   0.04542 -20.62319
C    -1.09980   0.89666 -21.83559
C    -1.55300   2.21729 -21.72463
C    -1.80724   2.98853 -22.86570
C    -1.61968   2.45073 -24.13968
C    -1.20665   1.12003 -24.26317
C    -0.95680   0.35379 -23.12465
C    -0.78870   0.80713 -19.29057
C    -1.63934   0.38281 -18.26296
C    -1.71296   1.08007 -17.05176
C    -0.92970   2.21580 -16.84234
C    -0.06726   2.64576 -17.85703
C     0.00304   1.94726 -19.06312
C     0.86575  -0.26227 -20.89199
C     1.72674  -0.86121 -19.78056
C     1.64356  -2.37042 -19.53374
C     0.48712  -2.85904 -18.64704
C    -0.75500  -3.48094 -19.38032
C    -1.64410  -3.91705 -18.17722
C    -1.47324  -5.26553 -17.53861
O    -2.42773  -3.10406 -17.71984
C    -0.21367  -4.65359 -20.23390
C    -0.40307  -4.62079 -21.72310
O     0.40376  -5.55396 -19.69347
H    -4.09097   0.38942 -24.32251
H    -3.85272   1.31927 -22.80276
H    -5.38030   0.46860 -23.07709
H    -4.49791  -2.04346 -19.57660
H    -3.00109  -3.26955 -21.79053
H    -4.57635  -4.94762 -20.77443
H    -2.97860  -5.21501 -20.08514
H    -4.21812  -4.34204 -19.13164
H    -1.71399   2.66037 -20.74350
H    -2.15659   4.01737 -22.74968
H    -1.81213   3.05466 -25.02944
H    -1.08349   0.67252 -25.25227
H    -0.64993  -0.68702 -23.24080
H    -2.24489  -0.51089 -18.39810
H    -2.38788   0.72519 -16.26898
H    -0.98476   2.76044 -15.89677
H     0.55786   3.52963 -17.70840
H     0.68408   2.30014 -19.83883
H     1.31659   0.69670 -21.18692
H     0.92412  -0.90943 -21.77906
H     2.76898  -0.64128 -20.06544
H     1.56182  -0.32470 -18.83205
H     2.57484  -2.66352 -19.02441
H     1.65974  -2.90301 -20.49888
H     0.86463  -3.63571 -17.96790
H     0.11522  -2.03586 -18.02002
H    -2.13472  -5.32479 -16.66477
H    -0.42967  -5.43074 -17.23842
H    -1.72506  -6.06214 -18.25395
H     0.23478  -5.38378 -22.18730
H    -1.45475  -4.83822 -21.96767
H    -0.17881  -3.62380 -22.12787
