41
Generated by autodE on: 2022-06-08. E = -6320.456822 Ha
C    -1.99568   4.65052  -1.03478
N    -1.14193   3.58328  -0.54724
C    -1.66557   2.43939  -0.09115
O    -2.86235   2.19700   0.05424
N    -0.73876   1.46854   0.36982
O     0.62382   1.76522   0.04771
C     1.22141   0.65086  -0.57535
C     1.17923   0.75341  -2.05155
N     1.31333   0.91532  -3.19124
C     2.74807   0.59758  -0.22881
O     3.43245  -0.27430  -0.74672
N     3.16914   1.56211   0.58758
C     4.54449   1.62327   1.04894
C     0.41341  -0.55015   0.02195
Br    1.14248  -0.93894   1.82144
Br    0.53273  -2.15396  -1.05133
C    -1.03486   0.05041   0.15132
C    -1.80989  -0.11678  -1.20999
O    -1.56222   0.67604  -2.11677
N    -2.67332  -1.12338  -1.30112
C    -3.34566  -1.42546  -2.55048
C    -1.79937  -0.58441   1.34082
O    -2.14529  -1.76866   1.27414
N    -2.03727   0.20594   2.38356
C    -2.68729  -0.28892   3.58221
H    -2.39676   4.42910  -2.03778
H    -1.41199   5.57807  -1.08470
H    -2.84107   4.79998  -0.34971
H    -0.14505   3.61305  -0.73650
H     2.47590   2.18690   0.98949
H     4.72514   0.90477   1.86524
H     5.22700   1.38793   0.22131
H     4.75332   2.63618   1.41399
H    -2.73321  -1.75948  -0.50386
H    -4.11761  -2.18140  -2.36385
H    -2.63718  -1.81456  -3.30044
H    -3.81750  -0.52146  -2.96132
H    -1.67774   1.15505   2.35704
H    -2.98724   0.56514   4.20102
H    -3.57814  -0.87566   3.31708
H    -2.00971  -0.93383   4.16576
