20
Generated by autodE on: 2022-06-08. E = -5642.028649 Ha
C    -1.42370   2.62519  -0.98415
N    -0.87163   2.73733   0.35587
C    -0.02396   1.88444   0.94509
O     0.43151   2.03474   2.08365
C     0.45281   0.70764   0.11929
C     1.82514   0.88496  -0.49672
O     2.01643   0.74213  -1.70419
N     2.77721   1.24421   0.37918
C     4.13188   1.53983  -0.04763
C    -0.26766  -0.41389   0.00134
Br    0.35578  -1.98779  -0.84778
Br   -2.01294  -0.57445   0.74027
H    -2.38728   2.09085  -0.98966
H    -0.72201   2.09826  -1.64298
H    -1.58388   3.63322  -1.38889
H    -1.18649   3.50928   0.94101
H     2.50343   1.39827   1.34673
H     4.58126   0.67332  -0.55625
H     4.73465   1.78536   0.83465
H     4.15380   2.39296  -0.74470
