21
Generated by autodE on: 2022-06-08. E = -678.339134 Ha
C    -4.38183  -0.63362  -0.16851
N    -3.25333  -0.47476   0.72485
C    -1.98434  -0.48599   0.27236
O    -1.66950  -0.52159  -0.92466
N    -1.06511  -0.57305   1.32965
O     0.20253  -0.39220   0.95892
C     0.70528   0.33502   0.01155
C     0.00447   1.35962  -0.67420
N    -0.49695   2.28184  -1.17800
C     2.17943   0.21780  -0.22713
O     2.70407   0.97123  -1.05114
N     2.82360  -0.71806   0.47973
C     4.25613  -0.90443   0.34290
H    -4.55448  -1.69024  -0.43696
H    -5.28471  -0.24501   0.31955
H    -4.20356  -0.06942  -1.09390
H    -3.39471  -0.58112   1.72565
H     2.30331  -1.29663   1.13284
H     4.52244  -1.13316  -0.70051
H     4.56503  -1.73871   0.98287
H     4.80417   0.00227   0.64393
