21
Generated by autodE on: 2022-07-27. E = -678.350935 Ha
C    -4.49818   1.75440  -0.52354
N    -3.22765   1.22858  -0.97425
C    -2.25503   0.89835  -0.10088
O    -2.34169   1.01511   1.12098
N    -1.12840   0.40415  -0.79900
O    -0.21594   0.09059   0.09597
C     0.93409  -0.38924  -0.24169
C     1.24376  -0.59234  -1.60864
N     1.55094  -0.78105  -2.71637
C     1.84107  -0.68847   0.90968
O     1.45836  -0.49566   2.06217
N     3.05086  -1.16587   0.57526
C     4.02964  -1.49226   1.59504
H    -4.35848   2.66901   0.07443
H    -5.11364   1.99354  -1.39872
H    -5.03696   1.02259   0.10060
H    -3.06120   1.08408  -1.96529
H     3.30660  -1.27671  -0.40204
H     4.92248  -1.90113   1.10865
H     3.62753  -2.23871   2.29714
H     4.31216  -0.59794   2.17289
