41
Generated by autodE on: 2022-06-08. E = -6320.369541 Ha. Imaginary frequency = -286.8 cm-1
C    -3.75705   3.45953  -0.32866
N    -2.53248   2.83132  -0.78020
C    -1.44669   2.80299   0.00543
O    -1.27170   3.45147   1.03208
N    -0.46124   1.90257  -0.54214
O     0.58311   1.92504   0.28385
C     1.60724   1.18075  -0.08961
C     1.98332   1.14861  -1.45642
N     2.36001   1.11906  -2.55736
C     2.53988   0.90854   1.04816
O     2.11282   1.03862   2.19962
N     3.76059   0.46618   0.72944
C     4.71732   0.07921   1.75000
C     0.20156  -0.88796  -0.18834
Br    0.96383  -1.87970   1.26478
Br    0.67385  -1.67631  -1.86482
C    -1.01552  -0.19555  -0.09057
C    -2.03372  -0.40658  -1.23017
O    -2.23503   0.39293  -2.14398
N    -2.67783  -1.57539  -1.13576
C    -3.70108  -1.95246  -2.09489
C    -1.68427   0.18573   1.21944
O    -2.91958   0.24581   1.24987
N    -0.91674   0.50543   2.27081
C    -1.51741   1.04613   3.47743
H    -3.54494   4.45742   0.07860
H    -4.44458   3.55855  -1.17776
H    -4.24598   2.85972   0.45803
H    -2.57039   2.10882  -1.50605
H     4.05812   0.46140  -0.24289
H     5.20859   0.95878   2.19684
H     5.48136  -0.56262   1.29543
H     4.20453  -0.47295   2.54924
H    -2.52387  -2.16588  -0.32463
H    -3.29041  -1.95798  -3.11578
H    -4.54946  -1.25015  -2.06773
H    -4.06017  -2.95837  -1.84767
H     0.09803   0.58261   2.19082
H    -2.25370   0.34449   3.89632
H    -0.72275   1.21375   4.21461
H    -2.02537   2.00164   3.27152
