31
Generated by autodE on: 2022-10-23. E = -747.807787 Ha
C    -0.48050   3.15752  -0.44304
C    -1.61376   2.14555  -0.45483
O    -2.78071   2.53504  -0.64211
C    -1.26487   0.75904  -0.24454
N     0.04625   0.51528  -0.05376
C     1.18241   0.30599   0.11099
C     2.55922   0.06642   0.30916
C     3.03713  -1.26027   0.39584
C     4.39755  -1.47962   0.59359
C     5.28334  -0.40057   0.69974
C     4.80537   0.91245   0.61036
C     3.44881   1.15876   0.41860
C    -2.16247  -0.40372  -0.21734
C    -1.64949  -1.70308   0.00810
C    -2.48771  -2.81711   0.03490
C    -3.86588  -2.67722  -0.16078
C    -4.38797  -1.39937  -0.38433
C    -3.55735  -0.27802  -0.41339
H     0.25841   2.93977  -1.23115
H     0.05788   3.14676   0.51847
H    -0.90143   4.15729  -0.60964
H     2.33962  -2.09462   0.30819
H     4.77049  -2.50354   0.66329
H     6.34902  -0.58337   0.85258
H     5.49640   1.75391   0.69312
H     3.06588   2.17810   0.35112
H    -0.57929  -1.84943   0.16521
H    -2.05618  -3.80575   0.21138
H    -4.52156  -3.55069  -0.13942
H    -5.46217  -1.26806  -0.53977
H    -3.97431   0.71021  -0.58798
