24
Generated by autodE on: 2022-10-23. E = -5673.180837 Ha
C     0.11284  -3.81083  -2.09518
O    -0.94655  -2.88093  -2.32170
C    -1.50438  -2.31130  -1.19424
F    -2.15682  -3.30902  -0.46288
C    -0.51459  -1.63192  -0.33528
C     0.07297  -0.65310   0.07380
C     0.41567   0.73248   0.22517
Br   -0.36005   1.40137   1.94019
Br    2.38586   0.98504   0.30423
C    -0.16500   1.51757  -0.96503
C    -1.64317   1.22635  -1.29891
C    -1.96847   0.03035  -2.23692
C    -2.53745  -1.26233  -1.61839
H    -0.23060  -4.66229  -1.48777
H     0.96515  -3.32326  -1.59214
H     0.43216  -4.16981  -3.08172
H    -0.02342   2.58773  -0.75565
H     0.46069   1.27312  -1.83819
H    -2.00540   2.13662  -1.79944
H    -2.22950   1.15225  -0.36824
H    -2.73169   0.38431  -2.94543
H    -1.08970  -0.21832  -2.85474
H    -3.14671  -1.03197  -0.73148
H    -3.18789  -1.77335  -2.34547
