14
Generated by autodE on: 2022-06-19. E = -270.687343 Ha
C    -1.42927   1.25860   0.43187
C    -0.97267  -0.10947   0.02147
C    -2.07581  -1.09896  -0.20127
C     0.32341  -0.48020  -0.15124
C     1.48279   0.37651   0.02568
O     2.63861  -0.00560  -0.14089
H    -2.10507   1.66623  -0.33910
H    -2.02802   1.18331   1.35542
H    -0.61772   1.97582   0.59969
H    -2.76627  -0.72701  -0.97803
H    -1.69867  -2.08627  -0.50131
H    -2.67812  -1.20827   0.71724
H     0.55163  -1.50843  -0.45160
H     1.29285   1.43116   0.32649
