28
Generated by autodE on: 2022-06-19. E = -778.232415 Ha
C    -1.72082  -3.58107   0.19335
N    -1.00534  -2.31830   0.19801
C    -1.64716  -1.15959  -0.07806
O    -2.85710  -1.16286  -0.38417
C    -0.89146   0.09959   0.00872
N     0.44406   0.21566   0.00201
C     1.49294  -0.57461  -0.15361
C     2.79172   0.07314  -0.10164
O     2.96210   1.27095   0.09660
O     3.79260  -0.79986  -0.29363
C     5.12273  -0.26879  -0.25652
C    -1.53067   1.43548   0.14650
O    -0.80621   2.44023   0.31083
N    -2.86714   1.50373   0.08831
C    -3.57058   2.76365   0.19640
H    -2.47704  -3.62915   0.99484
H    -2.23594  -3.72633  -0.76688
H    -0.99934  -4.39488   0.33611
H    -0.10311  -2.29567   0.66006
H     0.68755   1.22187   0.13683
H     1.40080  -1.63827  -0.35083
H     5.26091   0.48650  -1.04430
H     5.33125   0.18637   0.72306
H     5.79335  -1.11890  -0.42769
H    -3.35220   0.62935  -0.12130
H    -4.64995   2.56842   0.19677
H    -3.30603   3.28795   1.12793
H    -3.33486   3.43630  -0.64532
