42
Generated by autodE on: 2022-06-19. E = -1048.886242 Ha. Imaginary frequency = -335.6 cm-1
C    -1.84044   3.28888  -2.14700
N    -0.93816   2.41251  -1.42282
C    -1.40382   1.71593  -0.35370
O    -2.56687   1.88257   0.06262
C    -0.47209   0.72632   0.24345
C    -0.82872  -0.06354   1.44273
O     0.03640  -0.72113   2.05258
N    -2.11936  -0.07505   1.81954
C    -2.57054  -0.87371   2.93767
N     0.86845   0.97722   0.01400
C     1.85909   0.08591  -0.11666
C     2.21064  -1.00286   0.87522
O     2.16803  -2.19970   0.69583
O     2.80079  -0.42961   1.92844
C     3.22068  -1.30898   2.98271
C     0.74943  -1.10841  -1.70485
C     1.33887  -0.23688  -2.69636
O     0.92712   0.87866  -3.03918
C    -0.61585  -1.11949  -1.33030
C    -1.07671  -2.28031  -0.48696
C    -1.70485  -0.55995  -2.21314
H    -2.66871   2.72992  -2.61632
H    -2.27743   4.03830  -1.47248
H    -1.27536   3.80743  -2.93219
H    -0.22078   1.94978  -1.99573
H    -2.73434   0.58210   1.33484
H    -2.29077  -1.93071   2.80513
H    -2.13779  -0.53045   3.89273
H    -3.66362  -0.80486   3.00501
H     1.03636   1.82371  -0.52773
H     2.76808   0.51416  -0.55327
H     3.67573  -0.66850   3.74700
H     2.35043  -1.83779   3.39774
H     3.95377  -2.03882   2.61071
H     1.34201  -1.98931  -1.45652
H     2.29095  -0.61387  -3.13556
H    -2.01118  -2.04285   0.04019
H    -0.32166  -2.59140   0.24347
H    -1.29157  -3.13888  -1.14855
H    -1.36995   0.25014  -2.86574
H    -2.56837  -0.21959  -1.62356
H    -2.07050  -1.38239  -2.85471
