36
Generated by autodE on: 2022-05-26. E = -1007.336652 Ha
C    -1.36112  -1.47284   2.08415
C    -1.12634  -0.78950   0.74523
N    -1.65797   0.58486   0.71172
C    -3.10943   0.68965   0.74538
C    -1.00711   1.27691  -0.38895
C    -1.62322   0.94909  -1.71124
N    -2.14194   0.63584  -2.69988
C    -1.10233   2.73943  -0.20959
N    -1.17970   3.88526  -0.05569
C     0.46983   0.76397  -0.37888
C     1.45109   1.52222   0.54218
C     2.86273   0.95174   0.26508
C     2.83858  -0.41971   1.00152
C     1.37591  -0.52990   1.48280
C     1.13948   0.92837   1.92803
C     0.36769  -0.64952   0.29345
C     0.68882  -1.77486  -0.68656
F     0.78602  -2.96130  -0.05475
F    -0.25927  -1.91506  -1.63966
F     1.84048  -1.58993  -1.36146
H    -0.88282  -2.46272   2.08103
H    -2.43687  -1.62845   2.24980
H    -0.96263  -0.88873   2.92482
H    -1.65580  -1.38616  -0.01930
H    -3.48664   0.29986   1.69959
H    -3.40750   1.74597   0.67517
H    -3.59578   0.12917  -0.07752
H     0.84116   0.73956  -1.40944
H     1.38627   2.61265   0.44177
H     3.62965   1.61936   0.68300
H     3.05912   0.85177  -0.81238
H     3.48133  -0.39272   1.89353
H     3.17981  -1.25803   0.38551
H     1.22560  -1.30570   2.24086
H     1.86181   1.24405   2.69501
H     0.12392   1.13765   2.27833
