36
Generated by autodE on: 2022-05-26. E = -1007.267679 Ha. Imaginary frequency = -313.8 cm-1
C    -1.85033  -1.72583   1.62592
C    -1.54742  -0.81454   0.48543
N    -1.93512   0.47711   0.50862
C    -2.51091   1.08166   1.71405
C    -1.52995   1.27942  -0.56875
C    -1.71926   0.79273  -1.89321
N    -1.84086   0.38682  -2.97981
C    -1.48560   2.68876  -0.42209
N    -1.38373   3.84718  -0.32343
C     0.73386   0.66623  -0.49694
C     1.41449   1.63231   0.44637
C     2.90987   1.16391   0.47290
C     2.85432  -0.15778   1.29419
C     1.32718  -0.34574   1.54158
C     0.93616   1.11939   1.81837
C     0.65025  -0.56873   0.17776
C     0.89763  -1.82952  -0.58434
F     0.64972  -2.93872   0.14819
F     0.14340  -1.91926  -1.70488
F     2.18284  -1.95826  -1.01243
H    -1.44373  -2.72164   1.41511
H    -2.94146  -1.82218   1.76500
H    -1.42306  -1.36259   2.57190
H    -1.54328  -1.25916  -0.50855
H    -2.02512   0.69822   2.61745
H    -2.39049   2.16924   1.68585
H    -3.58409   0.84447   1.76289
H     0.84138   0.75355  -1.57935
H     1.27690   2.69751   0.22482
H     3.52748   1.92653   0.97050
H     3.30826   1.01905  -0.54193
H     3.36155  -0.04028   2.26339
H     3.31453  -1.00784   0.77736
H     1.07473  -1.08525   2.31184
H     1.50865   1.55156   2.65200
H    -0.12689   1.27993   2.00736
