20
Generated by autodE on: 2022-06-25. E = -457.715331 Ha
C    -3.04837  -0.74275  -0.49371
N    -1.82832  -0.06943  -0.07917
C    -1.88759   1.26025   0.35750
C    -0.79115   1.97270   0.66142
C     0.60762   1.41522   0.56515
C     0.57539  -0.01036   0.03934
C     1.81493  -0.77227  -0.18292
N     2.97150  -0.12869   0.11543
O     1.83521  -1.94122  -0.61939
C    -0.60093  -0.63878  -0.24116
H    -3.81567  -0.66725   0.29192
H    -3.45772  -0.30599  -1.42065
H    -2.83542  -1.80447  -0.67140
H    -2.89481   1.67385   0.43446
H    -0.91878   3.00316   1.00090
H     1.10528   1.46134   1.55601
H     1.23060   2.06260  -0.08510
H     2.99605   0.82193   0.46149
H     3.84933  -0.61454  -0.03167
H    -0.59417  -1.66336  -0.61634
