27
Generated by autodE on: 2022-06-25. E = -815.067541 Ha
C     0.85295  -3.93074  -0.97609
N     0.39953  -2.61573  -0.56675
C     1.23303  -1.56602  -0.55913
O     2.42562  -1.64831  -0.89699
C     0.65782  -0.25133  -0.14961
O    -0.62380  -0.25198   0.01903
C    -1.58698   0.62691   0.24553
C    -1.43492   2.02724   0.12939
N    -1.45018   3.18262  -0.03194
C    -2.92595   0.06444   0.44544
C    -3.07352  -1.43251   0.41484
O    -3.87267   0.82507   0.63484
C     1.47437   0.92133   0.26630
O     0.98564   1.73961   1.05689
N     2.72114   0.98458  -0.22118
C     3.65014   2.00220   0.22539
H     1.23321  -3.91293  -2.00933
H     0.00855  -4.62711  -0.91774
H     1.66215  -4.29314  -0.32258
H    -0.56376  -2.49225  -0.27433
H    -2.77777  -1.82317  -0.57255
H    -4.12092  -1.69098   0.61343
H    -2.42212  -1.90559   1.16616
H     3.04771   0.15586  -0.72440
H     3.17339   2.99224   0.19133
H     4.52498   2.00127  -0.43598
H     3.98666   1.82261   1.26069
