18
Generated by autodE on: 2022-06-16. E = -235.968071 Ha
C    -1.68894   0.73417   0.70316
C    -0.66918  -0.04313  -0.09405
C    -1.32442  -0.92836  -1.12685
C     0.66918   0.04308   0.09410
C     1.68894  -0.73416  -0.70317
C     1.32441   0.92838   1.12683
H    -1.25984   1.39096   1.46926
H    -2.30661   1.35756   0.03185
H    -2.39059   0.04380   1.20498
H    -2.01990  -1.63564  -0.64021
H    -1.94141  -0.32294  -1.81500
H    -0.62228  -1.51302  -1.73310
H     2.30674  -1.35745  -0.03187
H     2.39047  -0.04375  -1.20510
H     1.25985  -1.39104  -1.46919
H     1.94214   0.32314   1.81447
H     0.62222   1.51242   1.73361
H     2.01920   1.63625   0.64004
