17
Generated by autodE on: 2022-07-27. E = -401.316216 Ha
C    -3.48216   0.88884  -1.18911
C    -2.47404   0.93732  -0.10293
N    -1.28777   0.41274  -0.22966
C    -0.22540   0.35330   0.63853
C     0.93029  -0.30195   0.16814
O     1.06657  -0.82729  -0.95171
O     1.94775  -0.31803   1.08806
C     3.15315  -0.95668   0.68028
H    -3.09078   0.37040  -2.07757
H    -4.39684   0.37032  -0.85160
H    -3.79014   1.90806  -1.48190
H    -2.69968   1.42390   0.85047
H    -1.07730  -0.04536  -1.12678
H    -0.32113   0.80360   1.62336
H     3.84469  -0.87985   1.52946
H     2.98597  -2.01820   0.43792
H     3.59488  -0.46115  -0.19894
