17
Generated by autodE on: 2022-06-16. E = -401.314442 Ha
C    -3.41884   0.99841   0.44111
C    -2.53687  -0.02788  -0.16445
N    -1.23752   0.01749  -0.05953
C    -0.27191  -0.83231  -0.54570
C     1.09254  -0.57422  -0.30372
O     2.05011  -1.26256  -0.68329
O     1.30019   0.57594   0.43546
C     2.65209   0.90614   0.73143
H    -4.03886   1.48618  -0.33158
H    -4.11976   0.53735   1.15922
H    -2.83716   1.77191   0.96510
H    -2.95707  -0.86746  -0.72576
H    -0.85142   0.80870   0.46863
H    -0.58981  -1.70176  -1.11685
H     3.23410   1.07959  -0.18758
H     2.62176   1.82905   1.32512
H     3.14222   0.11021   1.31404
