35
Generated by autodE on: 2022-06-16. E = -637.273282 Ha. Imaginary frequency = -384.6 cm-1
C     4.04184  -0.32681   0.17722
O     2.83716   0.37129   0.48801
C     1.89848   0.42491  -0.50043
O     2.10315  -0.06945  -1.61600
C     0.68171   1.02048  -0.06946
N    -0.29768   1.21854  -1.00303
C    -1.58163   1.34814  -0.63669
C    -2.63143   1.49932  -1.68541
C    -1.84089  -0.58040   0.47826
C    -2.93154  -0.08937   1.41036
C    -2.34203  -1.44803  -0.66010
C    -0.55156  -0.83021   0.98303
C    -0.18387  -0.45346   2.39613
C     0.27933  -1.93433   0.37574
H     4.66347  -0.28239   1.08031
H     3.83754  -1.37730  -0.08090
H     4.57200   0.14918  -0.66189
H     0.62300   1.57551   0.86292
H    -0.10859   0.80795  -1.91941
H    -1.73236   1.87569   0.30752
H    -2.41166   0.87683  -2.56644
H    -3.61600   1.21260  -1.28912
H    -2.71080   2.54982  -2.01891
H    -3.79144   0.30670   0.84700
H    -2.58868   0.70088   2.09313
H    -3.31266  -0.91673   2.03891
H    -1.64561  -1.46520  -1.51218
H    -2.47376  -2.49736  -0.33456
H    -3.31766  -1.10243  -1.03121
H    -0.57024  -1.20170   3.11654
H     0.90890  -0.41371   2.52290
H    -0.59421   0.52062   2.69847
H    -0.16734  -2.92495   0.59062
H     1.30019  -1.93998   0.78476
H     0.35914  -1.85624  -0.71842
