40
Generated by autodE on: 2022-06-03. E = -1640.204745 Ha
C    -1.70536   4.15532   1.74991
O    -0.86997   3.03443   1.41475
C    -1.46887   2.02370   0.79300
O    -2.64620   1.96541   0.47926
N    -0.59005   1.02294   0.46825
O     0.65116   0.97092   1.24138
N     1.35484  -0.12308   0.74626
C     2.27874   0.24828  -0.29598
C     2.05937   1.35487  -1.12464
C     3.01117   1.68403  -2.09279
C     4.16877   0.91457  -2.24342
C     4.38357  -0.18387  -1.40493
C     3.44820  -0.50985  -0.42151
C     0.32289  -1.13261   0.50290
Cl    0.79632  -2.26426  -0.80076
C    -0.15793  -1.97626   1.73862
C    -0.45710  -1.04650   2.90211
C    -1.61965  -0.45588   2.60036
C    -1.99691  -0.99931   1.23297
O    -1.46148  -2.32630   1.27252
C    -1.01141  -0.32270   0.18750
C    -1.45814  -0.42197  -1.27010
O    -1.08711   0.33665  -2.13697
O    -2.28413  -1.43945  -1.45838
C    -2.71197  -1.68681  -2.80857
H    -1.05067   4.87087   2.25984
H    -2.12563   4.60523   0.83940
H    -2.51881   3.83986   2.41835
H     1.15737   1.95420  -1.01686
H     2.83984   2.54883  -2.73788
H     4.90572   1.17560  -3.00614
H     5.29138  -0.78311  -1.50455
H     3.61613  -1.35236   0.25080
H     0.46928  -2.85309   1.92769
H     0.20353  -0.87629   3.75077
H    -2.15280   0.32733   3.13801
H    -3.04652  -0.99126   0.93289
H    -3.24582  -0.81201  -3.20503
H    -3.37994  -2.55355  -2.75726
H    -1.84127  -1.90934  -3.44155
