21
Generated by autodE on: 2022-07-27. E = -644.975978 Ha
C    -3.02822   1.95828  -1.32519
O    -2.20552   0.96618  -0.69799
C    -2.68097   0.42469   0.42905
O    -3.75381   0.74009   0.92689
N    -1.97819  -0.63845   0.96952
O    -0.68240  -0.79715   0.65123
N     0.07919   0.17008   0.28210
C     1.36773  -0.25440   0.04535
C     2.27180   0.78050  -0.28835
C     3.60668   0.47749  -0.53135
C     4.04517  -0.84929  -0.45026
C     3.14565  -1.88089  -0.12763
C     1.81072  -1.59897   0.11748
H    -3.19189   2.80878  -0.64749
H    -2.47726   2.28546  -2.21491
H    -3.99949   1.53185  -1.61619
H     1.89943   1.80454  -0.34411
H     4.30862   1.27356  -0.78604
H     5.09312  -1.08787  -0.64413
H     3.49947  -2.91239  -0.07492
H     1.10513  -2.39422   0.35663
