40
Generated by autodE on: 2022-06-03. E = -1640.115664 Ha. Imaginary frequency = -229.4 cm-1
C    -2.18327   3.88249  -0.54974
O    -1.24643   2.93095  -0.02257
C    -1.75948   1.93273   0.69752
O    -2.93976   1.81166   0.97676
N    -0.84435   0.98126   1.15079
O     0.36430   1.23964   0.62657
N     1.23415   0.30554   0.94932
C     2.44410   0.53194   0.30762
C     2.65261   1.51145  -0.68708
C     3.90931   1.62918  -1.27030
C     4.95281   0.77243  -0.89052
C     4.73826  -0.21247   0.08125
C     3.48897  -0.33689   0.68124
C     0.18582  -1.44874  -0.06480
Cl    1.09767  -1.48294  -1.52860
C     0.31498  -2.61380   0.95938
C     0.24569  -2.02643   2.36709
C    -1.01444  -1.60372   2.50531
C    -1.69811  -1.93929   1.18075
O    -1.01435  -3.16489   0.82361
C    -1.12822  -1.00846   0.07465
C    -1.92128  -0.35431  -0.97837
O    -1.45393   0.34525  -1.85956
O    -3.22927  -0.59615  -0.83879
C    -4.10772   0.06099  -1.76361
H    -2.78822   4.31923   0.25696
H    -1.58051   4.65753  -1.03667
H    -2.83998   3.39530  -1.28552
H     1.83095   2.15937  -0.99078
H     4.07930   2.38839  -2.03666
H     5.93428   0.87077  -1.35938
H     5.54948  -0.88333   0.37090
H     3.29602  -1.09827   1.43913
H     1.09853  -3.34248   0.73148
H     1.09275  -1.90982   3.04045
H    -1.47188  -1.04889   3.32202
H    -2.78501  -2.05131   1.16929
H    -4.02760   1.15176  -1.65185
H    -5.11922  -0.27224  -1.50524
H    -3.86435  -0.22368  -2.79698
