52
Generated by autodE on: 2022-10-21. E = -1114.414488 Ha
C     3.62878   1.77376  -0.90587
O     2.60043   1.33225  -0.03736
C     2.11299   0.00872  -0.20124
C     3.23425  -0.99661   0.03884
C     1.41977  -0.16304  -1.60167
C     2.18688  -0.95715  -2.56588
N     2.79072  -1.57192  -3.34312
N     0.12643  -0.77697  -1.33550
C    -0.74017  -0.82937  -2.50147
C    -0.40816  -0.14311  -0.10521
C    -0.99291   1.24475  -0.46253
C    -0.21518   2.40849  -0.58956
C    -0.76897   3.60882  -1.04951
C    -2.11478   3.67824  -1.41102
C    -2.89883   2.52486  -1.31764
C    -2.34311   1.33086  -0.85519
C    -1.47137  -1.01642   0.56357
C    -1.61253  -2.37366   0.25024
C    -2.52573  -3.17782   0.93814
C    -3.31244  -2.63820   1.95963
C    -3.17772  -1.28497   2.28409
C    -2.26695  -0.48437   1.59050
C     0.90118  -0.18398   0.80874
C     0.91348   0.80462   1.96272
O     1.02996  -1.53168   1.26635
C     0.75928  -1.88662   2.60793
H     4.60086   1.30885  -0.67219
H     3.39318   1.58485  -1.96771
H     3.71665   2.85976  -0.76079
H     2.89370  -2.02223  -0.13763
H     4.07777  -0.79752  -0.63642
H     3.58772  -0.91803   1.07659
H     1.31253   0.84223  -2.05940
H    -1.71751  -1.24549  -2.22657
H    -0.29520  -1.49325  -3.25849
H    -0.90289   0.16087  -2.96904
H     0.84193   2.38897  -0.33798
H    -0.13293   4.49433  -1.12463
H    -2.54731   4.61603  -1.76781
H    -3.95185   2.55027  -1.60866
H    -2.97864   0.44725  -0.80509
H    -0.98704  -2.80762  -0.52829
H    -2.61836  -4.23461   0.67551
H    -4.02540  -3.26687   2.49850
H    -3.78277  -0.84792   3.08212
H    -2.17567   0.56992   1.85487
H     0.83305   1.83721   1.61787
H     0.07220   0.61139   2.64035
H     1.84849   0.70940   2.53222
H    -0.25917  -1.61902   2.92891
H     0.85649  -2.98111   2.65313
H     1.48479  -1.44736   3.31304
