52
Generated by autodE on: 2022-10-21. E = -1114.341082 Ha. Imaginary frequency = -366.8 cm-1
C     2.71111   2.31759  -1.12054
O     1.93428   1.58779  -0.18524
C     1.92230   0.20694  -0.25214
C     3.18155  -0.46845  -0.73091
C     0.62544  -0.18135  -2.04786
C     1.31594  -0.87045  -3.06660
N     1.97303  -1.40741  -3.87295
N    -0.51130  -0.75052  -1.48942
C    -0.76202  -2.16446  -1.78884
C    -1.04094  -0.15901  -0.36245
C    -1.23343   1.31998  -0.33792
C    -1.53682   1.95780   0.88429
C    -1.76446   3.33125   0.95193
C    -1.72378   4.11483  -0.20650
C    -1.48394   3.49313  -1.43442
C    -1.24963   2.11772  -1.49964
C    -2.09418  -0.91177   0.40076
C    -1.80700  -2.04985   1.17431
C    -2.81752  -2.71480   1.87357
C    -4.13963  -2.26763   1.80486
C    -4.44354  -1.14390   1.02936
C    -3.43203  -0.47199   0.34179
C     1.09831  -0.38030   0.73638
C     0.83932   0.28443   2.05527
O     1.17030  -1.77531   0.73870
C     1.92074  -2.38584   1.78151
H     2.44842   3.37534  -0.98306
H     2.48568   2.03049  -2.16072
H     3.79237   2.19381  -0.94489
H     3.03689  -1.55330  -0.76825
H     3.49926  -0.13783  -1.72870
H     4.00524  -0.24946  -0.02729
H     0.63509   0.89665  -2.16248
H    -1.77642  -2.43464  -1.48237
H    -0.04133  -2.81993  -1.28117
H    -0.68043  -2.31702  -2.87253
H    -1.61158   1.36457   1.79351
H    -1.98453   3.79193   1.91812
H    -1.89965   5.19173  -0.15454
H    -1.49001   4.07863  -2.35714
H    -1.11344   1.66313  -2.48016
H    -0.78077  -2.40418   1.22568
H    -2.56662  -3.59157   2.47577
H    -4.92906  -2.79124   2.34940
H    -5.47420  -0.78786   0.95810
H    -3.68309   0.40423  -0.25807
H     0.68664   1.35942   1.92187
H    -0.04004  -0.13839   2.56351
H     1.70726   0.16284   2.73007
H     2.94164  -1.97225   1.84489
H     1.98561  -3.45587   1.53904
H     1.42936  -2.27644   2.76265
