42
Generated by autodE on: 2022-06-20. E = -1049.716175 Ha
C    -0.45309  -2.08804   1.43707
N     0.49907  -1.01106   1.20431
C     1.73134  -1.31285   0.71435
C     2.70122  -0.40537   0.41852
C     3.98985  -0.92010  -0.06184
N     4.98538  -0.01143  -0.23028
O     4.19444  -2.12626  -0.31348
C     2.47475   1.05284   0.72248
C     0.99450   1.45682   0.79079
C    -0.04404   0.32899   1.08625
C    -1.05953   0.50183  -0.12863
C    -2.45555  -0.03192   0.05737
C    -3.18491   0.38327   1.18399
C    -4.49222  -0.05928   1.39055
C    -5.09460  -0.92376   0.47037
C    -4.38014  -1.33355  -0.65769
C    -3.07040  -0.88982  -0.86577
N    -0.99276   1.96680  -0.28817
C     0.42347   2.04612  -0.51701
C     0.95548   3.35508  -1.01735
O     0.67065   0.99591  -1.56506
C    -0.22094   0.01840  -1.32624
O    -0.23007  -1.02692  -1.93477
H    -0.98590  -2.37892   0.51697
H    -1.19738  -1.76934   2.18007
H     0.07610  -2.96715   1.82868
H     1.93697  -2.37817   0.59201
H     5.89230  -0.34266  -0.53978
H     4.88422   0.96584   0.01068
H     2.97183   1.69160  -0.02380
H     2.94786   1.30200   1.68872
H     0.87563   2.23787   1.55066
H    -0.60662   0.55978   1.99930
H    -2.72893   1.06365   1.90537
H    -5.04319   0.27350   2.27335
H    -6.11725  -1.27289   0.63154
H    -4.84235  -2.00425  -1.38587
H    -2.52222  -1.22423  -1.74473
H    -1.51642   2.25828  -1.11802
H     2.03609   3.28914  -1.20451
H     0.77495   4.13502  -0.26439
H     0.45198   3.63633  -1.95394
