34
Generated by autodE on: 2022-05-30. E = -1135.970106 Ha
C    -3.53198  -1.13221  -0.44391
C    -2.39960  -1.27505   0.51080
O    -2.26431  -2.14654   1.33629
C    -1.31315  -0.14112   0.48273
C    -1.74250   0.81514   1.52687
N    -2.14139   1.53732   2.34062
O    -1.29273   0.49486  -0.78335
C    -0.03241   1.12002  -0.96966
C    -0.07936   2.47704  -0.35602
N    -0.24911   3.51711   0.12409
C     0.19560   1.29987  -2.41516
N     0.38923   1.45554  -3.54544
C     1.01283   0.16445  -0.29560
C     2.26602   0.95262   0.11884
C     3.21747   0.41593   1.13819
O     2.47300   1.98904  -0.48675
C     1.56452  -1.03479  -1.22877
C     0.42368  -1.64144  -2.02003
C    -0.27277  -2.36897  -1.13794
C     0.43807  -2.17530   0.18418
O     1.79156  -2.00474  -0.21447
C     0.14539  -0.67432   0.71387
C     0.52069  -0.60247   2.11678
N     0.78386  -0.59432   3.24568
H    -4.00536  -0.14683  -0.29993
H    -3.15031  -1.15658  -1.47611
H    -4.25742  -1.93832  -0.28062
H     3.23178  -0.68002   1.15702
H     4.21603   0.82729   0.94127
H     2.88823   0.76706   2.13013
H     2.47874  -0.77250  -1.76961
H     0.22548  -1.46727  -3.07560
H    -1.17996  -2.94936  -1.29498
H     0.32413  -2.93423   0.96113
