15
Generated by autodE on: 2022-07-26. E = -583.361703 Ha
C    -1.88405  -2.21807   1.88846
C    -1.30350  -1.78317   0.57930
O    -1.46136  -2.36593  -0.47886
C    -0.47639  -0.53867   0.59653
C    -0.21967   0.20580   1.77109
N    -0.04596   0.76591   2.77833
O    -0.00385  -0.19547  -0.56692
C     0.73400   0.79142  -1.01343
C     1.22703   1.83739  -0.19946
N     1.65617   2.72367   0.42348
C     1.02145   0.75631  -2.39887
N     1.27312   0.75045  -3.53609
H    -2.51890  -1.41935   2.30577
H    -2.47527  -3.13008   1.74221
H    -1.07784  -2.40514   2.61679
