15
Generated by autodE on: 2022-05-30. E = -583.363153 Ha
C    -2.51701  -1.24066   1.03631
C    -2.29214  -0.10236   0.09033
O    -3.17994   0.54381  -0.44536
C    -0.88720   0.26226  -0.21674
C    -0.60828   1.32760  -1.10840
N    -0.43403   2.21019  -1.84772
O     0.03887  -0.44185   0.36466
C     1.35180  -0.43989   0.35783
C     2.13228   0.46636  -0.39539
N     2.82057   1.18995  -0.99588
C     1.96268  -1.41535   1.18048
N     2.49038  -2.20811   1.85126
H    -3.59555  -1.39428   1.16298
H    -2.04654  -2.15671   0.64496
H    -2.04738  -1.02395   2.00901
