19
Generated by autodE on: 2022-05-30. E = -552.523368 Ha
C     2.73357  -1.28295  -0.09820
C     1.86789  -0.14632   0.35692
O     2.24527   0.70676   1.15034
C     0.49621  -0.09253  -0.19715
C    -0.51818   0.71442   0.18724
C    -0.53943   1.71509   1.18145
N    -0.61883   2.55449   1.98578
C    -1.74500   0.24254  -0.65099
C    -2.12256  -1.15557  -0.11694
C    -1.11964  -1.95053  -0.49867
C    -0.14315  -1.02402  -1.25570
O    -1.06507  -0.10157  -1.86272
H     2.21467  -2.24159   0.06791
H     3.69187  -1.27070   0.43597
H     2.90836  -1.20023  -1.18408
H    -2.54285   0.97620  -0.79906
H    -3.00241  -1.37440   0.48626
H    -0.94537  -3.00638  -0.29659
H     0.53361  -1.47890  -1.98460
