36
Generated by autodE on: 2022-10-07. E = -1232.119524 Ha
C    -3.52272   2.71587   0.61756
N    -2.42121   1.77576   0.65223
C    -2.18010   0.92547  -0.35425
O    -2.90956   0.80087  -1.34231
C    -0.94489   0.03148  -0.18857
C    -1.47678  -1.38453   0.17495
O    -1.97012  -2.11039  -0.68810
N    -1.36833  -1.72752   1.46825
C    -1.58726  -3.08877   1.91570
N    -0.04880   0.50182   0.87726
C     1.15387   0.34669   0.47293
C     2.34178   0.64010   1.33314
O     3.47689   0.63194   0.89826
O     2.02741   0.89737   2.59970
C     3.12068   1.17931   3.48682
C     1.32782  -0.24994  -0.89113
C     1.71336  -1.75799  -0.76004
O     1.76411  -2.23120   0.40815
O     1.91541  -2.37243  -1.82976
C    -0.09025  -0.06231  -1.48530
C    -0.14362   1.21436  -2.35192
O    -0.21897   1.05184  -3.59538
O    -0.06472   2.31817  -1.74732
H    -3.35085   3.51506  -0.12308
H    -4.45844   2.20254   0.35231
H    -3.63682   3.17245   1.60850
H    -1.71459   1.84167   1.37842
H    -0.82041  -1.10434   2.05524
H    -2.48466  -3.50389   1.43843
H    -1.72554  -3.09773   3.00445
H    -0.72635  -3.73043   1.66035
H     2.67224   1.35826   4.47061
H     3.80806   0.32213   3.53039
H     3.66863   2.07065   3.14870
H     2.10809   0.24866  -1.48286
H    -0.38555  -0.92000  -2.09538
