74
Generated by autodE on: 2022-07-01. E = -1631.444655 Ha
C    19.98444  18.14181 -15.16179
N    20.47828  17.16955 -16.11672
C    19.79067  16.86043 -17.22230
O    18.69117  17.36242 -17.48402
C    20.41512  15.80988 -18.18646
C    21.22056  14.72600 -17.40387
O    22.11705  15.02581 -16.59641
N    20.90205  13.47094 -17.72093
C    21.66268  12.31929 -17.28718
N    19.36237  15.19814 -18.97388
C    19.63318  15.35365 -20.42058
C    19.39568  14.00518 -21.10352
C    18.59457  16.37045 -20.96145
O    17.67029  16.08894 -21.69688
O    18.75467  17.57803 -20.42350
C    17.73099  18.54876 -20.65895
C    21.05162  15.97365 -20.46607
C    21.41214  16.38050 -19.22853
C    22.52714  17.24117 -18.66595
C    22.29532  18.72701 -18.98512
C    23.98485  16.75145 -18.82477
C    24.78766  17.19630 -20.04068
C    24.39397  16.55641 -21.36574
C    23.03167  16.97606 -21.94032
C    21.78794  16.01994 -21.81892
C    22.34113  14.61489 -22.14479
C    22.83418  14.32986 -23.42991
C    23.45988  13.11380 -23.71280
C    23.62300  12.15253 -22.71003
C    23.16659  12.43382 -21.42080
C    22.54119  13.65342 -21.14393
C    20.78060  16.55068 -22.87461
C    20.42763  17.91202 -22.83087
C    19.51560  18.45792 -23.73455
C    18.92192  17.65088 -24.70986
C    19.26245  16.29902 -24.76993
C    20.18362  15.75944 -23.86671
H    20.73165  18.27174 -14.36937
H    19.03545  17.81465 -14.70638
H    19.80840  19.11399 -15.64755
H    21.32028  16.62402 -15.92542
H    20.15785  13.38983 -18.41356
H    22.05885  12.49105 -16.27739
H    22.51181  12.12050 -17.96361
H    21.01398  11.43356 -17.27161
H    18.46945  15.60835 -18.70461
H    19.57163  14.03169 -22.18259
H    18.34889  13.71251 -20.94067
H    20.04168  13.23971 -20.66109
H    18.04425  19.45275 -20.12426
H    17.63320  18.75572 -21.73356
H    16.76925  18.18930 -20.26487
H    22.38117  17.17745 -17.58620
H    21.28009  19.02605 -18.67952
H    23.01359  19.35208 -18.43029
H    22.39666  18.96176 -20.05266
H    24.51983  17.11014 -17.92941
H    23.99146  15.65066 -18.75723
H    25.84576  16.95045 -19.84612
H    24.74981  18.29577 -20.13212
H    24.46088  15.46248 -21.27113
H    25.15744  16.83301 -22.11083
H    22.76516  17.97078 -21.56803
H    23.15896  17.10083 -23.02412
H    22.74629  15.07265 -24.22377
H    23.82863  12.92073 -24.72324
H    24.11191  11.20061 -22.93034
H    23.30038  11.70566 -20.61678
H    22.21743  13.85875 -20.12508
H    20.84816  18.55503 -22.05779
H    19.26188  19.51846 -23.66889
H    18.20198  18.07310 -25.41485
H    18.80913  15.65054 -25.52354
H    20.42528  14.70120 -23.94484
