43
Generated by autodE on: 2022-07-01. E = -813.799797 Ha
C     1.98761   3.77219   1.96041
C     2.30827   2.89099   0.74492
C     1.67452   1.57348   0.83583
C     0.87254   0.68917   0.61751
C    -0.27701   0.00087   0.01677
C    -1.06468  -0.78192   1.08079
C    -0.35738  -1.60445   1.97236
C    -1.02566  -2.36741   2.93044
C    -2.42226  -2.32164   3.01437
C    -3.13506  -1.50765   2.13196
C    -2.46182  -0.74242   1.17159
C     0.15530  -0.98226  -1.09085
C    -0.82351  -1.75054  -1.74252
C    -0.47668  -2.63127  -2.76783
C     0.86075  -2.76530  -3.15953
C     1.84132  -2.00914  -2.51489
C     1.48976  -1.12329  -1.48909
C    -1.10845   1.16849  -0.61674
C    -0.32067   2.15626  -1.50396
C     0.27569   3.43446  -0.84579
C     1.79786   3.49971  -0.59254
H     0.90278   3.93252   2.05933
H     2.47428   4.75425   1.85468
H     2.34727   3.30780   2.89131
H     3.40436   2.79029   0.67688
H     0.73297  -1.64487   1.90979
H    -0.45498  -2.99932   3.61546
H    -2.94923  -2.91646   3.76419
H    -4.22554  -1.46255   2.18729
H    -3.04220  -0.11851   0.49214
H    -1.86943  -1.66360  -1.44118
H    -1.25436  -3.21885  -3.26195
H     1.13380  -3.45626  -3.96061
H     2.88958  -2.10434  -2.80882
H     2.26317  -0.53513  -0.99335
H    -1.59267   1.72291   0.20239
H    -1.91491   0.71674  -1.21268
H    -1.02906   2.49801  -2.27475
H     0.46742   1.61580  -2.05524
H    -0.26900   3.65648   0.08793
H     0.04473   4.27513  -1.51919
H     2.31797   2.99801  -1.42558
H     2.12051   4.55438  -0.61387
