31
Generated by autodE on: 2022-07-01. E = -817.567724 Ha
C    -2.99662  -1.74877   1.80149
N    -2.05931  -0.92975   1.05889
C    -1.08541  -0.22882   1.67737
O    -1.05242  -0.13672   2.92205
C    -0.13887   0.50843   0.82190
N     0.28152   0.12054  -0.39727
C     0.38436  -1.03203  -1.04955
C     0.11441  -2.35825  -0.43349
C     0.92429  -0.86297  -2.40295
O     1.22949   0.22356  -2.88395
O     1.05596  -2.02093  -3.06097
C     1.59243  -1.94953  -4.38784
C     0.30482   1.88293   1.14069
O     0.90045   2.55971   0.27565
N     0.03890   2.35191   2.37233
C     0.46272   3.66979   2.79281
H    -3.62126  -1.13863   2.47338
H    -2.46955  -2.49680   2.41510
H    -3.64860  -2.27047   1.09037
H    -2.11950  -0.92348   0.04783
H     0.69666   0.92492  -0.90591
H     0.38675  -2.34413   0.63423
H    -0.94319  -2.66508  -0.49489
H     0.71138  -3.12412  -0.94373
H     2.61054  -1.53373  -4.37106
H     0.95450  -1.32419  -5.02937
H     1.61131  -2.97971  -4.76174
H    -0.36847   1.69115   3.03352
H     1.56210   3.76055   2.81275
H     0.07808   3.86097   3.80224
H     0.07553   4.44678   2.11549
