74
Generated by autodE on: 2022-07-01. E = -1631.359135 Ha. Imaginary frequency = -339.4 cm-1
C    20.87131  17.91295 -14.91611
N    20.76092  16.83952 -15.88293
C    20.02715  16.96364 -17.00335
O    19.27676  17.93318 -17.21815
C    20.15164  15.87774 -18.02127
C    20.68042  14.55282 -17.57500
O    21.81863  14.43320 -17.08812
N    19.82591  13.51463 -17.63769
C    20.26466  12.15368 -17.39696
N    19.21195  15.99965 -18.99294
C    19.22220  15.50196 -20.24992
C    19.50404  14.07378 -20.60772
C    18.22237  16.16957 -21.12638
O    17.69184  15.63975 -22.08586
O    17.92618  17.41863 -20.72350
C    16.85003  18.08424 -21.39463
C    21.52878  16.27020 -20.53127
C    21.86863  16.55740 -19.36301
C    22.84889  17.18881 -18.44273
C    22.56556  18.69411 -18.30999
C    24.30509  16.89383 -18.86636
C    24.84586  17.55034 -20.14241
C    24.54040  16.89550 -21.49765
C    23.18467  17.16694 -22.17038
C    22.01131  16.13634 -21.93986
C    22.60451  14.73651 -22.19015
C    23.12925  14.41991 -23.45643
C    23.75715  13.19625 -23.69542
C    23.88921  12.25762 -22.66642
C    23.39974  12.56978 -21.39708
C    22.77250  13.79853 -21.16313
C    20.89119  16.52075 -22.92957
C    20.36346  17.82222 -22.85693
C    19.39634  18.26347 -23.76000
C    18.91686  17.40368 -24.75400
C    19.40663  16.09886 -24.81697
C    20.38180  15.66261 -23.91261
H    21.52618  18.72330 -15.27950
H    21.29211  17.51394 -13.98445
H    19.88130  18.34004 -14.70581
H    21.42128  16.06562 -15.84357
H    18.91053  13.65934 -18.04844
H    20.77330  12.07597 -16.42552
H    20.96461  11.81409 -18.17947
H    19.38909  11.49328 -17.39457
H    18.75912  16.91944 -18.91771
H    19.69731  14.00462 -21.68461
H    18.62191  13.44388 -20.38856
H    20.36363  13.66003 -20.08054
H    16.80577  19.09300 -20.96822
H    17.04010  18.13619 -22.47429
H    15.90336  17.55379 -21.21322
H    22.74432  16.74463 -17.44656
H    21.55067  18.87838 -17.93320
H    23.28271  19.15862 -17.61424
H    22.65096  19.20223 -19.28227
H    24.93648  17.22671 -18.02445
H    24.43394  15.80008 -18.93256
H    25.94444  17.55426 -20.04378
H    24.55546  18.61424 -20.17392
H    24.72405  15.81156 -21.42687
H    25.30334  17.27104 -22.19917
H    22.82667  18.16726 -21.88634
H    23.34217  17.19702 -23.25923
H    23.05754  15.14245 -24.27059
H    24.15078  12.97814 -24.69128
H    24.37991  11.29914 -22.85173
H    23.51000  11.85876 -20.57444
H    22.42956  14.03532 -20.15727
H    20.70678  18.50004 -22.07345
H    19.01023  19.28244 -23.68167
H    18.15884  17.74633 -25.46229
H    19.02583  15.40514 -25.57059
H    20.73427  14.63467 -23.97942
