32
Generated by autodE on: 2022-06-17. E = -652.207602 Ha
C     4.16812   0.01103   0.66885
N     2.73701  -0.15637   0.55398
C     2.11963  -0.59977  -0.54967
O     2.70449  -0.96518  -1.58080
C     0.59989  -0.62233  -0.48068
N     0.05546  -0.32429   0.84856
C    -1.25496   0.31238   0.69269
C    -2.34988  -0.49946   1.36907
C    -3.73587   0.07813   1.40256
O    -2.09940  -1.59181   1.85824
C    -1.49078   0.46192  -0.84218
C    -2.33212   1.66124  -1.25765
C    -0.05166   0.42849  -1.40612
C     0.66035   1.78169  -1.38012
H     4.66518  -0.61183  -0.08605
H     4.50992  -0.29709   1.66756
H     4.47286   1.05912   0.50724
H     2.10948   0.15169   1.29498
H     0.30334  -1.62564  -0.83761
H    -0.07426  -1.18677   1.37801
H    -1.27389   1.31585   1.15766
H    -4.33593  -0.43072   2.16877
H    -4.21037  -0.08845   0.42048
H    -3.71750   1.16297   1.57882
H    -1.98659  -0.45929  -1.19181
H    -3.37512   1.55847  -0.92662
H    -1.93816   2.59715  -0.83294
H    -2.34274   1.76250  -2.35450
H    -0.06099   0.05426  -2.44052
H     1.69006   1.68378  -1.75636
H     0.14675   2.50804  -2.02647
H     0.70772   2.20656  -0.36548
