20
Generated by autodE on: 2022-07-27. E = -494.847350 Ha
C     4.11092   0.67753  -0.37477
N     2.95283  -0.04277  -0.85825
C     1.72617   0.14606  -0.31570
O     1.53851   0.94447   0.62142
C     0.66082  -0.65368  -0.91534
N    -0.59523  -0.59984  -0.50819
C    -1.25353   0.08726   0.44525
C    -2.65793  -0.18261   0.53263
C    -3.45516   0.55668   1.57716
O    -3.21442  -1.00261  -0.22965
H     3.98250   1.76680  -0.48511
H     4.29747   0.46989   0.69160
H     4.98997   0.36696  -0.95236
H     3.06136  -0.70334  -1.62057
H     0.86779  -1.33643  -1.73877
H    -1.25379  -1.21352  -1.01415
H    -0.71284   0.78260   1.07631
H    -4.24894   1.13943   1.08142
H    -2.83668   1.23118   2.18479
H    -3.95495  -0.17244   2.23563
