32
Generated by autodE on: 2022-06-17. E = -652.131500 Ha. Imaginary frequency = -428.4 cm-1
C     4.11644   0.63551  -0.28621
N     3.06978  -0.35904  -0.39570
C     1.85613  -0.17852   0.17969
O     1.64423   0.75848   0.97025
C     0.83781  -1.16813  -0.21452
N    -0.27494  -1.36146   0.53114
C    -1.06716  -0.34742   0.96309
C    -2.43542  -0.69979   1.29237
C    -3.32863   0.39243   1.82123
O    -2.87909  -1.83708   1.06834
C    -1.25706   0.67250  -1.09789
C    -1.31347   2.12636  -0.71051
C    -0.17138   0.13045  -1.79750
C     0.93573   0.99615  -2.34676
H     3.87787   1.55187  -0.85409
H     5.05241   0.21610  -0.67655
H     4.26836   0.91863   0.76505
H     3.15580  -1.07075  -1.11368
H     1.20023  -2.06028  -0.72962
H    -0.81071  -2.20623   0.32009
H    -0.59769   0.54702   1.35478
H    -3.85237   0.86255   0.97052
H    -2.76529   1.17538   2.34687
H    -4.09190  -0.04027   2.48376
H    -2.21781   0.16373  -1.20953
H    -2.14231   2.32903  -0.01685
H    -0.38041   2.45594  -0.22884
H    -1.46266   2.77022  -1.59776
H    -0.37067  -0.78242  -2.36609
H     1.78303   0.39589  -2.70677
H     0.56962   1.59483  -3.20113
H     1.31872   1.70889  -1.60163
