45
Generated by autodE on: 2022-06-23. E = -1255.327632 Ha
C     3.22778   2.95254  -1.36494
O     2.37949   1.80172  -1.20099
C     2.05460   1.46443   0.03902
O     2.40839   2.06199   1.03081
C     1.15261   0.21055   0.07583
C     1.94672  -0.99314  -0.40271
C     2.46574  -1.91236   0.51683
C     3.21174  -3.00749   0.06990
C     3.44811  -3.18925  -1.29459
C     2.93460  -2.26856  -2.21437
C     2.18975  -1.17417  -1.77263
O     0.77350   0.00604   1.44923
C    -0.42036   0.69599   1.75116
C    -0.17127   1.71416   2.79168
N     0.01712   2.52414   3.59831
C    -1.42374  -0.26412   2.25777
N    -2.21269  -1.02302   2.63560
C    -0.89475   1.36508   0.37809
C    -0.18580   0.46840  -0.64714
C    -0.95639  -0.82740  -0.93958
C    -2.43920  -0.57813  -1.04327
C    -3.34740  -1.52601  -1.71173
N    -2.78905  -2.66573  -2.19105
O    -4.56966  -1.31862  -1.84220
C    -2.99737   0.51566  -0.45819
N    -2.30657   1.49195   0.19759
C    -2.99384   2.51862   0.96743
H     4.18990   2.78787  -0.86003
H     3.37592   3.06409  -2.44460
H     2.73867   3.84468  -0.94952
H     2.28369  -1.77520   1.58223
H     3.60959  -3.72019   0.79598
H     4.03070  -4.04546  -1.64235
H     3.11257  -2.40319  -3.28370
H     1.79540  -0.46095  -2.49717
H    -0.44962   2.37017   0.36610
H    -0.03214   1.03850  -1.57089
H    -0.56528  -1.24705  -1.87696
H    -0.74037  -1.57996  -0.16047
H    -3.39659  -3.35564  -2.61923
H    -1.81771  -2.90710  -2.04206
H    -4.07628   0.66941  -0.51476
H    -3.07493   2.24673   2.03464
H    -2.44595   3.46972   0.89294
H    -4.00614   2.65994   0.56724
