25
Generated by autodE on: 2022-07-27. E = -797.523710 Ha
C     0.37132   3.38935  -1.27445
O    -0.09025   2.06688  -0.92801
C     0.81475   1.21398  -0.47848
O     2.00452   1.41131  -0.39633
C     0.16408  -0.09682  -0.10488
O    -0.81782  -0.13398   0.72634
C    -1.40690   0.79787   1.52903
C    -0.86128   2.06636   1.76288
N    -0.41042   3.12144   1.99410
C    -2.53505   0.32962   2.22000
N    -3.48283  -0.04017   2.79742
C     0.59161  -1.34640  -0.67936
C    -0.00106  -2.56085  -0.25420
C     0.39566  -3.76413  -0.82112
C     1.38519  -3.78367  -1.81493
C     1.97756  -2.58988  -2.24106
C     1.58956  -1.37600  -1.68293
H     1.10038   3.32576  -2.09365
H    -0.52033   3.94056  -1.59050
H     0.82882   3.86403  -0.39622
H    -0.76617  -2.54387   0.52251
H    -0.06316  -4.69702  -0.48779
H     1.69493  -4.73358  -2.25603
H     2.74695  -2.60557  -3.01537
H     2.05910  -0.45354  -2.02329
