25
Generated by autodE on: 2022-06-23. E = -797.523816 Ha
C     3.61003   0.46128  -0.14197
O     2.23650   0.28591   0.26488
C     1.38253  -0.11308  -0.66242
O     1.65195  -0.41121  -1.80245
C    -0.01489  -0.19239  -0.09515
O    -0.56521   0.83401   0.45174
C    -0.20790   2.14485   0.56916
C     0.87160   2.71310  -0.11835
N     1.75221   3.21701  -0.70201
C    -1.09617   2.91543   1.33502
N    -1.82070   3.57209   1.97711
C    -0.77756  -1.41372  -0.12639
C    -0.20024  -2.61224  -0.60973
C    -0.94288  -3.78864  -0.61478
C    -2.26040  -3.79263  -0.14384
C    -2.84100  -2.60976   0.33664
C    -2.11249  -1.42826   0.34736
H     4.14030   0.81165   0.74953
H     4.02039  -0.49716  -0.48771
H     3.66588   1.20862  -0.94476
H     0.82548  -2.62210  -0.97790
H    -0.49097  -4.70974  -0.98751
H    -2.83921  -4.71875  -0.15160
H    -3.87026  -2.61458   0.70060
H    -2.56355  -0.50635   0.71536
