45
Generated by autodE on: 2022-06-23. E = -1255.255958 Ha. Imaginary frequency = -193.8 cm-1
C     2.77762   3.51078  -0.78401
O     1.98857   2.30369  -0.78925
C     2.00464   1.58627   0.31647
O     2.63710   1.85454   1.31485
C     1.19132   0.29983   0.27947
C     1.80027  -0.87893  -0.33238
C     1.37787  -2.17006   0.04886
C     1.92132  -3.29447  -0.56632
C     2.88259  -3.15146  -1.57365
C     3.30084  -1.87394  -1.96255
C     2.76682  -0.74234  -1.35019
O     0.43661   0.05270   1.32373
C    -0.32387   0.95649   2.04434
C    -0.15211   2.34126   1.99611
N    -0.03596   3.50879   1.95321
C    -1.32443   0.35304   2.81473
N    -2.17107  -0.15072   3.45030
C    -1.24227   1.56767  -0.82403
C    -0.39873   0.69201  -1.46748
C    -0.89169  -0.67359  -1.86380
C    -2.05662  -1.09240  -0.99540
C    -2.48050  -2.50783  -0.84981
N    -1.69754  -3.43369  -1.44862
O    -3.50097  -2.83462  -0.22170
C    -2.78775  -0.15722  -0.34603
N    -2.47175   1.19122  -0.36260
C    -3.25836   2.10536   0.45718
H     3.83411   3.27039  -0.60337
H     2.64514   3.95494  -1.77608
H     2.40604   4.18809  -0.00270
H     0.61476  -2.28074   0.81910
H     1.58476  -4.28868  -0.26555
H     3.30270  -4.03527  -2.05865
H     4.04770  -1.75797  -2.75059
H     3.09074   0.24795  -1.67253
H    -0.97685   2.61450  -0.67528
H     0.44858   1.11279  -2.00307
H    -1.19057  -0.66609  -2.93165
H    -0.06165  -1.39558  -1.81295
H    -0.80430  -3.20342  -1.86637
H    -1.92412  -4.41359  -1.31239
H    -3.66003  -0.43098   0.24714
H    -3.06011   1.94396   1.52870
H    -2.99986   3.13909   0.19875
H    -4.32768   1.94307   0.26763
