23
Generated by autodE on: 2022-06-16. E = -476.058011 Ha. Imaginary frequency = -419.1 cm-1
C     2.81999  -0.29786   0.08980
C     1.66857   0.68658   0.13789
O     1.72419   1.66756   0.88268
N     0.60342   0.52797  -0.71936
N     0.34005  -0.67300  -1.19698
N     0.11245  -1.62158  -0.32564
C    -1.42277  -0.74127   0.81772
C    -2.61118  -1.45936   0.22736
C    -1.20236   0.62297   0.59400
C    -2.06308   1.42087  -0.34006
H     2.75185  -0.96709   0.96120
H     3.75534   0.27272   0.17850
H     2.83509  -0.91003  -0.82008
H    -0.20213  -0.65245  -2.07046
H    -0.33936  -2.39391  -0.83425
H    -1.01964  -1.15542   1.74457
H    -3.55153  -1.11828   0.69707
H    -2.70860  -1.27085  -0.85374
H    -2.54276  -2.54690   0.37995
H    -0.62393   1.17625   1.33457
H    -3.09395   1.51022   0.05001
H    -2.14355   0.93689  -1.32797
H    -1.66492   2.43467  -0.48737
