20
Generated by autodE on: 2022-06-22. E = -457.715351 Ha
C    -2.89933   1.23179  -0.41752
N    -1.79711   0.34498  -0.08298
C    -2.05768  -1.00186   0.19921
C    -1.08274  -1.89849   0.41720
C     0.38414  -1.54702   0.37900
C     0.56950  -0.07733   0.03843
C     1.91182   0.51521  -0.07544
N     2.95335  -0.33050   0.12774
O     2.11508   1.71777  -0.34049
C    -0.49731   0.74537  -0.16798
H    -3.68045   1.18511   0.35676
H    -2.53028   2.26330  -0.47835
H    -3.35526   0.96364  -1.38587
H    -3.11596  -1.26706   0.23179
H    -1.36542  -2.93011   0.63905
H     0.91018  -2.19279  -0.35346
H     0.85908  -1.79042   1.35175
H     3.89660   0.03438   0.05447
H     2.82814  -1.31273   0.33661
H    -0.33633   1.79627  -0.41353
