25
Generated by autodE on: 2022-06-22. E = -780.585059 Ha
C     5.30596  -0.30645  -0.04519
N     3.96064   0.20979   0.12281
C     2.89035  -0.55242  -0.14045
O     2.91674  -1.71985  -0.52927
C     1.58190   0.12374   0.07048
O     1.39306   1.33875   0.47255
C    -0.07951   1.58112   0.52616
O    -0.49251   2.66398   0.88109
C    -0.59092   0.34621   0.10360
C    -1.94258  -0.12845  -0.07282
C    -2.20070  -1.44212  -0.51783
C    -3.51315  -1.88343  -0.67991
C    -4.58935  -1.03228  -0.40414
C    -4.33928   0.27212   0.03712
C    -3.03187   0.72647   0.20331
O     0.47184  -0.50026  -0.15853
H     5.47102  -1.18722   0.59445
H     6.02043   0.47698   0.23115
H     5.48459  -0.60469  -1.09010
H     3.82726   1.16759   0.43574
H    -1.36773  -2.11284  -0.73504
H    -3.69704  -2.90368  -1.02505
H    -5.61573  -1.38316  -0.53208
H    -5.17197   0.94490   0.25566
H    -2.84417   1.74393   0.54830
