12
Generated by autodE on: 2022-06-18. E = -394.045778 Ha
C     2.67158   0.11208  -0.33554
O     1.53681  -0.62252   0.13501
C     0.34060  -0.03659  -0.02156
O     0.20964   1.07063  -0.54260
N    -0.63624  -0.86339   0.48101
N    -1.87426  -0.41747   0.40186
N    -2.40727   0.63374  -0.04224
H     2.59310   0.30096  -1.41650
H     3.54533  -0.51630  -0.12607
H     2.76174   1.07181   0.19472
H    -2.53473  -1.10133   0.79980
H    -1.64184   1.22500  -0.40840
