26
Generated by autodE on: 2022-06-18. E = -689.460851 Ha
C    -3.13682  -1.27642   0.24299
O    -1.75889  -1.64373   0.36588
C    -0.76194  -0.78975   0.13535
C    -0.81394   0.49413  -0.31940
O    -1.97862   1.11115  -0.67627
C    -2.43852   2.14131   0.20510
C     0.43220   1.26183  -0.53071
O     0.37123   2.39904  -0.99512
C     1.75066   0.64591  -0.19118
C     2.97739   1.48034  -0.38384
C     1.81503  -0.63407   0.25211
C     3.11545  -1.30020   0.58037
C     0.57084  -1.42574   0.43007
O     0.59748  -2.58375   0.82375
H    -3.70082  -2.17235   0.53194
H    -3.38203  -0.99861  -0.79003
H    -3.38581  -0.45061   0.92467
H    -3.37995   2.51697  -0.21716
H    -1.71360   2.96581   0.27190
H    -2.62695   1.73469   1.21266
H     3.54617   1.55939   0.55718
H     3.65343   1.01348  -1.11967
H     2.72208   2.48819  -0.73104
H     3.63953  -0.75630   1.38370
H     3.78764  -1.29552  -0.29325
H     2.96068  -2.33706   0.90112
