22
Generated by autodE on: 2022-10-07. E = -666.179247 Ha
C    -1.98246   3.05968   0.62185
O    -1.13544   1.92896   0.38240
C    -1.74844   0.74272   0.22175
O    -2.95942   0.60683   0.27175
C    -0.78673  -0.33516  -0.01622
N     0.50218  -0.03300  -0.04346
C     1.66698   0.05124  -0.10018
C     3.11140   0.14764  -0.13682
C     3.80485  -1.14674  -0.44271
O     3.65755   1.22142   0.05877
C    -1.08131  -1.76149  -0.23653
C    -2.51411  -2.21796  -0.23082
O    -0.15432  -2.55155  -0.42007
H    -2.55920   2.92280   1.54829
H    -2.67506   3.21058  -0.21907
H    -1.31276   3.92219   0.71838
H     3.12895  -2.00816  -0.34960
H     4.17858  -1.09636  -1.47950
H     4.66934  -1.25539   0.22916
H    -2.98878  -1.98895   0.73504
H    -3.09321  -1.68778  -1.00147
H    -2.53792  -3.29966  -0.41627
