39
Generated by autodE on: 2022-10-21. E = -1565.056030 Ha
C    -4.83433   1.13361   0.50496
O    -3.73469   0.21507   0.67616
C    -2.49983   0.67905   0.70871
O    -2.15796   1.83605   0.63717
C    -1.46016  -0.47312   0.80214
C    -1.98432  -1.57325   1.63836
N    -2.34892  -2.43143   2.30381
N    -0.16498  -0.03154   1.27264
C     0.71968   0.24461   0.12628
C     0.70085   1.75532  -0.19763
O     0.47506   2.23610  -1.28493
O     0.96498   2.46780   0.89612
C     0.88385   3.89712   0.77752
C     2.15660  -0.22038   0.37293
C     2.39219  -1.35590   1.15712
C     3.69299  -1.83216   1.33547
C     4.77094  -1.17890   0.72873
C     4.53919  -0.04963  -0.06141
C     3.23722   0.42542  -0.24200
C     0.04553  -0.54134  -0.98778
Cl    0.88025  -0.79415  -2.48030
C    -1.17687  -0.96333  -0.61996
O    -2.16404  -1.65595  -1.18053
C    -2.07528  -2.07747  -2.54818
H    -5.40037   1.16298   1.44570
H    -5.46196   0.73342  -0.30108
H    -4.46427   2.13316   0.24921
H    -0.23073   0.76346   1.90518
H     1.05164   4.29346   1.78520
H    -0.11054   4.18908   0.41147
H     1.65625   4.26688   0.08812
H     1.54888  -1.86211   1.62821
H     3.86562  -2.71789   1.95155
H     5.78874  -1.54977   0.87080
H     5.37400   0.46532  -0.54239
H     3.07148   1.29979  -0.87517
H    -3.02590  -2.57970  -2.76407
H    -1.95277  -1.21046  -3.21261
H    -1.24368  -2.78248  -2.68469
