31
Generated by autodE on: 2022-10-26. E = -913.417573 Ha
C    -4.96715  -1.09347   0.95606
O    -3.57007  -1.31536   0.71807
C    -2.82283  -0.23440   0.47579
O    -3.25731   0.91078   0.44722
C    -1.41900  -0.55509   0.24307
C    -0.95721  -1.88323   0.21983
N    -0.62559  -3.00274   0.19743
N    -0.64816   0.53137  -0.03308
C     0.63515   0.73263  -0.26265
C     1.01745   2.10796  -0.66907
O     2.16300   2.45577  -0.88124
O    -0.04110   2.92049  -0.76947
C     0.21493   4.28949  -1.11829
C     1.67380  -0.29095  -0.08790
C     1.76679  -1.00342   1.12200
C     2.77617  -1.94855   1.30367
C     3.69833  -2.19612   0.28239
C     3.61543  -1.48658  -0.92091
C     2.61557  -0.53253  -1.10507
H    -5.11072  -0.45402   1.83907
H    -5.40274  -2.08380   1.13129
H    -5.43702  -0.62164   0.08100
H    -1.23228   1.38181  -0.08523
H     0.86225   4.75995  -0.36452
H     0.69585   4.34544  -2.10511
H    -0.76379   4.78121  -1.14191
H     1.05606  -0.80591   1.92658
H     2.84270  -2.49321   2.24791
H     4.48517  -2.94041   0.42482
H     4.33451  -1.67753  -1.72052
H     2.55134   0.02139  -2.04247
