39
Generated by autodE on: 2022-10-21. E = -1564.947716 Ha. Imaginary frequency = -381.2 cm-1
C    -4.88717  -0.78839   1.16182
O    -3.47831  -1.06364   1.11235
C    -2.66142  -0.01604   1.12546
O    -3.01697   1.14590   1.23194
C    -1.24730  -0.39933   0.93934
C    -0.88040  -1.76901   0.99073
N    -0.65315  -2.91164   1.01359
N    -0.37542   0.64028   1.05379
C     0.85280   0.70493   0.51973
C     1.37122   2.07577   0.23924
O     2.51702   2.30778  -0.08684
O     0.41536   3.00266   0.33346
C     0.78139   4.35373   0.01126
C     1.83036  -0.39312   0.68950
C     1.88603  -1.06551   1.92344
C     2.82596  -2.07477   2.13740
C     3.72667  -2.41910   1.12686
C     3.68897  -1.74112  -0.09733
C     2.75364  -0.73107  -0.31518
C    -0.06822   0.25012  -1.63885
Cl    0.87729   1.10520  -2.75524
C    -1.10852  -0.39630  -1.41278
O    -2.15820  -1.14900  -1.62364
C    -2.20764  -1.76032  -2.93479
H    -5.13995  -0.24880   2.08537
H    -5.38346  -1.76497   1.14254
H    -5.18627  -0.19058   0.28892
H    -0.87665   1.53598   1.08925
H     1.59053   4.69871   0.67020
H    -0.12160   4.95435   0.16609
H     1.10594   4.41148  -1.03745
H     1.19538  -0.79126   2.72262
H     2.85393  -2.59050   3.09974
H     4.46092  -3.21085   1.29222
H     4.39247  -2.00338  -0.89062
H     2.72959  -0.21297  -1.27252
H    -3.12698  -2.35739  -2.95688
H    -2.23625  -0.98094  -3.71055
H    -1.32687  -2.40432  -3.07547
