10
Generated by autodE on: 2022-05-26. E = -305.347606 Ha
C     2.60263   0.36322  -0.08218
C     1.42107   0.10509  -0.00978
C     0.02211  -0.26455   0.10018
O    -0.35844  -1.34672   0.49870
O    -0.78064   0.72595  -0.28921
C    -2.19444   0.46799  -0.22198
H     3.65364   0.59729  -0.14758
H    -2.49328   0.24987   0.81322
H    -2.68196   1.38322  -0.57561
H    -2.45835  -0.38136  -0.86808
