22
Generated by autodE on: 2022-07-26. E = -703.244669 Ha
C     3.42550   1.09000  -1.73617
O     3.01959   0.35684  -0.57276
C     1.71968   0.40893  -0.25998
O     0.88920   1.04698  -0.91078
N     1.50939  -0.28310   0.89795
O     0.19881  -0.25127   1.28970
C    -0.85704  -0.23389   0.57338
C    -2.13509  -0.18499   1.36975
C    -2.02955   0.04216   2.84276
O    -3.17964  -0.33307   0.76049
C    -0.88403  -0.54598  -0.91277
C    -1.71139   0.29787  -1.82315
O    -0.32222  -1.57853  -1.22901
H     4.49427   0.88177  -1.86294
H     2.86545   0.75437  -2.62113
H     3.26693   2.16850  -1.58944
H    -1.40202  -0.73952   3.29996
H    -1.53568   1.00748   3.03873
H    -3.03386   0.03181   3.28321
H    -2.71976  -0.14423  -1.87267
H    -1.26913   0.27979  -2.82846
H    -1.80070   1.32689  -1.45262
