42
Generated by autodE on: 2022-10-23. E = -1028.841471 Ha
C     2.76373  -3.28171  -1.36724
N     2.61143  -2.09391  -0.55966
C     1.55461  -1.26055  -0.70044
O     0.63251  -1.52831  -1.52290
C     1.53189  -0.06927   0.12975
C     2.50264   0.25925   1.14334
O     3.58408  -0.36496   1.29835
N     2.19286   1.29614   1.98571
C     3.04190   1.61450   3.11502
N     0.48482   0.84766  -0.17167
C     0.85119   2.12713  -0.79789
C    -0.75061   0.42720  -0.06060
C    -1.02269  -0.64761   0.97997
O    -1.15770  -0.26696   2.14833
N    -1.20687  -1.89169   0.53500
C    -1.44398  -2.99262   1.44983
C    -1.89966   1.00370  -0.76118
C    -3.11507   1.19449  -0.07425
C    -4.22054   1.71202  -0.74597
C    -4.13573   2.01635  -2.10931
C    -2.93978   1.80114  -2.80289
C    -1.82309   1.30109  -2.13595
H     3.61864  -3.85932  -0.99194
H     1.86572  -3.91773  -1.31784
H     2.94573  -3.04946  -2.43157
H     3.34701  -1.77218   0.07186
H     1.21685   1.56567   2.05081
H     2.68692   2.54523   3.57712
H     4.08076   1.76243   2.78686
H     3.04352   0.82075   3.88390
H     0.02337   2.84183  -0.72738
H     1.12558   1.96179  -1.84843
H     1.72394   2.51681  -0.26224
H    -0.81102  -2.07450  -0.39443
H    -0.53335  -3.25557   2.01394
H    -1.77070  -3.87002   0.87791
H    -2.22873  -2.72234   2.16967
H    -3.17792   0.95763   0.98897
H    -5.15466   1.87552  -0.20458
H    -5.00701   2.41391  -2.63463
H    -2.87834   2.01825  -3.87135
H    -0.90161   1.10127  -2.68326
