18
Generated by autodE on: 2022-10-23. E = -514.386967 Ha
C     2.81291  -0.10395  -0.39039
O     1.63469  -0.38944  -1.16064
C     0.46574  -0.08561  -0.64393
C     0.04606   0.47191   0.52827
C     0.73109   0.92127   1.66515
N     1.25054   1.31424   2.63634
C    -1.51079   0.39804   0.40572
C    -1.90924  -1.08934   0.47823
C    -1.46845  -1.62358  -0.66505
C    -0.82086  -0.44492  -1.41868
O    -1.65786   0.64324  -1.00359
H     3.66458  -0.42093  -1.00294
H     2.79365  -0.67083   0.55187
H     2.87780   0.97445  -0.18404
H    -2.06998   1.11242   1.01794
H    -2.38611  -1.56864   1.33248
H    -1.47562  -2.65744  -1.00704
H    -0.71091  -0.51707  -2.50562
