60
Generated by autodE on: 2022-10-23. E = -1543.198795 Ha. Imaginary frequency = -267.1 cm-1
C    -3.18783  -0.41949  -3.33273
N    -2.63368  -0.76911  -2.03902
C    -2.54985   0.14891  -1.04874
O    -3.08473   1.26066  -1.15061
C    -1.85802  -0.25722   0.22853
C    -2.44253  -1.41668   0.96873
O    -2.02704  -1.84534   2.06256
N    -3.47603  -2.06556   0.37200
C    -4.00019  -3.29551   0.92763
C     0.35473  -1.25706  -0.42634
C     0.64059  -2.19459   0.75332
O     0.90086  -1.24188   1.79720
C     1.91497  -0.52013   1.09405
C     2.87560  -1.67761   0.75731
O     4.16704  -1.44223   0.67286
C     5.03022  -2.51622   0.26958
C     2.08061  -2.76843   0.54843
C     2.35467  -4.07686   0.12898
N     2.52152  -5.18298  -0.21337
C     1.19549  -0.17712  -0.21985
C    -0.29821   1.56372   0.22065
C    -0.43568   1.86772  -1.28201
O    -0.30947   1.04288  -2.18999
N    -0.68252   3.16413  -1.55519
C    -0.96245   3.59926  -2.90856
C     0.36159   2.69267   0.95207
C    -0.38179   3.63488   1.68917
C     0.24488   4.73048   2.28527
C     1.62423   4.91352   2.14977
C     2.36835   3.99998   1.39816
C     1.74265   2.90540   0.79789
N    -1.19160   0.76845   0.87811
C    -1.20921   0.83864   2.35472
H    -3.27925  -1.32874  -3.94046
H    -2.54243   0.30252  -3.86169
H    -4.18334   0.03065  -3.21495
H    -2.01256  -1.56982  -1.98834
H    -3.77116  -1.79630  -0.55886
H    -3.24142  -4.09627   0.94607
H    -4.35356  -3.14771   1.95954
H    -4.84464  -3.62679   0.31030
H    -0.00743  -1.60690  -1.38976
H    -0.11938  -2.92224   1.04561
H     2.34892   0.29141   1.68709
H     4.75427  -2.86566  -0.73623
H     6.04690  -2.10700   0.25987
H     4.96513  -3.34505   0.98999
H     1.66756   0.40917  -1.00145
H    -0.83265   3.81403  -0.79151
H    -1.89768   3.15065  -3.28318
H    -1.06176   4.69166  -2.91712
H    -0.14814   3.30863  -3.58853
H    -1.46220   3.51942   1.78373
H    -0.35165   5.44845   2.85288
H     2.11445   5.76975   2.61865
H     3.44447   4.13982   1.27248
H     2.33354   2.21486   0.19696
H    -1.41820  -0.15103   2.75370
H    -1.99447   1.53829   2.67213
H    -0.24192   1.18099   2.72812
