27
Generated by autodE on: 2022-07-26. E = -648.773185 Ha
C     4.25287  -0.80688  -1.22020
N     3.27616  -0.78714  -0.15124
C     2.10482  -0.11829  -0.27627
O     1.81392   0.49097  -1.32194
C     1.25985  -0.06463   0.93235
C     1.87353  -0.06614   2.30003
N    -0.05401   0.12361   0.84239
C    -0.97246  -0.07627  -0.13368
C    -0.68928  -0.88297  -1.34948
C    -2.27865   0.40576   0.24132
O    -2.53365   0.97384   1.31020
O    -3.23232   0.17017  -0.68836
C    -4.55522   0.60284  -0.36755
H     3.87194  -1.33084  -2.11285
H     4.52701   0.21546  -1.52449
H     5.15432  -1.32402  -0.86894
H     3.45652  -1.32743   0.68722
H     1.15245   0.30034   3.04686
H     2.17189  -1.08427   2.61185
H     2.77499   0.56469   2.34197
H    -0.50510   0.45584   1.70554
H    -0.16298  -0.32085  -2.13845
H    -1.62575  -1.28072  -1.75988
H    -0.02803  -1.72962  -1.08911
H    -5.17703   0.34944  -1.23491
H    -4.58258   1.68882  -0.19157
H    -4.93340   0.08557   0.52736
