27
Generated by autodE on: 2022-05-30. E = -648.781039 Ha
C    -4.55816   0.58580   1.06645
N    -3.54587  -0.03647   0.23782
C    -2.23231   0.20252   0.42975
O    -1.83028   0.96968   1.33125
C    -1.28008  -0.48063  -0.46971
C    -1.73166  -1.40262  -1.55480
N    -0.02632  -0.15536  -0.18115
C     1.21193  -0.43182  -0.63342
C     1.49850  -1.33484  -1.78764
C     2.23066   0.25086   0.13180
O     2.00312   1.00335   1.08600
O     3.49025  -0.00401  -0.28877
C     4.54411   0.64518   0.42410
H    -4.52399   1.68449   0.98719
H    -5.54605   0.24009   0.73869
H    -4.42538   0.32178   2.12790
H    -3.83998  -0.65762  -0.50640
H    -0.89861  -1.88108  -2.07492
H    -2.33429  -0.86285  -2.30624
H    -2.37117  -2.20231  -1.14360
H    -0.00669   0.50071   0.62253
H     0.99259  -0.99981  -2.70855
H     1.18018  -2.37360  -1.59434
H     2.57613  -1.34893  -1.98424
H     5.47788   0.32136  -0.05160
H     4.54215   0.35067   1.48445
H     4.44949   1.73958   0.35647
