20
Generated by autodE on: 2022-06-04. E = -614.917278 Ha
C     3.74346  -0.04527   0.64644
N     2.36657  -0.38869   0.35419
C     1.46579   0.55139  -0.00391
O     1.76902   1.75000  -0.11728
C     0.09089   0.09881  -0.25792
C    -0.56889  -1.04019  -0.00590
F    -0.12509  -2.17359   0.51568
C    -2.05301  -0.79530  -0.32283
C    -2.57473   0.18866   0.75253
C    -1.94832   1.33886   0.48938
C    -1.04664   1.03733  -0.72993
O    -1.88480   0.09488  -1.43792
H     3.81324   0.65615   1.49364
H     4.29036  -0.96099   0.90176
H     4.23090   0.42712  -0.22143
H     2.07119  -1.35476   0.44255
H    -2.65759  -1.67788  -0.55719
H    -3.26210  -0.07168   1.55608
H    -1.98334   2.28961   1.01986
H    -0.73902   1.87915  -1.35756
