32
Generated by autodE on: 2022-06-04. E = -785.177673 Ha
C     2.23399   3.03318   1.07643
O     1.79174   1.76046   0.60009
C     0.45889   1.53709   0.62607
O    -0.32103   2.40112   1.01874
C     0.13260   0.19709   0.15074
C     1.24624  -0.70766  -0.24152
C     2.14386  -1.20002   0.72144
C     3.19424  -2.04010   0.34843
C     3.36511  -2.39847  -0.99330
C     2.48168  -1.90878  -1.96007
C     1.43116  -1.06712  -1.58749
N    -1.15794  -0.21804   0.02162
C    -1.37270  -1.65345  -0.29563
C    -2.24996   0.56014   0.17801
C    -3.63231   0.18046  -0.00410
C    -4.60282   1.31525   0.26532
O    -4.06080  -0.92948  -0.35819
H     1.95183   3.17746   2.13008
H     3.32611   3.02853   0.97767
H     1.80430   3.84762   0.47425
H     2.00922  -0.92167   1.76876
H     3.88110  -2.41972   1.10860
H     4.18720  -3.05656  -1.28449
H     2.61254  -2.17958  -3.01043
H     0.74435  -0.68247  -2.34473
H    -1.57207  -1.76753  -1.36827
H    -0.48344  -2.22144  -0.01935
H    -2.24157  -2.00515   0.26183
H    -2.04681   1.59084   0.44246
H    -5.63232   0.95808   0.13106
H    -4.41440   2.15507  -0.42340
H    -4.47593   1.70259   1.28917
