32
Generated by autodE on: 2022-07-27. E = -785.182909 Ha
C     0.81976   2.99933  -1.85921
O     0.40126   1.65121  -1.62262
C     0.12268   1.32694  -0.35510
O     0.02410   2.15411   0.53423
C    -0.22421  -0.10668  -0.17601
C    -1.21803  -0.42922   0.85950
C    -1.03309  -1.52876   1.72187
C    -1.97112  -1.82253   2.71137
C    -3.10789  -1.02243   2.86431
C    -3.29707   0.07970   2.02287
C    -2.36187   0.37708   1.03298
N     0.30960  -1.05919  -0.95518
C    -0.40827  -2.33934  -1.15593
C     1.52671  -0.99382  -1.57842
C     2.61641  -0.22554  -1.08795
C     3.97023  -0.49821  -1.70766
O     2.52750   0.60773  -0.15695
H     0.00988   3.70639  -1.62710
H     1.70107   3.23715  -1.24652
H     1.07472   3.05471  -2.92408
H    -0.13790  -2.14567   1.62953
H    -1.80752  -2.67586   3.37352
H    -3.84125  -1.25275   3.64048
H    -4.18225   0.70977   2.13601
H    -2.52346   1.23418   0.37722
H    -0.30721  -2.60739  -2.21504
H    -1.46661  -2.22209  -0.90830
H     0.04315  -3.12941  -0.54349
H     1.69289  -1.75235  -2.33937
H     4.67464  -0.80427  -0.91709
H     3.94229  -1.27051  -2.48811
H     4.35946   0.43781  -2.14121
