52
Generated by autodE on: 2022-06-04. E = -1400.069068 Ha. Imaginary frequency = -274.8 cm-1
C     3.62096   2.39304   1.15034
N     2.65759   1.31641   1.23877
C     2.93098   0.10072   0.71324
O     4.08140  -0.20316   0.33853
C     1.82728  -0.86134   0.62290
C     2.16326  -2.36591   0.53213
C     1.17439  -3.07749  -0.38800
C     0.01557  -3.08425   0.27686
C     0.31555  -2.35714   1.58885
O     1.67047  -2.79851   1.83377
C     0.60544  -0.84522   1.29951
F     0.31789  -0.01593   2.32759
C    -0.93891   0.18532  -0.06773
C    -0.52717   1.64952  -0.05297
O    -0.07512   2.25611   0.89730
O    -0.96483   2.25033  -1.16369
C    -0.71998   3.65983  -1.26631
C    -2.27210   0.04282   0.62290
C    -2.67986  -1.15019   1.24930
C    -3.89861  -1.24109   1.92028
C    -4.74897  -0.13461   1.99545
C    -4.36521   1.05876   1.38152
C    -3.14743   1.14622   0.70407
N    -0.67632  -0.50730  -1.23709
C    -1.71861  -1.39251  -1.80001
C     0.50172  -0.51929  -1.87955
C     1.61699   0.41326  -1.86269
C     2.82521  -0.07175  -2.63450
O     1.60009   1.55119  -1.37758
H     3.81998   2.67607   0.10224
H     4.57711   2.10644   1.61206
H     3.22431   3.26928   1.67935
H     1.68041   1.57808   1.35971
H     3.22869  -2.57439   0.40353
H     1.39646  -3.43196  -1.39361
H    -0.95424  -3.46232  -0.03676
H    -0.33508  -2.53049   2.45157
H     0.35886   3.85916  -1.21449
H    -1.11777   3.96437  -2.24113
H    -1.23626   4.19856  -0.45878
H    -2.04899  -2.03140   1.21232
H    -4.17813  -2.18494   2.39357
H    -5.70028  -0.20291   2.52779
H    -5.01794   1.93373   1.42169
H    -2.89572   2.08892   0.21991
H    -2.43936  -0.75757  -2.33572
H    -2.24507  -1.94209  -1.02059
H    -1.25677  -2.09738  -2.49754
H     0.58190  -1.31103  -2.62210
H     3.71263   0.48598  -2.31162
H     2.99424  -1.15011  -2.50540
H     2.65927   0.11795  -3.70921
