48
Generated by autodE on: 2022-06-01. E = -1280.645825 Ha
C    -3.32994  -0.15799   2.29006
C    -2.11485  -0.93963   1.86792
O    -1.68185  -1.82228   2.58829
C    -1.45591  -0.67876   0.48337
C    -2.43155   0.16425  -0.43005
C    -1.93277   0.26502  -1.85943
C    -0.92046   1.13761  -1.82746
C    -0.77354   1.50880  -0.36446
O    -2.13961   1.48389   0.06327
C    -0.18574   0.27243   0.47350
C     0.17875   0.84030   1.85489
F    -0.83030   1.55503   2.39272
F     1.22837   1.68808   1.78551
F     0.49564  -0.08465   2.77642
C     0.97963  -0.58067  -0.21398
C     1.98929  -1.16962   0.80172
C     1.78919   0.22819  -1.24989
C     2.65358   1.25926  -0.84695
C     3.40508   1.98056  -1.77931
C     3.32618   1.67415  -3.14014
C     2.48212   0.64068  -3.55444
C     1.72326  -0.06850  -2.62025
N     0.22221  -1.66288  -0.88568
C     0.98601  -2.83298  -1.28813
C    -0.93631  -2.01116  -0.07372
C    -1.99170  -2.83603  -0.80323
H    -3.26886   0.89884   2.01237
H    -4.20685  -0.58751   1.77615
H    -3.47241  -0.27595   3.37186
H    -3.48877  -0.08518  -0.30777
H    -2.33150  -0.28788  -2.70812
H    -0.29536   1.49401  -2.63966
H    -0.29581   2.46636  -0.13424
H     1.49689  -1.85088   1.50733
H     2.51098  -0.39655   1.37648
H     2.75501  -1.73171   0.25192
H     2.74514   1.52004   0.20500
H     4.05966   2.78473  -1.43424
H     3.91697   2.23372  -3.86934
H     2.40449   0.38643  -4.61449
H     1.04244  -0.84444  -2.96232
H     0.42101  -3.40981  -2.03565
H     1.93603  -2.54118  -1.75300
H     1.21426  -3.51463  -0.44327
H    -0.61225  -2.60499   0.80208
H    -2.31635  -2.36103  -1.73978
H    -2.87225  -2.96701  -0.15552
H    -1.61119  -3.83911  -1.04420
