21
Generated by autodE on: 2022-06-01. E = -797.432685 Ha
C     2.64141   1.91079   0.68445
C     1.94492   0.59796   0.47185
O     2.40721  -0.46882   0.85512
C     0.64497   0.65402  -0.23483
C    -0.34200  -0.25793  -0.28229
C    -0.44601  -1.60888   0.35019
F     0.38159  -2.50408  -0.21560
F    -0.17244  -1.58617   1.66625
F    -1.69748  -2.09343   0.22117
C    -1.50166   0.43365  -1.03850
C    -2.03980   1.54008  -0.10070
C    -1.06692   2.45362  -0.05976
C     0.04759   1.88744  -0.96879
O    -0.73858   1.21667  -1.96661
H     1.95258   2.63867   1.14420
H     2.94013   2.32924  -0.29143
H     3.52878   1.77299   1.31510
H    -2.22856  -0.21916  -1.53076
H    -2.99028   1.49831   0.42914
H    -0.99549   3.37825   0.51124
H     0.75937   2.59470  -1.40428
