27
Generated by autodE on: 2022-06-01. E = -483.120666 Ha
C    -4.13671  -0.43604  -0.00668
C    -2.82536  -0.36252  -0.71222
N    -1.67317  -0.03725  -0.11005
C    -1.75002   0.20374   1.34546
C    -0.50111   0.23459  -0.78355
C    -0.62535   0.37525  -2.26633
C     0.79873   0.11781  -0.14906
C     1.91153   0.85746  -0.64131
C     3.17555   0.75495  -0.06751
C     3.40362  -0.09032   1.02803
C     2.33299  -0.84557   1.51952
C     1.06651  -0.75757   0.94163
H    -4.90078  -0.79420  -0.71116
H    -4.13423  -1.12510   0.85750
H    -4.48294   0.54354   0.37861
H    -2.78113  -0.55753  -1.78020
H    -2.57659   0.89780   1.54186
H    -1.94019  -0.73189   1.88697
H    -0.82333   0.65722   1.70057
H    -1.44671   1.06537  -2.54152
H     0.30555   0.74463  -2.71301
H    -0.85931  -0.58773  -2.76924
H     1.76810   1.54387  -1.47828
H     3.99557   1.35331  -0.47458
H     4.39573  -0.16634   1.47864
H     2.48893  -1.53473   2.35445
H     0.27697  -1.40746   1.32061
