27
Generated by autodE on: 2022-07-27. E = -483.120653 Ha
C    -2.50447  -3.19365   0.92845
C    -1.57134  -2.10186   1.32839
N    -1.09301  -1.18262   0.47800
C    -1.50708  -1.33134  -0.93206
C    -0.39326  -0.06125   0.86866
C    -0.37068   0.20498   2.33914
C     0.48034   0.66356  -0.03577
C     1.14473   0.06393  -1.14325
C     1.98435   0.79761  -1.98150
C     2.22855   2.15556  -1.74836
C     1.61253   2.76371  -0.64504
C     0.76325   2.04121   0.18806
H    -2.11441  -3.83181   0.11447
H    -3.49161  -2.82417   0.58670
H    -2.68599  -3.84273   1.79686
H    -1.26511  -2.01417   2.36700
H    -2.59313  -1.48140  -0.96408
H    -1.01897  -2.19989  -1.39276
H    -1.26326  -0.42739  -1.49249
H     0.21726  -0.55309   2.90000
H     0.07868   1.17982   2.56281
H    -1.38889   0.17708   2.77445
H     1.03117  -1.00440  -1.33029
H     2.47382   0.29086  -2.81813
H     2.89158   2.72559  -2.40303
H     1.78847   3.82300  -0.43744
H     0.28287   2.55540   1.02299
