48
Generated by autodE on: 2022-06-01. E = -1280.563751 Ha. Imaginary frequency = -43.5 cm-1
C    -3.19140  -1.96828   2.01867
C    -2.04287  -0.98412   2.04396
O    -1.32191  -0.90490   3.04381
C    -1.92026  -0.08439   0.88777
C    -2.88640  -0.13082  -0.34234
C    -2.05457  -0.47576  -1.57733
C    -1.29286   0.60289  -1.79148
C    -1.70697   1.59537  -0.69545
O    -3.10498   1.28009  -0.55032
C    -1.18271   1.04188   0.65727
C    -0.42710   1.97522   1.52936
F    -1.19713   3.06426   1.80425
F     0.67655   2.47140   0.91210
F    -0.02706   1.49419   2.70988
C     1.44015  -0.85874  -0.19600
C     1.73746  -0.57264   1.24413
C     2.38328  -0.32957  -1.20949
C     3.28345  -1.16435  -1.90371
C     4.20211  -0.63464  -2.81248
C     4.25562   0.74389  -3.04036
C     3.38411   1.58834  -2.34402
C     2.46237   1.05893  -1.43924
N     0.60111  -1.88057  -0.48978
C     0.48835  -2.33981  -1.88732
C    -0.17614  -2.51065   0.42703
C    -0.97190  -3.73543   0.11116
H    -4.13584  -1.42253   2.18952
H    -3.28594  -2.48708   1.05569
H    -3.05799  -2.70020   2.82589
H    -3.82622  -0.66850  -0.19435
H    -2.07805  -1.43122  -2.09255
H    -0.49504   0.76710  -2.51392
H    -1.53576   2.66041  -0.88293
H     0.85039  -0.50930   1.88017
H     2.30034   0.36355   1.33838
H     2.37164  -1.38609   1.65872
H     3.27594  -2.23961  -1.71795
H     4.88834  -1.30413  -3.33724
H     4.97433   1.15767  -3.75166
H     3.41589   2.66769  -2.51239
H     1.77794   1.72116  -0.90987
H     0.68264  -1.51317  -2.57406
H     1.21243  -3.14532  -2.06495
H    -0.51263  -2.73104  -2.07100
H     0.07030  -2.31004   1.46329
H    -1.79885  -3.56017  -0.59837
H    -1.41712  -4.11234   1.04159
H    -0.35738  -4.55351  -0.31127
