38
Generated by autodE on: 2022-10-13. E = -843.754257 Ha
C    -2.09320  -2.21840  -2.11612
N    -1.67565  -1.05461  -1.36456
C    -0.83141  -1.17307  -0.29182
O    -0.22557  -2.25082  -0.10551
C    -0.67179  -0.00039   0.55437
C    -1.61284   1.12939   0.56963
C    -3.01495   0.94931   0.53030
C    -3.88390   2.04071   0.54724
C    -3.38434   3.34577   0.62709
C    -2.00059   3.54431   0.68169
C    -1.12921   2.45527   0.64407
N     0.35077  -0.00159   1.49187
C     0.07024   0.57002   2.82957
C     1.57173  -0.51102   1.33388
C     2.31490  -0.78002   0.12704
C     3.58523  -1.38552   0.29728
C     4.43166  -1.61045  -0.78435
C     4.04459  -1.22142  -2.07263
C     2.79845  -0.61188  -2.25956
C     1.93248  -0.41244  -1.18632
H    -2.67007  -1.89020  -2.99074
H    -2.72310  -2.90514  -1.52176
H    -1.21974  -2.78763  -2.46653
H    -2.23064  -0.21215  -1.45265
H    -3.42655  -0.06151   0.50759
H    -4.96287   1.86886   0.51795
H    -4.06682   4.19851   0.64821
H    -1.59495   4.55765   0.73928
H    -0.05095   2.62871   0.65821
H     0.39633   1.61664   2.87901
H    -1.00257   0.50746   3.03865
H     0.62478  -0.00928   3.57817
H     2.11050  -0.67673   2.26839
H     3.90157  -1.67341   1.30304
H     5.40156  -2.08690  -0.62287
H     4.70587  -1.39657  -2.92429
H     2.48722  -0.30387  -3.26076
H     0.96605   0.05362  -1.36692
