13
Generated by autodE on: 2022-10-07. E = -245.298491 Ha
C     1.90630  -0.43269  -0.28460
N     0.78248   0.48633  -0.23354
C    -0.46410   0.11569   0.06782
N    -1.44674   1.02134   0.07369
N    -0.73369  -1.15789   0.36199
H     2.80254   0.13483  -0.55892
H     1.75008  -1.22028  -1.03907
H     2.08348  -0.90740   0.69378
H     0.93926   1.46422  -0.45561
H    -1.25484   1.99221  -0.14818
H    -2.39504   0.75071   0.31001
H    -1.68092  -1.43809   0.59242
H    -0.00350  -1.85949   0.37977
