51
Generated by autodE on: 2022-10-07. E = -1089.014881 Ha. Imaginary frequency = -518.8 cm-1
C    -1.70603  -0.92139  -3.50837
N    -1.63488  -0.02772  -2.36809
C    -1.16808  -0.44524  -1.18508
O    -0.89387  -1.62761  -0.95401
C    -1.05949   0.64297  -0.13091
C    -2.20125   1.57157  -0.04188
C    -3.50393   1.04736   0.05023
C    -4.60159   1.90548   0.09488
C    -4.41337   3.28990   0.02084
C    -3.12243   3.81562  -0.09592
C    -2.01819   2.96450  -0.12372
N    -0.70305  -1.60504   1.93251
C     0.66466  -1.66510   1.66685
N     1.00157  -2.78060   0.88773
N     1.40676  -1.42562   2.85229
C     2.84177  -1.65000   2.85732
C     1.17640  -0.04454   0.58008
C     1.83023  -0.25134  -0.74901
C     2.92787  -1.12862  -0.85436
C     3.58925  -1.32268  -2.06901
C     3.18727  -0.63139  -3.21438
C     2.14126   0.28993  -3.11471
C     1.48271   0.48458  -1.89901
N     0.00791   0.76050   0.63340
C    -0.01476   1.66139   1.80476
H    -0.69615  -1.22279  -3.83342
H    -2.20921  -0.40300  -4.33293
H    -2.27160  -1.82847  -3.25143
H    -1.79906   0.96539  -2.50830
H    -3.64935  -0.03379   0.10085
H    -5.60853   1.49232   0.18323
H    -5.27542   3.96022   0.04631
H    -2.97361   4.89494  -0.16993
H    -1.01302   3.37600  -0.22781
H    -1.00038  -0.77978   2.44475
H    -1.27491  -1.77192   1.10695
H     0.53593  -2.74580  -0.02015
H     2.00019  -2.89859   0.75553
H     0.94774  -1.90459   3.62550
H     3.35105  -0.94476   2.18332
H     3.22003  -1.46389   3.87197
H     3.14521  -2.67544   2.57195
H     1.89456   0.36404   1.29151
H     3.30485  -1.64733   0.02534
H     4.43184  -2.01686  -2.11335
H     3.69802  -0.79025  -4.16674
H     1.83888   0.87651  -3.98547
H     0.70893   1.24942  -1.85660
H     0.55744   2.57040   1.57714
H    -1.04070   1.91644   2.08131
H     0.47483   1.12960   2.62985
