25
Generated by autodE on: 2022-06-17. E = -851.735884 Ha
C     2.99104   0.20583  -1.19168
C     1.69930   0.47372  -0.50347
O     1.09603   1.52114  -0.53525
C     1.01872  -0.69901   0.30927
C     1.86705  -1.88544   0.40065
N     2.52576  -2.83634   0.47153
N     0.74197  -0.16074   1.64499
C    -0.48723   0.19373   1.68344
C    -1.02907   0.84777   2.84423
N    -1.48042   1.36206   3.78161
C    -1.33685  -0.12904   0.47708
C    -1.86325   1.10661  -0.24246
O    -2.25061   2.08108   0.37706
C    -1.94770   1.03832  -1.71689
C    -1.31210   0.09822  -2.44267
C    -0.42242  -0.91098  -1.83598
O     0.29494  -1.62115  -2.52332
C    -0.38473  -1.03149  -0.32373
H     3.31675   1.09821  -1.73963
H     2.86522  -0.64570  -1.88003
H     3.74999  -0.09073  -0.44928
H    -2.23968  -0.68219   0.78821
H    -2.52700   1.83314  -2.19377
H    -1.36487   0.08808  -3.53417
H    -0.60668  -2.08292  -0.09584
