13
Generated by autodE on: 2022-06-17. E = -470.016366 Ha
C    -3.04702  -0.19036  -0.06194
C    -1.60370  -0.60593  -0.02977
O    -1.22908  -1.76991  -0.01562
C    -0.60863   0.49511  -0.01528
C    -0.94884   1.86831  -0.02951
N    -1.26053   2.99188  -0.04197
N     0.66034   0.14112   0.01247
C     1.72236  -0.35642   0.03669
C     2.96755  -0.89812   0.06606
N     4.04103  -1.36268   0.09132
H    -3.24648   0.42226  -0.95571
H    -3.28309   0.42970   0.81771
H    -3.68409  -1.08342  -0.07108
