12
Generated by autodE on: 2022-06-17. E = -381.636094 Ha
O     1.66711   2.06927  -0.22218
C     0.90025   1.11740  -0.11943
C     1.41022  -0.27045  -0.00510
C     0.56979  -1.31393   0.10622
C    -0.90025  -1.11740   0.11941
O    -1.66711  -2.06927   0.22220
C    -1.41022   0.27045   0.00510
C    -0.56979   1.31393  -0.10623
H     2.49604  -0.39071  -0.01798
H     0.92224  -2.34456   0.19105
H    -2.49604   0.39071   0.01798
H    -0.92224   2.34456  -0.19104
