25
Generated by autodE on: 2022-06-17. E = -851.653348 Ha. Imaginary frequency = -335.5 cm-1
C     3.05239   0.06293  -1.37995
C     1.97493   0.60096  -0.49271
O     1.40496   1.66399  -0.65508
C     1.56894  -0.27687   0.66394
C     2.27999  -1.46023   1.00296
N     2.86477  -2.43639   1.24764
N     0.70923   0.23330   1.52477
C    -0.46197   0.47519   1.70914
C    -1.24939   1.23580   2.57455
N    -1.99255   1.83372   3.24235
C    -1.53143  -0.75955   0.25956
C    -2.35016   0.35418  -0.30658
O    -3.32775   0.78793   0.29113
C    -1.92718   0.91452  -1.60906
C    -0.94943   0.34038  -2.33145
C    -0.24927  -0.88312  -1.86534
O     0.53211  -1.47506  -2.61091
C    -0.54920  -1.36381  -0.50862
H     2.80501  -0.95818  -1.70745
H     3.17562   0.72177  -2.24793
H     3.99541   0.00809  -0.81090
H    -1.98379  -1.29572   1.09780
H    -2.46887   1.79800  -1.95478
H    -0.64057   0.72813  -3.30486
H    -0.11595  -2.32333  -0.22269
