43
Generated by autodE on: 2022-06-02. E = -813.799784 Ha
C     2.80711   3.57034   1.16801
C     1.60153   3.40878   0.23148
C     1.38230   2.01117  -0.14878
C     0.87965   0.90652  -0.14635
C    -0.04803  -0.17492   0.20883
C    -1.13814  -0.37544  -0.86419
C    -2.07578  -1.40842  -0.70014
C    -3.09497  -1.60464  -1.63290
C    -3.19402  -0.77219  -2.75419
C    -2.26440   0.25464  -2.92808
C    -1.24512   0.45156  -1.98836
C     0.70548  -1.50318   0.39119
C     1.60995  -1.90386  -0.60554
C     2.29157  -3.11746  -0.51165
C     2.07909  -3.95804   0.58759
C     1.18163  -3.56918   1.58377
C     0.49896  -2.35001   1.48741
C    -0.71016   0.33532   1.53425
C    -1.26571   1.77536   1.50300
C    -0.33790   2.93993   1.95657
C     0.26662   3.87085   0.88265
H     2.66928   2.99296   2.09536
H     3.73235   3.21998   0.68556
H     2.93833   4.63013   1.43652
H     1.77833   4.03096  -0.66169
H    -2.00524  -2.07190   0.16424
H    -3.81421  -2.41408  -1.48569
H    -3.99007  -0.92640  -3.48648
H    -2.32812   0.91140  -3.79922
H    -0.52521   1.25832  -2.13207
H     1.77786  -1.25178  -1.46640
H     2.99189  -3.40888  -1.29829
H     2.61165  -4.90885   0.66539
H     1.00715  -4.21599   2.44713
H    -0.19910  -2.07240   2.27701
H    -1.52550  -0.35866   1.78597
H     0.03614   0.25261   2.33985
H    -1.68100   1.99428   0.50471
H    -2.13237   1.77754   2.18243
H    -0.93965   3.58725   2.61415
H     0.46439   2.54199   2.60145
H     0.44936   4.86290   1.32917
H    -0.47832   4.02145   0.08353
