11
Generated by autodE on: 2022-06-02. E = -264.482279 Ha
C     1.28833   1.03412  -0.16214
N     1.17302  -0.27722   0.43482
O     0.11798  -0.98410   0.10253
N    -1.06459  -0.62542  -0.34135
C    -1.49816   0.71545  -0.01958
H     1.01133   0.99369  -1.23004
H     2.35303   1.29027  -0.07770
H     0.71465   1.85014   0.30653
H    -2.59099   0.69199  -0.12743
H    -1.12202   1.53047  -0.65916
H    -1.24516   0.95976   1.02684
