18
Generated by autodE on: 2022-06-17. E = -235.968069 Ha
C    -1.53923   0.28780   1.19702
C    -0.65692   0.16282  -0.02174
C    -1.41797   0.44615  -1.29461
C     0.65690  -0.16291   0.02171
C     1.53917  -0.28823  -1.19704
C     1.41806  -0.44567   1.29465
H    -1.96717   1.30463   1.25875
H    -1.03093   0.07990   2.14608
H    -2.40110  -0.39896   1.11862
H    -0.81813   0.36235  -2.20874
H    -1.84890   1.46317  -1.26563
H    -2.27602  -0.24330  -1.38987
H     1.96987  -1.30402  -1.25640
H     2.39918   0.40110  -1.12067
H     1.02993  -0.08418  -2.14643
H     0.81895  -0.35872   2.20896
H     2.27758   0.24219   1.38808
H     1.84683  -1.46364   1.26740
