20
Generated by autodE on: 2022-06-17. E = -586.089106 Ha
C     3.04645   1.16200   0.11417
O     2.25484  -0.01838  -0.09682
C     1.08088  -0.05411   0.51985
O     0.67295   0.78611   1.29740
N     0.46188  -1.28573   0.27303
N    -0.80939  -1.33766   0.13600
C    -1.39597  -2.69097   0.24863
N    -1.68316  -0.40416  -0.06441
C    -1.31956   0.79819  -0.66370
C    -2.29515   1.90368  -0.40723
O    -0.33254   0.92343  -1.38268
H     2.49204   2.05212  -0.21536
H     3.94996   1.02875  -0.49132
H     3.31001   1.26137   1.17685
H    -0.58589  -3.40845   0.40266
H    -1.95072  -2.89659  -0.67485
H    -2.08658  -2.68339   1.10129
H    -2.11264   2.27704   0.61574
H    -3.33186   1.54267  -0.44975
H    -2.13456   2.72243  -1.12000
