23
Generated by autodE on: 2022-06-26. E = -351.519865 Ha
C    -3.62513   0.60520  -0.85104
C    -2.56136   0.06454  -0.21690
C    -2.73706  -0.96294   0.87187
C    -1.20773   0.47625  -0.58226
C    -0.06142   0.01350  -0.02249
C     1.26140   0.45132  -0.41664
C     2.42624   0.01430   0.12351
C     2.47274  -1.00962   1.23374
C     3.74962   0.53354  -0.35748
H    -4.64885   0.31601  -0.59759
H    -3.49394   1.35113  -1.64101
H    -3.80014  -1.18181   1.04524
H    -2.29557  -0.61550   1.82077
H    -2.22627  -1.90581   0.61477
H    -1.13366   1.22490  -1.38030
H    -0.12559  -0.73299   0.77451
H     1.30858   1.19719  -1.21888
H     2.00830  -1.96252   0.92985
H     1.93199  -0.66389   2.13043
H     3.50891  -1.22487   1.53223
H     3.63967   1.27149  -1.16585
H     4.38542  -0.29372  -0.72173
H     4.30974   1.00297   0.47158
