32
Generated by autodE on: 2022-06-26. E = -744.226747 Ha
C     2.67595   1.10669  -2.45188
N     2.34550   0.52990  -1.16599
C     1.22265  -0.23279  -1.00543
O     0.34832  -0.26955  -1.89643
C     1.10825  -0.97081   0.23890
C     2.15792  -1.08888   1.15107
N     3.05377  -1.17425   1.90788
N    -0.09823  -1.67155   0.50516
C     0.01579  -3.11272   0.77695
C    -1.27516  -1.10699   0.33805
C    -2.49822  -1.95723   0.22548
C    -1.41888   0.36171   0.32592
C    -2.26695   0.98629  -0.60346
C    -2.43792   2.37208  -0.58370
C    -1.78216   3.14601   0.37671
C    -0.94986   2.52777   1.31886
C    -0.75819   1.14856   1.28919
H     1.81755   1.66310  -2.85461
H     2.96530   0.34736  -3.20113
H     3.51431   1.80440  -2.32647
H     3.09146   0.44027  -0.48447
H     0.97816  -3.29360   1.26908
H    -0.01001  -3.66980  -0.17125
H    -0.79290  -3.45216   1.43313
H    -2.77703  -2.33827   1.22350
H    -3.34387  -1.36956  -0.14795
H    -2.33667  -2.82499  -0.43012
H    -2.77518   0.38846  -1.36188
H    -3.08816   2.84684  -1.32175
H    -1.92170   4.22929   0.39713
H    -0.44750   3.12582   2.08246
H    -0.10764   0.67446   2.02483
