32
Generated by autodE on: 2022-07-27. E = -744.226181 Ha
C    -1.49116  -4.67036   1.77502
N    -1.71917  -3.28145   1.43760
C    -0.79094  -2.56634   0.73738
O     0.19150  -3.14072   0.22017
C    -1.01585  -1.13499   0.62619
C    -2.01309  -0.47293   1.34601
N    -2.85316   0.08185   1.95244
N    -0.15738  -0.34572  -0.19077
C    -0.04122  -0.76357  -1.60079
C     0.43250   0.73781   0.27565
C     0.47738   0.99543   1.73969
C     1.01744   1.74052  -0.63733
C     0.25928   2.28331  -1.69144
C     0.80862   3.26205  -2.51939
C     2.12136   3.69983  -2.31647
C     2.87981   3.16663  -1.26906
C     2.32844   2.20432  -0.42331
H    -1.28829  -5.26584   0.87237
H    -0.63717  -4.80504   2.46291
H    -2.39118  -5.07102   2.25896
H    -2.44572  -2.78230   1.93907
H     0.87433  -0.35931  -2.04405
H    -0.91972  -0.42121  -2.16299
H    -0.00104  -1.85656  -1.61111
H    -0.43320   1.52834   2.06717
H     1.33426   1.63584   1.98349
H     0.52067   0.05095   2.30263
H    -0.76888   1.95405  -1.84849
H     0.20709   3.68615  -3.32635
H     2.55171   4.46085  -2.97138
H     3.90550   3.50484  -1.10664
H     2.92396   1.79248   0.39363
