23
Generated by autodE on: 2022-06-17. E = -351.521385 Ha
C     3.31840  -0.21415  -1.80031
C     2.47016  -0.15798  -0.75001
C     2.97778  -0.18610   0.66897
C     1.02950  -0.06819  -0.97926
C     0.07729  -0.00414  -0.01485
C    -1.34062   0.08385  -0.29878
C    -2.35256   0.15039   0.60301
C    -2.16414   0.14279   2.09351
C    -3.78217   0.23810   0.14869
H     4.40048  -0.28156  -1.65731
H     2.94713  -0.19345  -2.82959
H     2.56186  -1.04416   1.22280
H     2.67265   0.72001   1.21837
H     4.07434  -0.25489   0.69814
H     0.71175  -0.05215  -2.02875
H     0.38578  -0.01950   1.03399
H    -1.61014   0.09724  -1.36185
H    -2.60202   1.05380   2.53850
H    -2.70751  -0.70747   2.54242
H    -1.11395   0.08047   2.40631
H    -4.37184  -0.60743   0.54644
H    -4.26161   1.15387   0.53902
H    -3.87089   0.23904  -0.94762
