49
Generated by autodE on: 2022-06-22. E = -1206.672303 Ha
C    -1.19852   3.33525  -2.27765
O    -1.18444   2.50132  -1.11036
C    -1.48170   1.20542  -1.28066
O    -1.82629   0.75034  -2.34743
C    -1.29573   0.49253   0.08175
C    -2.38690   1.14114   0.96875
C    -1.98354   1.74287   2.27780
O    -3.53212   1.17261   0.54886
N     0.04263   0.72415   0.58940
C     0.96733  -0.32822   0.23099
C     1.81808  -0.76950   1.44779
O     2.80898  -1.46495   1.37918
O     1.33441  -0.32084   2.60467
C     2.02791  -0.73679   3.79059
C     1.90867   0.18673  -0.88437
O     1.71679   1.24609  -1.44787
O     2.90675  -0.62870  -1.18569
C     3.76353  -0.23330  -2.27004
C     0.04823  -1.53901  -0.31394
C     0.43336  -2.89923   0.27980
C     0.17140  -1.68866  -1.84250
C    -1.40580  -1.07350   0.12188
C    -1.70381  -1.50639   1.57502
C    -2.53105  -1.65269  -0.74055
H    -2.19233   3.32528  -2.74694
H    -0.95124   4.34479  -1.93037
H    -0.44512   2.98541  -2.99804
H    -1.40582   2.65873   2.06437
H    -2.87820   2.00408   2.85788
H    -1.31700   1.07869   2.84193
H     0.39739   1.64940   0.36565
H     3.07062  -0.38965   3.76707
H     2.00915  -1.83250   3.87967
H     1.49169  -0.27688   4.62836
H     4.23868   0.73265  -2.04936
H     3.18361  -0.15587  -3.20080
H     4.52012  -1.02119  -2.35581
H     1.43185  -3.19368  -0.07044
H    -0.28415  -3.65920  -0.06408
H     0.44409  -2.91683   1.37616
H     1.18059  -2.02522  -2.10905
H    -0.52896  -2.45785  -2.19308
H    -0.04221  -0.76591  -2.39174
H    -0.93627  -1.17750   2.28504
H    -1.77807  -2.60005   1.62957
H    -2.67577  -1.11186   1.90431
H    -2.45317  -1.38555  -1.79671
H    -3.50051  -1.28689  -0.37169
H    -2.53156  -2.74970  -0.64986
