18
Generated by autodE on: 2022-06-22. E = -235.968085 Ha
C    -1.96183  -0.16599   0.09581
C    -0.54589   0.34800   0.19838
C    -0.49620   1.73226   0.79925
C     0.54587  -0.34806  -0.19843
C     1.96066   0.17168  -0.10838
C     0.49738  -1.73788  -0.78665
H    -2.05229  -1.15250  -0.37419
H    -2.42433  -0.22490   1.09765
H    -2.58322   0.54050  -0.48315
H    -1.05916   2.44608   0.17107
H     0.51630   2.13044   0.93570
H    -0.99545   1.73810   1.78473
H     2.04278   1.19815   0.26867
H     2.44272   0.13889  -1.10184
H     2.57013  -0.47862   0.54490
H     0.91154  -1.73773  -1.81112
H    -0.50670  -2.17654  -0.83066
H     1.13779  -2.42208  -0.20167
