31
Generated by autodE on: 2022-06-22. E = -970.670833 Ha
C    -1.99025  -3.01276   1.20058
O    -1.85996  -1.82145   0.40574
C    -1.04794  -0.88552   0.87461
O    -0.44152  -0.95103   1.92418
C    -1.00560   0.33129   0.01213
N     0.12469   0.89609  -0.36181
C     1.42987   0.55827  -0.36924
C     2.27837   1.68579  -0.79799
C     3.76389   1.53086  -0.94116
O     1.72765   2.76419  -1.04904
C     1.82362  -0.83989  -0.18676
O     1.04889  -1.77886  -0.31050
O     3.11744  -1.00095   0.09437
C     3.59477  -2.35128   0.18609
C    -2.20537   1.14712  -0.26355
O    -2.15683   2.20424  -0.87106
O    -3.31430   0.61513   0.24082
C    -4.53434   1.34532   0.03465
H    -1.01297  -3.50619   1.29858
H    -2.69292  -3.65786   0.66169
H    -2.38271  -2.76634   2.19734
H     0.00786   1.86060  -0.73870
H     4.17484   2.46153  -1.35252
H     4.21933   1.32269   0.03857
H     4.01203   0.68215  -1.59467
H     3.43453  -2.88149  -0.76359
H     4.66618  -2.27530   0.40334
H     3.07800  -2.88567   0.99588
H    -4.73453   1.45588  -1.04066
H    -5.32231   0.75136   0.51067
H    -4.46746   2.33832   0.50150
