49
Generated by autodE on: 2022-06-22. E = -1206.613700 Ha. Imaginary frequency = -321.1 cm-1
C    -0.99427   3.54500  -2.16458
O    -0.90034   2.74432  -0.97784
C    -1.29593   1.46864  -1.08726
O    -1.83345   1.02598  -2.07665
C    -1.11346   0.79112   0.25937
C    -2.13071   1.21960   1.27908
C    -3.48404   1.65576   0.80551
O    -1.82718   1.20660   2.46673
N     0.12879   0.70133   0.81384
C     1.18358  -0.02767   0.32625
C     2.07160  -0.60656   1.35301
O     3.10885  -1.21316   1.15649
O     1.56863  -0.43653   2.59370
C     2.31295  -1.00443   3.67755
C     1.63909   0.19066  -1.04675
O     1.10110   0.97310  -1.81985
O     2.68816  -0.55678  -1.41270
C     3.16438  -0.37257  -2.75176
C    -0.26858  -1.91711  -0.43123
C     0.53157  -2.93162   0.34525
C    -0.08997  -2.01985  -1.92123
C    -1.50506  -1.42537   0.08365
C    -1.81852  -1.74118   1.53027
C    -2.72470  -1.51661  -0.81335
H    -0.37146   3.11251  -2.96074
H    -2.03731   3.60928  -2.50618
H    -0.62285   4.53866  -1.88870
H    -3.39809   2.69544   0.44536
H    -4.19790   1.62698   1.63825
H    -3.84322   1.05185  -0.03755
H     0.05801   0.67590   1.83596
H     3.31880  -0.56335   3.72825
H     2.39696  -2.09384   3.55532
H     1.74855  -0.76717   4.58661
H     3.48855   0.66648  -2.90802
H     2.38182  -0.62353  -3.48180
H     4.01553  -1.05464  -2.86141
H     1.57336  -2.97658  -0.00027
H     0.52860  -2.76957   1.42892
H     0.08604  -3.92976   0.16367
H    -0.68650  -2.87159  -2.29919
H     0.95639  -2.22374  -2.18276
H    -0.42325  -1.12151  -2.45462
H    -1.03302  -1.40287   2.21984
H    -1.91800  -2.83330   1.65804
H    -2.77056  -1.29158   1.84288
H    -2.55190  -1.16280  -1.83132
H    -3.57742  -0.96605  -0.39391
H    -3.02328  -2.58064  -0.86481
