23
Generated by autodE on: 2022-06-16. E = -513.925384 Ha. Imaginary frequency = -358.3 cm-1
C    -1.82642  -0.63365  -1.95202
C    -1.25856  -1.17458  -0.66471
C    -0.96761   0.87920   0.35197
C    -2.04933   1.66864   0.75137
N    -3.05179   2.19230   1.04432
N     0.24035   1.06086   0.27926
C     1.35050   0.48575  -0.16440
C     1.85100   0.79460  -1.54984
C     2.25395  -0.01638   0.80993
N     3.00131  -0.48284   1.57519
C    -0.00546  -1.72937  -0.57438
C     0.41327  -2.61234   0.56353
H    -2.56735   0.16298  -1.78159
H    -2.34292  -1.43675  -2.50780
H    -1.03499  -0.23452  -2.60458
H    -1.98328  -1.42602   0.11786
H     2.41132   1.74475  -1.56709
H     1.00411   0.86998  -2.24562
H     2.52535  -0.00718  -1.88148
H     0.63122  -1.72182  -1.46501
H    -0.19480  -2.42261   1.46243
H     1.47283  -2.48779   0.83504
H     0.28405  -3.67711   0.29441
