54
Generated by autodE on: 2022-06-25. E = -1356.363324 Ha
C    -3.53029  -1.89358  -2.64931
N    -2.58484  -1.04234  -1.95544
C    -2.04085  -1.40938  -0.79156
O    -2.35383  -2.44688  -0.19524
C    -0.95566  -0.46043  -0.22927
C    -1.24329  -0.15061   1.23578
C    -1.53521   1.16163   1.63213
C    -1.77882   1.46858   2.97339
C    -1.74069   0.46363   3.94290
C    -1.47433  -0.85218   3.55375
C    -1.23273  -1.16020   2.21306
O    -0.95113   0.74890  -0.99950
C     0.32083   1.03134  -1.57570
C     0.59005   2.55327  -1.54687
C    -0.59016   3.45953  -1.38824
O     1.72604   2.95707  -1.70871
C     0.28369   0.68332  -3.09299
C     1.58475   0.56912  -3.82291
O    -0.79410   0.53765  -3.63918
C     1.32649   0.19509  -0.77251
C     1.79124   0.87964   0.52430
C     2.21935  -0.13069   1.55512
C     3.01471   0.24766   2.73003
N     3.32238   1.56494   2.85644
O     3.40420  -0.57183   3.58826
C     1.84189  -1.43768   1.44473
N     1.05571  -1.94359   0.46436
C     0.81326  -3.37230   0.34019
C     0.48257  -1.06503  -0.51740
H    -3.07152  -2.85085  -2.94806
H    -3.88135  -1.37390  -3.54933
H    -4.39633  -2.12093  -2.00957
H    -2.18331  -0.23469  -2.43267
H    -1.57028   1.94928   0.88332
H    -1.99908   2.50024   3.25810
H    -1.92408   0.70196   4.99331
H    -1.45085  -1.65049   4.29943
H    -1.04109  -2.19185   1.93339
H    -1.44079   3.10044  -1.98523
H    -0.30846   4.48136  -1.67255
H    -0.90737   3.45366  -0.33331
H     1.99390  -0.43794  -3.63182
H     1.41775   0.68243  -4.90186
H     2.32034   1.29659  -3.45475
H     2.20313  -0.07605  -1.37070
H     2.62523   1.54912   0.26812
H     0.99332   1.52978   0.92319
H     2.97157   2.27251   2.22395
H     3.83715   1.86272   3.67755
H     2.18434  -2.15906   2.18889
H     1.16246  -3.88061   1.24809
H    -0.25947  -3.57081   0.21206
H     1.35034  -3.79340  -0.52777
H     0.40334  -1.62414  -1.46150
