20
Generated by autodE on: 2022-06-25. E = -457.715336 Ha
C     3.10749  -0.65865   0.08692
N     1.82216   0.01399   0.17946
C     1.78038   1.39709   0.39506
C     0.63280   2.09341   0.41283
C    -0.71991   1.45918   0.20176
C    -0.57369  -0.03310  -0.04713
C    -1.74820  -0.88484  -0.29363
N    -2.95096  -0.25688  -0.28606
O    -1.67655  -2.11356  -0.50030
C     0.64753  -0.63837  -0.04633
H     3.72266  -0.44210   0.97404
H     2.94577  -1.74239   0.03076
H     3.66691  -0.33941  -0.80873
H     2.75301   1.86727   0.55129
H     0.68086   3.16965   0.59383
H    -1.37139   1.65198   1.07888
H    -1.24347   1.95219  -0.64282
H    -3.78663  -0.80591  -0.45482
H    -3.04862   0.73731  -0.12366
H     0.72505  -1.71109  -0.23025
