34
Generated by autodE on: 2022-07-28. E = -898.565673 Ha
C    -1.82415  -2.49920  -2.47548
N    -1.60730  -1.67541  -1.30039
C    -0.37426  -1.28913  -0.94981
O     0.66476  -1.71252  -1.45800
C    -0.25444  -0.34801   0.23254
O     0.66764   0.54986   0.23893
C     1.32715   1.12571  -0.83858
C     2.61702   1.65576  -0.48046
C     3.09096   1.41686   0.93915
O     3.33839   2.26186  -1.28940
C     0.55786   1.35735  -2.02187
C     1.15694   2.15657  -3.15247
O    -0.61567   0.93927  -2.10694
C    -0.94634  -0.53395   1.48847
C    -0.89483   0.49427   2.46202
C    -1.53015   0.33017   3.68591
C    -2.22391  -0.85564   3.96456
C    -2.27931  -1.87938   3.01231
C    -1.65065  -1.72603   1.78044
H    -1.18828  -3.39458  -2.43626
H    -1.58498  -1.94312  -3.39754
H    -2.87618  -2.80735  -2.50499
H    -2.39745  -1.17798  -0.89990
H     2.36811   1.81126   1.67083
H     4.06254   1.90939   1.07512
H     3.19497   0.33834   1.13863
H     2.02255   1.62513  -3.57677
H     1.52445   3.13364  -2.80852
H     0.38862   2.28830  -3.92631
H    -0.36927   1.42187   2.23403
H    -1.49407   1.13045   4.42773
H    -2.72407  -0.98029   4.92754
H    -2.81138  -2.80636   3.23445
H    -1.68165  -2.53798   1.05582
