54
Generated by autodE on: 2022-06-25. E = -1356.276795 Ha. Imaginary frequency = -302.2 cm-1
C    -3.48550  -1.74131  -3.09299
N    -2.91558  -1.08172  -1.93333
C    -1.73678  -1.48867  -1.42187
O    -1.22420  -2.57934  -1.68292
C    -1.20432  -0.56544  -0.32443
C    -1.77760  -0.77662   1.00604
C    -1.61204   0.18992   2.01911
C    -2.09939  -0.04200   3.30354
C    -2.75158  -1.24245   3.60582
C    -2.91877  -2.21048   2.60836
C    -2.43723  -1.98417   1.32186
O    -0.90607   0.70999  -0.58933
C     0.05584   1.21419  -1.41339
C     0.64679   2.44375  -0.88538
C     0.07640   3.04222   0.38004
O     1.61023   2.98410  -1.43945
C     0.11119   0.81675  -2.81423
C     1.14513   1.42182  -3.73047
O    -0.66888  -0.03468  -3.25812
C     1.61814  -0.66539  -0.94606
C     2.80715   0.17419  -0.57630
C     2.66140   0.67419   0.84565
C     3.32652   1.89108   1.34325
N     4.25825   2.45068   0.53589
O     3.07029   2.38399   2.45954
C     1.92742  -0.05205   1.73015
N     1.21083  -1.16358   1.37270
C     0.79393  -2.11451   2.39503
C     0.92238  -1.37617   0.02455
H    -2.88074  -1.55624  -3.99713
H    -4.50200  -1.36279  -3.25921
H    -3.53384  -2.82567  -2.92521
H    -3.15794  -0.10571  -1.78844
H    -1.09447   1.11858   1.79398
H    -1.96239   0.71700   4.07695
H    -3.12792  -1.42416   4.61502
H    -3.42448  -3.15111   2.83717
H    -2.55357  -2.75952   0.56370
H    -1.02185   3.05589   0.37434
H     0.47021   4.06133   0.48443
H     0.40460   2.45584   1.25077
H     2.16169   1.17282  -3.39071
H     0.98398   1.01005  -4.73581
H     1.07766   2.51803  -3.74980
H     1.51410  -1.01059  -1.97392
H     3.72402  -0.44271  -0.69342
H     2.92245   1.00719  -1.28524
H     4.44231   2.11173  -0.39986
H     4.68590   3.32401   0.82466
H     1.88350   0.22361   2.78568
H     0.25958  -1.60618   3.21022
H     0.12637  -2.85911   1.94939
H     1.66793  -2.63665   2.81836
H     0.43108  -2.31388  -0.22929
