44
Generated by autodE on: 2022-06-22. E = -1258.091411 Ha. Imaginary frequency = -415.4 cm-1
C    -2.52820   1.44379   3.72690
O    -1.65167   1.02108   2.67096
C    -2.10632   1.14767   1.42544
O    -3.22767   1.53064   1.15681
C    -1.10199   0.74321   0.39382
C    -1.63930   0.49221  -0.98939
O    -1.14399   0.90539  -2.01718
O    -2.76606  -0.21647  -0.95611
C    -3.40498  -0.48698  -2.21134
C    -0.47998  -1.39870   1.11914
C    -1.52018  -2.22082   0.51517
O    -2.59166  -2.46443   1.07865
C    -1.24387  -2.77368  -0.83935
C    -0.01953  -2.71498  -1.39402
C     1.12632  -2.13445  -0.65932
O     2.27541  -2.26819  -1.06568
C     0.82611  -1.35869   0.57894
N     0.99762   0.37707  -0.23095
C     2.33644   0.78226  -0.48516
C     2.62590   1.18531  -1.79747
C     3.92622   1.55467  -2.14444
C     4.94863   1.49610  -1.19156
C     4.66387   1.07600   0.11186
C     3.36165   0.72242   0.47077
N     0.19164   1.15711   0.47525
C     0.69977   2.03600   1.53503
H    -1.97075   1.28936   4.65738
H    -2.78734   2.50524   3.60613
H    -3.44470   0.83720   3.72434
H    -2.71434  -1.00837  -2.88831
H    -3.74025   0.45084  -2.67691
H    -4.26399  -1.12496  -1.97580
H    -0.64011  -1.12386   2.16098
H    -2.08675  -3.24985  -1.34626
H     0.19844  -3.14159  -2.37617
H     1.66847  -1.26589   1.26722
H     1.81513   1.20894  -2.52747
H     4.14366   1.87730  -3.16516
H     5.96912   1.77291  -1.46578
H     5.46073   1.02383   0.85719
H     3.14248   0.39583   1.48805
H     0.99917   1.44953   2.41507
H    -0.07387   2.75955   1.80651
H     1.56796   2.57663   1.14090
