27
Generated by autodE on: 2022-06-12. E = -8241.020742 Ha
C     0.75832   5.48164  -0.82905
N     0.92843   4.23137  -0.11110
C     0.10347   3.19536  -0.31222
O    -0.81541   3.20919  -1.13221
C     0.35764   1.93762   0.53916
Br   -0.58954   2.30675   2.30576
C    -0.25544   0.75923  -0.02814
C    -0.37851  -0.40771  -0.33425
C     0.01352  -1.78357  -0.45368
Br    0.63315  -2.10922  -2.32770
Br   -1.50998  -3.00904  -0.09319
C     1.15744  -2.06254   0.53795
C     2.28974  -1.01428   0.55000
C     2.12494   0.23002   1.46797
C     1.83871   1.59790   0.81668
H     0.76614   5.31198  -1.91628
H     1.58344   6.15436  -0.56708
H    -0.19545   5.96668  -0.56570
H     1.66160   4.16704   0.58615
H     0.70072  -2.11525   1.53903
H     1.55903  -3.06117   0.31324
H     2.52223  -0.70276  -0.48147
H     3.18111  -1.55700   0.89775
H     1.37305   0.02983   2.24882
H     3.07579   0.35721   2.00596
H     2.26117   2.39123   1.45128
H     2.35348   1.65928  -0.15732
