22
Generated by autodE on: 2022-06-12. E = -554.025457 Ha
C    -1.29906   2.14824  -0.33430
N    -0.22812   1.42735  -0.33561
C     1.05715   2.04323  -0.72904
C    -0.31218   0.00873  -0.18077
C    -1.32109  -0.64141  -0.97495
C    -1.35006  -2.15531  -1.03928
O    -2.17026  -0.00267  -1.63097
C     0.65017  -0.66258   0.64980
O     0.81693  -1.87739   0.75459
O     1.39255   0.20389   1.39678
C     2.40629  -0.37178   2.21968
H    -1.24392   3.18667  -0.66803
H    -2.23467   1.72871   0.02857
H     1.63889   2.28024   0.16805
H     0.85283   2.96083  -1.29347
H     1.61454   1.33201  -1.34925
H    -1.51325  -2.58753  -0.04115
H    -0.39820  -2.56395  -1.40723
H    -2.16873  -2.45172  -1.70870
H     1.96965  -1.04345   2.97419
H     3.13378  -0.93709   1.61746
H     2.90778   0.46818   2.71632
