49
Generated by autodE on: 2022-06-12. E = -8795.035209 Ha. Imaginary frequency = -281.5 cm-1
C     4.49305  -3.40757   0.76024
N     3.11052  -3.12244   1.10249
C     2.60281  -1.89542   0.96698
O     3.25665  -0.93177   0.55789
C     1.15181  -1.61225   1.42363
Br    0.05632  -3.32679   1.57237
C     1.24458  -0.98328   2.82589
C    -0.05098  -0.50120   3.48996
C    -0.41508   0.98520   3.32534
C    -1.39232   1.37393   2.21323
C    -0.85916   1.47069   0.77613
Br    0.54812   2.90373   0.67167
Br   -2.41433   2.11059  -0.31617
C    -0.25536   0.25850   0.27307
C     0.43993  -0.75973   0.45584
C     0.95945  -1.68758  -1.41941
N    -0.15768  -1.46966  -2.11890
C    -1.03997  -2.65334  -2.24876
C    -0.59558  -0.20296  -2.45788
C    -2.02289  -0.02730  -2.83495
C    -2.42819   1.03405  -3.83381
O    -2.89366  -0.76898  -2.38235
C     0.32185   0.92732  -2.68603
O    -0.04905   2.05822  -2.95744
O     1.63858   0.63462  -2.61375
C     2.54638   1.72954  -2.76425
H     5.18121  -2.79731   1.36491
H     4.69174  -4.46842   0.95239
H     4.68714  -3.19281  -0.30205
H     2.51014  -3.87546   1.42167
H     1.94716  -0.14056   2.72125
H     1.74385  -1.72465   3.46730
H    -0.89749  -1.13673   3.18329
H     0.07643  -0.68257   4.56761
H     0.49956   1.59595   3.25430
H    -0.91118   1.30421   4.25511
H    -2.22025   0.64669   2.18226
H    -1.83616   2.35052   2.45320
H     1.19498  -2.73090  -1.21622
H     1.77246  -0.97829  -1.47348
H    -1.57851  -2.62216  -3.19965
H    -1.76040  -2.68644  -1.42521
H    -0.39890  -3.54035  -2.22689
H    -1.71108   1.12165  -4.66150
H    -3.42223   0.76033  -4.21361
H    -2.48616   2.01757  -3.35019
H     2.35384   2.49811  -2.00192
H     2.45657   2.17883  -3.76398
H     3.54927   1.30728  -2.62836
