36
Generated by autodE on: 2022-10-21. E = -1011.946267 Ha
C    -2.56116  -3.12119  -1.01031
O    -1.96390  -2.05739  -0.24666
C    -2.00841  -0.84679  -0.77773
O    -2.52825  -0.58184  -1.83979
C    -1.24916   0.18789   0.07170
C    -1.91746   1.56576   0.04070
O    -1.30147   2.60823   0.03759
O    -3.23683   1.46674   0.10090
C    -3.98041   2.69745   0.16080
N    -1.21743  -0.19085   1.49097
C     0.02479  -0.40980   1.77398
C     0.97870  -0.21658   0.68202
C     2.43094  -0.41054   0.77143
C     3.05313  -0.53915   2.03111
C     4.43264  -0.72119   2.13509
C     5.22664  -0.78123   0.98558
C     4.62355  -0.65832  -0.27021
C     3.24443  -0.47614  -0.37963
C     0.21411   0.19077  -0.38056
O     0.65844   0.42504  -1.61202
C    -0.01318   1.33198  -2.50433
H    -3.63230  -2.92562  -1.15897
H    -2.41644  -4.03094  -0.41737
H    -2.06221  -3.21373  -1.98534
H    -3.76910   3.30996  -0.72681
H    -3.71445   3.25609   1.06928
H    -5.03667   2.40786   0.18435
H     0.31023  -0.72124   2.78328
H     2.45739  -0.48737   2.94349
H     4.89000  -0.81508   3.12297
H     6.30658  -0.92427   1.06788
H     5.23206  -0.70763  -1.17653
H     2.78957  -0.38943  -1.36483
H     0.48035   1.20700  -3.47543
H     0.11140   2.36443  -2.15108
H    -1.07733   1.08536  -2.60118
