18
Generated by autodE on: 2022-10-21. E = -423.102473 Ha
C     4.23926   0.10632   0.06602
O     3.27332  -0.96081  -0.09975
C     2.02497  -0.61614  -0.06542
C     0.84096  -0.33643  -0.04003
C    -0.55208  -0.01127  -0.00911
C    -1.52988  -1.01605  -0.17511
C    -2.88694  -0.69445  -0.14352
C    -3.29751   0.62860   0.05297
C    -2.33652   1.63199   0.21839
C    -0.97707   1.32046   0.18842
H     4.09366   0.59214   1.04202
H     5.22594  -0.36844   0.01830
H     4.12675   0.84005  -0.74560
H    -1.21312  -2.04961  -0.32858
H    -3.63053  -1.48452  -0.27357
H    -4.36115   0.87639   0.07712
H    -2.64808   2.66798   0.37235
H    -0.22987   2.10603   0.31789
