36
Generated by autodE on: 2022-10-21. E = -1011.817607 Ha. Imaginary frequency = -366.8 cm-1
C    -2.18242  -3.26632  -1.47289
O    -2.41464  -2.05811  -0.74393
C    -1.42279  -1.14611  -0.76604
O    -0.37826  -1.34830  -1.38394
C    -1.69897   0.07010  -0.02130
C    -2.92385   0.34737   0.71689
O    -3.88349  -0.39952   0.85642
O    -2.90203   1.58356   1.28199
C    -4.05591   1.95095   2.03868
N    -0.75868   1.02702  -0.04433
C     0.23730   1.67542  -0.14987
C     1.98495   0.77734  -0.67350
C     2.57377   0.22723   0.52961
C     3.74907   0.78241   1.06799
C     4.29801   0.25377   2.23745
C     3.68398  -0.82601   2.88060
C     2.51418  -1.37892   2.34820
C     1.95512  -0.85670   1.18144
C     1.90353   1.03254  -1.88189
O     1.68645   1.38923  -3.07974
C     0.81301   0.53954  -3.89558
H    -3.08376  -3.87665  -1.33816
H    -1.30483  -3.80118  -1.07996
H    -2.02676  -3.05795  -2.54202
H    -3.86258   2.96307   2.41538
H    -4.21200   1.26187   2.88261
H    -4.95853   1.95339   1.40879
H     0.59459   2.70221  -0.08710
H     4.22469   1.62654   0.56530
H     5.21171   0.68910   2.64871
H     4.11679  -1.23641   3.79577
H     2.03198  -2.22396   2.84498
H     1.04678  -1.28721   0.75838
H    -0.19835   0.56780  -3.47117
H     1.20971  -0.48319  -3.89962
H     0.83692   0.97952  -4.89754
