10
Generated by autodE on: 2022-10-06. E = -455.051686 Ha
O     2.30606   0.71705   0.83473
C     1.91037   0.38171  -0.31554
O     2.62591   0.31245  -1.35358
C     0.44998   0.02086  -0.49591
C    -0.44998  -0.02084   0.49591
C    -1.91037  -0.38171   0.31554
O    -2.62589  -0.31255   1.35360
O    -2.30609  -0.71696  -0.83475
H     0.13384  -0.22879  -1.51444
H    -0.13383   0.22882   1.51443
