31
Generated by autodE on: 2022-10-06. E = -967.845219 Ha. Imaginary frequency = -399.5 cm-1
C     0.36928  -0.61531  -2.13311
C     0.61392   0.03576  -0.79728
C     1.92395  -0.22428  -0.14137
C     2.40269  -1.54222  -0.03152
C     3.62145  -1.81012   0.59097
C     4.38858  -0.76619   1.11819
C     3.92320   0.54782   1.01710
C     2.70302   0.81749   0.39407
N     0.10227   1.29108  -0.61188
N    -1.18148   1.41989  -1.04661
C    -1.79324   2.54517  -0.73569
N    -2.43002   3.50836  -0.52048
C    -2.03775  -0.15963   0.05197
C    -3.05454  -0.59539  -0.98331
O    -4.09389   0.11338  -1.06820
O    -2.78597  -1.60346  -1.69435
C    -0.89457  -0.90687   0.39017
C    -0.25699  -0.66966   1.73433
O     0.22418  -1.66067   2.34448
O    -0.21952   0.53407   2.14191
H     0.73098  -1.65032  -2.12954
H    -0.69213  -0.62136  -2.39779
H     0.93162  -0.06097  -2.90501
H     1.80403  -2.36886  -0.41670
H     3.97120  -2.84208   0.67021
H     5.34448  -0.97613   1.60373
H     4.51706   1.37285   1.41743
H     2.36840   1.85223   0.30488
H     0.23214   1.59938   0.36446
H    -2.41002   0.55397   0.78996
H    -0.80836  -1.90823  -0.03918
