18
Generated by autodE on: 2022-06-18. E = -605.723803 Ha
C     2.78469  -1.89302  -0.82810
O     1.76714  -0.97552  -0.40412
C     0.49822  -1.31947  -0.67494
O     0.18929  -2.34825  -1.24849
C    -0.44983  -0.30534  -0.19499
N     0.03763   0.75732   0.41070
C     0.35531   1.74160   0.96250
C     0.74655   2.87440   1.60194
N     1.08476   3.84995   2.15242
C    -1.92330  -0.33541  -0.31578
C    -2.56532  -1.51304  -0.99443
O    -2.58565   0.59463   0.13727
H     3.73804  -1.44365  -0.52708
H     2.75517  -2.02550  -1.91933
H     2.65318  -2.86853  -0.33780
H    -2.30892  -2.44708  -0.47273
H    -2.19608  -1.61440  -2.02574
H    -3.65290  -1.36423  -0.99354
