41
Generated by autodE on: 2022-06-18. E = -957.249554 Ha. Imaginary frequency = -360.3 cm-1
C     0.51378  -3.19966  -0.39347
O    -0.10009  -1.97774  -0.82723
C    -0.83563  -1.32847   0.07687
O    -0.96217  -1.70269   1.23372
C    -1.48079  -0.11199  -0.43986
C    -1.35434   0.46629  -1.77694
C    -2.30039   1.59009  -2.12361
O    -0.48501   0.09373  -2.56848
N    -2.25092   0.51204   0.45238
C    -2.36994   1.33225   1.32239
C    -3.35430   1.83202   2.17466
N    -4.09223   2.32456   2.93029
C    -0.43083   2.41027   1.72049
C     0.47585   1.98678   0.76707
C     0.65989   2.76653  -0.50763
C     1.31847   0.84075   1.03686
C     2.15425   0.25815   0.13478
C     2.95333  -0.90973   0.41556
C     3.55842  -1.69605  -0.51214
C     4.35386  -2.89963  -0.10207
C     3.44137  -1.47282  -1.99411
H     1.15284  -3.02589   0.48121
H    -0.25859  -3.94280  -0.14586
H     1.11690  -3.54694  -1.23960
H    -2.11448   2.46116  -1.47547
H    -2.14213   1.88120  -3.16963
H    -3.34791   1.28665  -1.97168
H    -0.93207   3.37535   1.61109
H    -0.40760   1.97613   2.72419
H    -0.12462   3.52604  -0.62639
H     1.63583   3.28196  -0.49120
H     0.66379   2.12388  -1.40004
H     1.22942   0.39722   2.03464
H     2.20085   0.66957  -0.87617
H     3.03935  -1.19959   1.46920
H     5.36433  -2.87298  -0.54775
H     3.87759  -3.82303  -0.47880
H     4.45420  -2.98023   0.99012
H     2.60816  -0.81193  -2.26770
H     4.37486  -1.04538  -2.40295
H     3.29301  -2.43672  -2.50891
