39
Generated by autodE on: 2022-06-17. E = -765.058404 Ha
C     0.88299   2.28498   2.14886
C     1.00453   2.45873   0.82524
C     1.49630   3.74493   0.22238
C     0.60009   1.40575  -0.19162
C     0.55067  -0.06357   0.33779
C     1.04438  -1.06188  -0.68095
C     2.33634  -1.35881  -0.90105
C     2.73871  -2.33420  -1.97452
C     3.48014  -0.74029  -0.14205
N    -0.88495  -0.18925   0.66722
C    -1.56736  -1.39110   0.62709
O    -0.98499  -2.46501   0.84130
N    -2.90209  -1.30059   0.40950
C    -3.72439  -2.48380   0.28862
N    -1.58828   1.01669   0.32596
N    -0.79091   1.67768  -0.63878
C    -1.09719   1.17338  -1.97542
H     1.14085   3.08857   2.84521
H     0.53136   1.34959   2.59093
H     0.75443   4.15187  -0.48431
H     1.70343   4.50551   0.98888
H     2.41895   3.56983  -0.35774
H     1.27139   1.47290  -1.05638
H     1.15253  -0.14511   1.25151
H     0.28587  -1.53984  -1.30644
H     1.86859  -2.73963  -2.51207
H     3.30633  -3.17866  -1.54461
H     3.40910  -1.85507  -2.71019
H     3.15997  -0.10152   0.69218
H     4.09514  -0.12120  -0.81936
H     4.15099  -1.52142   0.25573
H    -3.25063  -0.39379   0.11333
H    -3.56089  -3.02079  -0.66274
H    -4.78190  -2.19359   0.34357
H    -3.51296  -3.18447   1.10931
H    -1.56698   1.60403   1.16313
H    -1.01052   0.07583  -2.06393
H    -0.40930   1.63423  -2.69716
H    -2.12494   1.45976  -2.23945
