23
Generated by autodE on: 2022-06-17. E = -351.521383 Ha
C    -3.33292   1.76905  -0.24767
C    -2.47291   0.72741  -0.21209
C    -2.95881  -0.69421  -0.33468
C    -1.04021   0.96887  -0.05337
C    -0.07775   0.01386  -0.00365
C     1.33173   0.30977   0.15347
C     2.35355  -0.58163   0.20791
C     3.77228  -0.11507   0.37388
C     2.18731  -2.07163   0.11047
H    -4.40934   1.61691  -0.36618
H    -2.97702   2.80010  -0.15854
H    -2.50160  -1.19683  -1.20321
H    -4.05128  -0.73310  -0.44870
H    -2.68159  -1.28694   0.55289
H    -0.73815   2.01978   0.03068
H    -0.37088  -1.03621  -0.08671
H     1.58519   1.37375   0.23518
H     3.84483   0.98045   0.43956
H     4.39804  -0.45689  -0.47017
H     4.22389  -0.55051   1.28345
H     2.59763  -2.56148   1.01119
H     2.76827  -2.46522  -0.74234
H     1.14484  -2.39357  -0.00876
