38
Generated by autodE on: 2022-05-30. E = -1162.458223 Ha
C     4.28690   0.70618   1.07983
N     2.86466   0.71662   0.78748
C     2.38142   0.22126  -0.35539
O     3.06141  -0.26515  -1.25764
C     0.86047   0.25887  -0.45820
O     0.45359   0.46650  -1.83975
C    -0.78793   1.02416  -1.75808
O    -1.47272   1.28959  -2.70237
C    -1.04256   1.16524  -0.24107
C    -2.01666   2.25234   0.16807
C    -1.49893   3.33181   1.05876
O    -3.15835   2.16975  -0.24057
O     0.30813   1.36474   0.19866
C    -1.36429  -0.27389   0.24216
C    -1.55891  -0.44019   1.78239
C    -1.83689  -1.92288   1.99274
C    -0.65482  -2.53208   1.83513
C     0.33369  -1.41033   1.52869
O    -0.21319  -0.32177   2.27178
C     0.01921  -0.96924   0.04489
C     0.02027  -2.13302  -0.95397
C     1.26427  -2.96346  -1.04737
O    -0.95970  -2.34890  -1.64298
H     4.43457   1.00341   2.12460
H     4.70240  -0.30099   0.92849
H     4.83334   1.40581   0.42766
H     2.21579   1.12109   1.45691
H    -0.65954   3.84640   0.56337
H    -1.09211   2.88041   1.97878
H    -2.30004   4.04175   1.29898
H    -2.17548  -0.71602  -0.34287
H    -2.22681   0.28372   2.26121
H    -2.82317  -2.36256   2.13961
H    -0.42407  -3.59673   1.82145
H     1.39067  -1.57392   1.75944
H     1.63174  -3.25471  -0.05214
H     2.05435  -2.34902  -1.50894
H     1.07598  -3.85145  -1.66396
