18
Generated by autodE on: 2022-05-30. E = -460.241421 Ha
C     2.88633  -0.13188   0.79875
C     1.79549   0.50489  -0.02195
O     1.98338   1.53588  -0.66644
C     0.47675  -0.13351  -0.03204
C    -0.01341  -1.15125   0.69828
C    -1.50055  -1.24145   0.30128
C    -2.19061   0.01925   0.87431
C    -1.71360   1.03153   0.14418
C    -0.73322   0.37604  -0.85328
O    -1.40622  -0.87667  -1.08992
H     3.03634  -1.17871   0.49167
H     2.59823  -0.14462   1.86218
H     3.82111   0.43087   0.67772
H     0.47837  -1.75683   1.45879
H    -2.00055  -2.20455   0.44839
H    -2.86372   0.02869   1.73079
H    -1.89283   2.10236   0.23460
H    -0.50777   0.91457  -1.77885
