20
Generated by autodE on: 2022-05-30. E = -702.145832 Ha
C     4.24111  -0.58269  -1.43105
N     3.03224  -0.52692  -0.62956
C     1.87204  -0.13047  -1.15993
O     1.67986   0.21361  -2.32178
C     0.72321  -0.12265  -0.18882
O     0.77524  -0.45291   1.04464
C    -0.66090  -0.27034   1.62393
O    -0.84575  -0.52515   2.77656
C    -1.33233   0.17903   0.48209
C    -2.71830   0.54101   0.31115
C    -3.14602   0.99320  -1.06087
O    -3.49642   0.47390   1.26527
O    -0.44202   0.24971  -0.59205
H     4.11397  -1.27126  -2.28043
H     4.49020   0.41260  -1.83032
H     5.06506  -0.93515  -0.80086
H     3.06801  -0.78788   0.35290
H    -2.93809   0.20929  -1.80657
H    -2.57800   1.88791  -1.36279
H    -4.21943   1.22088  -1.04771
