61
Generated by autodE on: 2022-06-07. E = -3789.006509 Ha
C     1.52430  -4.59675   2.79978
O     1.10433  -4.50700   1.42856
C     2.06710  -4.46213   0.50548
O     3.25111  -4.50135   0.77762
C     1.48765  -4.45791  -0.91301
C     2.29635  -3.63336  -1.90053
C     2.80481  -4.44734  -2.86276
C     3.74979  -4.14013  -4.00426
C     4.11957  -5.33792  -4.88518
Br    2.72555  -2.97558  -5.40483
C     5.08490  -3.44760  -3.58832
C     5.25992  -2.83656  -2.19515
C     4.70223  -1.42765  -2.01301
C     3.25582  -1.25471  -2.46124
C     2.18227  -2.10775  -1.75221
C     0.81374  -1.73734  -2.38300
C     2.14534  -1.67897  -0.27008
C     2.24485  -5.87402  -2.70789
C     3.28925  -6.96875  -2.36801
C     4.51486  -6.54588  -1.59760
O     3.05582  -8.15061  -2.57212
C     1.25893  -6.17594  -3.85077
C     1.35883  -7.26118  -4.73357
C     0.40671  -7.45414  -5.74067
C    -0.66683  -6.57231  -5.88123
C    -0.77750  -5.48730  -5.00605
C     0.17787  -5.29239  -4.00881
N     1.56177  -5.82045  -1.40422
C     0.45083  -6.70285  -1.12659
H     2.12064  -3.71428   3.07238
H     2.12011  -5.50667   2.95892
H     0.60525  -4.63356   3.39551
H     0.44342  -4.10148  -0.84682
H     3.25417  -5.79448  -5.37064
H     4.81463  -5.00331  -5.66695
H     4.64424  -6.10365  -4.29618
H     5.83486  -4.24905  -3.67158
H     5.35632  -2.71479  -4.36307
H     6.34489  -2.80476  -2.00095
H     4.84462  -3.51498  -1.43661
H     5.31803  -0.72396  -2.60028
H     4.82077  -1.12673  -0.95878
H     3.19184  -1.41447  -3.54269
H     2.96241  -0.20373  -2.30285
H     0.63639  -0.65657  -2.26551
H     0.79914  -1.97704  -3.45483
H    -0.01580  -2.26922  -1.89434
H     2.03602  -0.58499  -0.22148
H     1.28794  -2.10640   0.26916
H     3.06294  -1.95014   0.26730
H     4.97021  -7.43523  -1.14208
H     5.25028  -6.08126  -2.27092
H     4.26258  -5.80918  -0.82566
H     2.18494  -7.96158  -4.64458
H     0.51053  -8.30412  -6.41963
H    -1.40945  -6.72619  -6.66783
H    -1.60644  -4.78235  -5.10493
H     0.08381  -4.43044  -3.34841
H     0.27957  -6.74426  -0.04035
H     0.69011  -7.71979  -1.46801
H    -0.49256  -6.38668  -1.61211
