29
Generated by autodE on: 2022-06-07. E = -3003.744675 Ha
C     2.53231  -1.22101  -2.72802
C     1.42081  -0.19694  -2.43024
C     1.66016   1.08177  -3.24861
C     1.35798   0.07208  -0.98894
C     0.98361   0.03503   0.16588
C     0.15856  -0.36249   1.28897
C     0.90645  -0.67189   2.57637
Br   -1.08302   1.22408   1.70810
C    -0.72828  -1.53262   0.81313
C    -1.37015  -1.40979  -0.58198
C    -0.54762  -1.86988  -1.82101
C     0.01448  -0.78933  -2.76955
H     2.55355  -1.44227  -3.80674
H     3.51708  -0.82493  -2.43658
H     2.36820  -2.16273  -2.18359
H     2.65439   1.50450  -3.03666
H     0.90215   1.84633  -3.01973
H     1.60592   0.85300  -4.32463
H     1.59944  -1.50807   2.38768
H     0.20790  -0.97010   3.37094
H     1.49069   0.19345   2.91782
H    -1.50692  -1.68997   1.57535
H    -0.08149  -2.42756   0.83859
H    -1.72659  -0.37618  -0.72627
H    -2.27963  -2.02958  -0.54832
H     0.26250  -2.54637  -1.49990
H    -1.21605  -2.49508  -2.43369
H    -0.70449   0.04531  -2.82195
H     0.08609  -1.20335  -3.78951
