61
Generated by autodE on: 2022-06-07. E = -3788.906687 Ha. Imaginary frequency = -279.8 cm-1
C     3.83943  -4.38811   2.08479
O     2.62203  -4.53067   1.34714
C     2.72486  -5.05046   0.10756
O     3.78461  -5.48639  -0.31755
C     1.43003  -4.92859  -0.57692
C     2.24025  -3.31204  -1.91649
C     2.83586  -3.92963  -2.82857
C     3.82684  -3.78312  -3.89238
C     4.25609  -5.02501  -4.65430
Br    2.91651  -2.61921  -5.41841
C     5.06345  -2.99497  -3.39441
C     4.94045  -2.08593  -2.16712
C     4.06799  -0.81962  -2.20925
C     2.53657  -0.92934  -2.31174
C     1.82186  -1.96622  -1.40251
C     0.30046  -1.79864  -1.57577
C     2.18562  -1.72781   0.07145
C     1.78260  -6.32929  -2.49117
C     2.86329  -7.23192  -1.97165
C     2.58457  -8.01430  -0.70913
O     3.83471  -7.52094  -2.65966
C     1.29557  -6.65130  -3.85792
C     1.34103  -7.97334  -4.34284
C     0.91094  -8.27851  -5.63530
C     0.42584  -7.27016  -6.47318
C     0.37494  -5.95270  -6.00490
C     0.80446  -5.64736  -4.71520
N     0.96468  -5.69558  -1.60801
C    -0.43510  -5.40242  -1.96349
H     4.54058  -3.72886   1.55163
H     4.31418  -5.36671   2.24668
H     3.55974  -3.94021   3.04556
H     0.64737  -4.50343   0.04749
H     3.40978  -5.52303  -5.13926
H     5.00369  -4.76415  -5.41684
H     4.70359  -5.73228  -3.94192
H     5.80745  -3.76861  -3.13638
H     5.48619  -2.44643  -4.24945
H     5.96850  -1.74483  -1.95508
H     4.65871  -2.70273  -1.30098
H     4.40648  -0.18449  -3.04693
H     4.31115  -0.25307  -1.29426
H     2.24818  -1.14498  -3.34842
H     2.11513   0.06230  -2.07077
H    -0.00744  -0.79340  -1.24627
H     0.00804  -1.91972  -2.63004
H    -0.25054  -2.53805  -0.97685
H     2.00823  -0.66865   0.31716
H     1.56701  -2.33833   0.74139
H     3.23973  -1.95516   0.28197
H     1.86679  -7.54640  -0.02652
H     2.15439  -8.97622  -1.03970
H     3.52738  -8.22108  -0.18558
H     1.71108  -8.77725  -3.70478
H     0.95381  -9.31180  -5.98743
H     0.09563  -7.50816  -7.48705
H     0.01743  -5.15111  -6.65526
H     0.80380  -4.61119  -4.38168
H    -1.01038  -5.31285  -1.03491
H    -0.84426  -6.21899  -2.56522
H    -0.50528  -4.45778  -2.51786
