35
Generated by autodE on: 2022-06-29. E = -837.018084 Ha
C     2.87955  -0.29355   2.16662
N     2.29607  -0.56516   0.86611
C     1.97057   0.42309   0.03380
O     2.21611   1.62404   0.18677
C     1.34983   0.05122  -1.29754
C     2.25605  -0.10197  -2.46551
N     0.05412   0.05052  -1.40006
C    -0.59850  -0.03140  -2.71661
C    -0.75794  -0.10956  -0.23022
C    -1.68869   0.92893   0.11458
O    -2.57773   0.80182   0.99831
N    -1.57420   2.12121  -0.55789
C    -2.37008   3.26753  -0.17110
C    -0.64187  -1.39248   0.42664
O     0.23861  -2.24303   0.10100
N    -1.50888  -1.65968   1.43189
C    -1.46516  -2.89844   2.17257
H     2.13100   0.10334   2.87283
H     3.29268  -1.22351   2.57703
H     3.68724   0.44497   2.07088
H     1.79750  -1.45053   0.69835
H     2.20933   0.80213  -3.09683
H     3.29172  -0.24377  -2.13365
H     1.94657  -0.95670  -3.08626
H    -0.10232   0.62742  -3.44010
H    -0.55543  -1.07229  -3.07156
H    -1.64459   0.26544  -2.59847
H    -0.69531   2.31022  -1.02751
H    -3.43802   3.00712  -0.15133
H    -2.10268   3.65695   0.82819
H    -2.22207   4.06951  -0.90664
H    -2.20806  -0.93861   1.61711
H    -1.68925  -3.77450   1.53948
H    -0.47555  -3.06757   2.62885
H    -2.21230  -2.85736   2.97602
