26
Generated by autodE on: 2022-06-29. E = -689.460853 Ha
C    -3.05695  -0.44567   1.40679
O    -1.66929  -0.72665   1.61713
C    -0.71670  -0.31585   0.78025
C    -0.82086   0.48080  -0.32086
O    -1.99637   1.05042  -0.71885
C    -2.58184   0.51338  -1.90957
C     0.38513   0.84311  -1.09675
O     0.28232   1.60930  -2.05317
C     1.71537   0.28709  -0.70439
C     2.89591   0.65363  -1.54696
C     1.83145  -0.50210   0.39223
C     3.14700  -1.06249   0.83679
C     0.63082  -0.84189   1.19809
O     0.70468  -1.55209   2.19137
H    -3.58082  -0.94691   2.23049
H    -3.25272   0.63365   1.44208
H    -3.39994  -0.85977   0.44783
H    -3.51017   1.07381  -2.08245
H    -2.81983  -0.55527  -1.77741
H    -1.91469   0.63614  -2.77543
H     3.64851   1.19375  -0.94840
H     3.39400  -0.25065  -1.93376
H     2.59850   1.28541  -2.39196
H     3.86916  -0.25320   1.03384
H     3.03465  -1.66408   1.74641
H     3.58845  -1.69327   0.04759
