61
Generated by autodE on: 2022-06-29. E = -1526.446379 Ha. Imaginary frequency = -209.3 cm-1
C    -3.74066   2.88521  -0.17265
N    -2.76141   2.16769   0.61974
C    -1.44971   2.41080   0.45571
O    -1.02108   3.39017  -0.16329
C    -0.48781   1.57246   1.29233
C    -0.65592   1.92044   2.75171
N     0.82997   1.55488   0.81984
C     1.89132   2.04335   1.72758
C     1.19211   0.93403  -0.32215
C     2.67875   0.80311  -0.62022
O     3.18536   1.50917  -1.50505
N     3.32998  -0.12063   0.08318
C     4.72894  -0.43655  -0.11529
C     0.27170   0.73474  -1.48133
O    -0.95226   0.90975  -1.41176
N     0.84467   0.27915  -2.61890
C     0.05942   0.04761  -3.81469
C     0.36945  -1.17020   0.90236
O     1.36564  -1.07653   1.84731
C     1.57516  -2.19674   2.71980
C     0.59633  -2.05525  -0.21752
O     1.67356  -2.66339  -0.35462
C    -0.50777  -2.25097  -1.20317
C    -0.15150  -3.12132  -2.36886
C    -1.72292  -1.67551  -0.99879
C    -2.89972  -1.77922  -1.92054
C    -1.99456  -0.90252   0.24490
O    -3.15197  -0.58075   0.51927
C    -0.89490  -0.61473   1.22719
O    -1.29605  -0.65761   2.55886
C    -1.88542  -1.88815   2.98311
H    -3.60979   2.69344  -1.25185
H    -3.65832   3.96967  -0.00933
H    -4.74617   2.56048   0.12385
H    -3.02691   1.24577   0.96653
H     0.01098   1.34205   3.39996
H    -1.68868   1.70407   3.04465
H    -0.48261   2.99749   2.92022
H     2.14072   1.30232   2.49469
H     2.78155   2.29391   1.14457
H     1.53976   2.96485   2.20262
H     2.79355  -0.64801   0.78080
H     4.86184  -1.52724  -0.08043
H     5.05647  -0.06193  -1.09316
H     5.35976   0.01979   0.66569
H     1.85091   0.36388  -2.72366
H    -0.87510  -0.46830  -3.56593
H    -0.19638   0.99217  -4.32576
H     0.63979  -0.57812  -4.50429
H     0.83395  -2.19562   3.53213
H     1.52618  -3.14449   2.16599
H     2.58038  -2.07614   3.14554
H     0.82657  -2.82919  -2.77682
H    -0.04949  -4.16971  -2.04023
H    -0.89669  -3.08525  -3.17039
H    -3.73050  -2.31152  -1.42966
H    -2.66072  -2.29857  -2.85447
H    -3.27193  -0.77158  -2.16288
H    -2.91756  -1.98693   2.61225
H    -1.29739  -2.75637   2.64316
H    -1.89782  -1.86712   4.08143
