38
Generated by autodE on: 2022-10-08. E = -1196.862017 Ha
C     4.04195   0.57419  -1.06921
C     2.81681   1.23049  -0.48172
O     2.85406   2.34730   0.00134
C     1.45181   0.54350  -0.82483
C     1.34637   0.56963  -2.30986
N     1.20705   0.62236  -3.46229
C     1.37761  -0.92675  -0.32541
C     2.15871  -1.12361   0.99706
O     2.08712  -2.25019   1.53215
O     2.82224  -0.13729   1.41762
C    -0.13844  -1.13491  -0.19002
C    -0.60221  -2.42457   0.51357
O    -0.37461  -3.48592  -0.11840
O    -1.19298  -2.31912   1.61775
C    -0.63755   0.22421   0.36732
C    -0.45765   0.33891   1.84349
N    -0.24198   0.58344   2.95820
C    -2.10397   0.45069  -0.01330
C    -3.14556   0.31763   0.91036
C    -4.47528   0.47248   0.50344
C    -4.77412   0.76583  -0.82889
C    -3.73436   0.90193  -1.75602
C    -2.40844   0.74430  -1.35088
N     0.27421   1.16764  -0.26156
C     0.03604   2.59160  -0.22443
H     4.90830   0.79180  -0.43070
H     3.93568  -0.50941  -1.20528
H     4.22472   1.02886  -2.05794
H     1.78743  -1.62974  -1.06243
H    -0.54416  -1.19368  -1.21023
H    -2.92457   0.08594   1.95314
H    -5.27906   0.36460   1.23552
H    -5.81233   0.89070  -1.14536
H    -3.95700   1.13429  -2.80014
H    -1.59866   0.85423  -2.07542
H     0.34536   3.06273   0.72531
H    -1.03550   2.79656  -0.37416
H     0.58291   3.08287  -1.04020
