28
Generated by autodE on: 2022-10-08. E = -741.767445 Ha
C     3.84924   0.77830   1.10487
C     2.36945   0.61105   0.84903
O     1.53137   1.07561   1.63107
C     1.99441  -0.15332  -0.32974
C     2.98848  -0.75215  -1.13233
N     3.83543  -1.22011  -1.78826
N     0.66768  -0.52986  -0.53414
C     0.40978  -1.90291  -1.00503
C    -0.33350   0.30931  -0.26511
C    -0.07044   1.71214  -0.32365
N     0.04980   2.86419  -0.43415
C    -1.71188  -0.10187   0.02374
C    -2.78304   0.69462  -0.42992
C    -4.09687   0.33146  -0.14387
C    -4.35987  -0.81599   0.61233
C    -3.30105  -1.59769   1.08772
C    -1.98404  -1.24680   0.80027
H     4.33052   1.27824   0.24936
H     3.98936   1.38340   2.00934
H     4.34278  -0.19740   1.23473
H     1.08870  -2.09828  -1.84483
H     0.61745  -2.62095  -0.20145
H    -0.62290  -1.99262  -1.35088
H    -2.58114   1.59219  -1.01746
H    -4.91990   0.94789  -0.51112
H    -5.39070  -1.09565   0.84061
H    -3.50225  -2.48168   1.69635
H    -1.16632  -1.84503   1.20237
