28
Generated by autodE on: 2022-10-13. E = -741.767408 Ha
C     3.87098   0.91980   0.89195
C     2.41091   0.55361   0.76150
O     1.69295   0.43007   1.76088
C     1.89681   0.39855  -0.59014
C     2.72974   0.65958  -1.69882
N     3.44911   0.86534  -2.59697
N     0.52819   0.26054  -0.81349
C    -0.06171   1.00395  -1.94180
C    -0.22989  -0.48141  -0.00505
C     0.38735  -1.55821   0.70096
N     0.80480  -2.50029   1.24161
C    -1.67744  -0.31056   0.16340
C    -2.49733  -1.44350   0.33985
C    -3.86963  -1.29278   0.52515
C    -4.43840  -0.01474   0.55622
C    -3.62705   1.11553   0.40681
C    -2.25479   0.97457   0.21350
H     4.12679   0.99573   1.95620
H     4.08764   1.87633   0.39150
H     4.50008   0.15082   0.41603
H    -1.06899   0.63390  -2.14830
H    -0.07715   2.07816  -1.71750
H     0.57246   0.82951  -2.82042
H    -2.05629  -2.44184   0.31735
H    -4.49865  -2.17688   0.64735
H    -5.51382   0.10126   0.70790
H    -4.06456   2.11497   0.45241
H    -1.62647   1.86181   0.13032
