10
Generated by autodE on: 2022-10-08. E = -455.046599 Ha
O    -1.01802  -0.94829  -0.74643
C    -1.56429   0.06093  -0.21833
O    -2.80029   0.32569  -0.25129
C    -0.69264   1.04875   0.52009
C     0.63818   0.95399   0.67841
C     1.55702  -0.14034   0.16821
O     2.07972   0.03983  -0.96202
O     1.78951  -1.09083   0.95942
H    -1.22649   1.90287   0.95252
H     1.15376   1.74429   1.24173
