38
Generated by autodE on: 2022-10-08. E = -1196.790526 Ha. Imaginary frequency = -356.6 cm-1
C     3.79450   1.16679   0.71713
C     2.29690   1.29992   0.82943
O     1.75415   1.59216   1.88860
C     1.51366   1.18133  -0.42635
C     2.22517   1.56145  -1.60336
N     2.84086   1.81213  -2.56160
C     1.41889  -1.07838  -0.87598
C     2.47803  -1.73789  -0.00264
O     3.27902  -2.46577  -0.65068
O     2.52050  -1.50914   1.23051
C     0.03045  -1.29940  -0.81639
C    -0.66240  -2.41670  -0.04662
O    -1.88264  -2.58878  -0.32209
O     0.00383  -3.09465   0.77633
C    -0.71069   0.53802   0.20523
C    -0.39007   0.02844   1.51270
N    -0.33051  -0.46327   2.56519
C    -2.19664   0.67825   0.03076
C    -2.98513   1.08852   1.11971
C    -4.36527   1.24618   0.98112
C    -4.98068   0.98448  -0.24544
C    -4.20629   0.56541  -1.33210
C    -2.82710   0.41262  -1.19755
N     0.13479   1.41482  -0.44143
C    -0.38922   2.19156  -1.57412
H     4.19636   0.84461   1.68591
H     4.10568   0.46887  -0.07080
H     4.21291   2.15927   0.47647
H     1.80613  -0.81349  -1.86174
H    -0.51050  -1.02614  -1.72512
H    -2.51510   1.29587   2.08250
H    -4.95902   1.57554   1.83666
H    -6.06108   1.10354  -0.35491
H    -4.67951   0.35130  -2.29291
H    -2.24110   0.07989  -2.05290
H    -0.44208   1.58463  -2.49055
H     0.27170   3.04819  -1.74388
H    -1.38600   2.57079  -1.33170
