26
Generated by autodE on: 2022-10-06. E = -668.622176 Ha
C     3.71724   0.22468   0.03847
N     2.32841   0.40489   0.40187
C     1.34618  -0.30274  -0.22036
O     1.61169  -1.26479  -0.97641
C    -0.01904   0.11540   0.03799
O    -1.02691  -0.58760  -0.64807
C    -1.19711  -1.85381  -0.57422
C    -2.19774  -2.41110  -1.50396
C    -0.48945  -2.69268   0.40300
C    -0.42642   1.38097   0.54490
O     0.32326   2.20917   1.08370
O    -1.76123   1.61363   0.42328
C    -2.23138   2.86819   0.91662
H     4.00770  -0.83349   0.11684
H     3.93571   0.55422  -0.99358
H     4.34425   0.80709   0.72627
H     2.03075   1.26610   0.85849
H    -2.66517  -1.62507  -2.10907
H    -1.69541  -3.14374  -2.16018
H    -2.95435  -2.97368  -0.93281
H    -1.07376  -3.59612   0.61869
H     0.49070  -2.98122  -0.01316
H    -0.28241  -2.10579   1.31378
H    -3.31358   2.87865   0.73602
H    -2.03305   2.97042   1.99447
H    -1.75792   3.70813   0.38566
