13
Generated by autodE on: 2022-10-06. E = -245.298502 Ha
C     1.66990   0.97193   0.42901
N     0.84044  -0.21983   0.38123
C    -0.40423  -0.24470  -0.10096
N    -0.97095   0.87003  -0.56754
N    -1.08515  -1.39488  -0.12218
H     2.64205   0.69589   0.85244
H     1.22221   1.75122   1.06636
H     1.83551   1.38696  -0.57798
H     1.21933  -1.09060   0.74040
H    -0.47138   1.75132  -0.57966
H    -1.90886   0.84220  -0.95241
H    -0.67900  -2.23890   0.26677
H    -2.04845  -1.41550  -0.43816
