39
Generated by autodE on: 2022-10-06. E = -913.893928 Ha. Imaginary frequency = -257.3 cm-1
C     1.98377  -3.07526   1.04854
N     1.44804  -1.73244   1.08520
C     1.43784  -0.93615  -0.02073
O     2.01600  -1.30083  -1.06878
C     0.71738   0.31789   0.09108
C     1.08695   1.45388  -0.69823
O     1.47974   1.42511  -1.86703
O     0.96273   2.63830  -0.03189
C     1.09018   3.82338  -0.81372
O     0.01419   0.48653   1.30202
C    -1.29993   0.80070   1.30938
C    -1.73298   2.14810   0.78452
C    -1.91010   0.40701   2.62797
N    -2.10122  -0.30126   0.13781
C    -1.36980  -0.85305  -0.95540
N    -1.33178  -0.17102  -2.10617
N    -1.03880  -2.13256  -0.89039
C    -1.33315  -3.04402   0.21060
H     1.63636  -3.62272   0.15803
H     3.08715  -3.08220   1.03104
H     1.65169  -3.61646   1.94401
H     0.90452  -1.43670   1.88700
H     0.36264   3.83407  -1.64036
H     0.89050   4.66176  -0.13434
H     2.10372   3.91886  -1.23174
H    -2.82321   2.24352   0.88285
H    -1.44282   2.31876  -0.25758
H    -1.25404   2.91642   1.40696
H    -1.61472  -0.61622   2.89924
H    -3.00438   0.49344   2.59758
H    -1.53138   1.10076   3.39377
H    -2.49679  -1.04620   0.72215
H    -2.89274   0.25106  -0.21547
H    -0.71068  -0.53179  -2.82892
H    -1.36287   0.84455  -2.05330
H    -0.43200  -2.47284  -1.63493
H    -1.01148  -2.63326   1.17600
H    -2.40914  -3.27711   0.24492
H    -0.78070  -3.97191   0.03163
