40
Generated by autodE on: 2022-10-26. E = -973.430750 Ha
C     1.41060  -1.87002  -2.95700
N     1.10567  -0.83105  -1.99300
C     1.91154  -0.61716  -0.93055
O     3.04474  -1.13171  -0.89403
C     1.45691   0.36165   0.09675
C     2.43044   1.10617   0.93620
O     2.06648   1.78769   1.91183
N     3.73715   0.99314   0.60453
C     4.76223   1.54075   1.46608
N     0.13346   0.63230   0.26957
C    -0.29681   2.03254   0.51081
C    -0.84764  -0.30805   0.19926
C    -0.55721  -1.70356   0.51444
C    -1.74636  -2.61035   0.73787
O     0.59183  -2.14482   0.64737
C    -2.25983   0.12729   0.00829
C    -2.78706   0.21632  -1.29025
C    -4.11355   0.60791  -1.49031
C    -4.92835   0.90683  -0.39418
C    -4.41225   0.81497   0.90265
C    -3.08529   0.42878   1.10306
H     2.38203  -1.68889  -3.44027
H     1.44685  -2.86446  -2.48097
H     0.62945  -1.87558  -3.72725
H     0.15520  -0.47997  -1.97192
H     3.96748   0.24248  -0.04770
H     5.74164   1.38857   0.99510
H     4.77147   1.06178   2.46120
H     4.60912   2.61941   1.61961
H    -0.70234   2.14017   1.52309
H     0.54893   2.70402   0.36387
H    -1.07895   2.26658  -0.22069
H    -2.38138  -2.25403   1.56222
H    -1.38231  -3.62110   0.96243
H    -2.37686  -2.63617  -0.16471
H    -2.15074  -0.02344  -2.14581
H    -4.51174   0.67591  -2.50532
H    -5.96638   1.20992  -0.55006
H    -5.04519   1.04707   1.76233
H    -2.68018   0.35932   2.11503
