40
Generated by autodE on: 2022-10-23. E = -973.434416 Ha
C    -3.16933  -3.21893   1.40172
N    -2.17291  -2.28538   0.91967
C    -2.52946  -1.16027   0.23398
O    -3.74457  -0.93675   0.00273
C    -1.46510  -0.25546  -0.15441
C    -1.67770   1.16523  -0.41933
O    -0.72370   1.97443  -0.54436
N    -2.95690   1.57902  -0.55850
C    -3.28797   2.94306  -0.89869
N    -0.13788  -0.70372  -0.23959
C     0.13107  -1.87467  -1.10153
C     0.85890   0.02155   0.23426
C     0.61498   0.97517   1.38611
C     1.47041   2.20883   1.45538
O    -0.16696   0.67685   2.27459
C     2.23535  -0.11821  -0.27124
C     2.51607   0.06707  -1.63729
C     3.82750  -0.02827  -2.10207
C     4.87012  -0.31205  -1.21320
C     4.59865  -0.48977   0.14747
C     3.29025  -0.38462   0.62013
H    -2.66124  -4.10708   1.79963
H    -3.79884  -2.78789   2.20028
H    -3.83512  -3.53246   0.58423
H    -1.24489  -2.32908   1.32553
H    -3.66650   0.84455  -0.52228
H    -2.69400   3.64814  -0.29798
H    -4.35307   3.11583  -0.69452
H    -3.10008   3.17257  -1.96289
H     0.21729  -1.55030  -2.14625
H     1.05398  -2.37165  -0.78291
H    -0.71117  -2.56587  -1.01473
H     1.78726   2.55049   0.46278
H     2.37328   1.98291   2.04672
H     0.91107   2.99728   1.97699
H     1.70464   0.30886  -2.32576
H     4.03765   0.12521  -3.16289
H     5.89598  -0.38908  -1.58054
H     5.40990  -0.71017   0.84471
H     3.07832  -0.52533   1.68230
