23
Generated by autodE on: 2022-10-21. E = -459.837654 Ha
C     1.62165   1.55646  -1.00276
C     1.07756   0.36293  -0.26349
C    -0.37724   0.19954  -0.11362
C    -1.19909   1.33801   0.04619
C    -2.58634   1.22336   0.14169
C    -3.20054  -0.03111   0.06979
C    -2.40585  -1.16938  -0.10293
C    -1.01769  -1.05986  -0.18798
N     1.93401  -0.51025   0.28534
C     3.37579  -0.31417   0.03555
N     1.69992  -1.54580   1.06986
H     2.14607   2.27093  -0.34294
H     2.33420   1.26772  -1.79228
H     0.80437   2.09779  -1.49418
H    -0.74133   2.32705   0.10964
H    -3.19200   2.12295   0.27693
H    -4.28660  -0.12102   0.14558
H    -2.87072  -2.15564  -0.17803
H    -0.42617  -1.96373  -0.34084
H     3.70398   0.64722   0.45147
H     3.89930  -1.13475   0.53239
H     3.58301  -0.32855  -1.04157
H     0.69316  -1.55096   1.25667
