21
Generated by autodE on: 2022-10-21. E = -2961.019894 Ha
C     2.65095  -0.25247  -0.89283
O     1.50798  -0.74187  -1.59192
C     0.29440  -0.69077  -1.01539
C    -0.20413  -0.24835   0.16263
Br    0.61268   0.66184   1.61672
C    -1.72428  -0.32740   0.07034
C    -2.17103   0.77724  -0.93655
C    -1.58891   0.25927  -2.28488
C    -0.89974  -1.08176  -1.87353
C    -1.87565  -1.59240  -0.79785
H     3.51105  -0.42999  -1.55155
H     2.79945  -0.79393   0.05380
H     2.56256   0.82538  -0.69040
H    -2.24460  -0.31191   1.03602
H    -3.26903   0.84579  -0.97226
H    -1.78026   1.76383  -0.64896
H    -2.38464   0.06299  -3.01895
H    -0.87190   0.95530  -2.74348
H    -0.64710  -1.74961  -2.70713
H    -1.52579  -2.50446  -0.29323
H    -2.89864  -1.73960  -1.17758
