44
Generated by autodE on: 2022-10-21. E = -3420.838696 Ha. Imaginary frequency = -351.9 cm-1
C    -0.38612  -2.72959  -0.36108
O     0.56257  -1.71425  -0.65181
C     0.56172  -0.62412   0.18598
C     0.51938  -0.84372   1.70010
C     1.86502  -1.55614   2.04766
C     2.92287  -0.43282   1.83283
C     2.06100   0.77628   1.36168
C     0.80818   0.56896   2.23216
C     1.49793   0.42325  -0.00325
Br    2.74259   0.34476  -1.47873
N     0.31951   2.14430  -0.69750
N    -0.89716   1.76478  -0.33572
C    -1.56031   2.68012   0.59898
C    -1.36104   0.50225  -0.63282
C    -1.12820   0.04863  -2.05862
C    -2.60900   0.02312   0.01913
C    -2.77214   0.04192   1.42082
C    -3.92591  -0.45942   2.02367
C    -4.95473  -1.00068   1.24630
C    -4.81225  -1.03045  -0.14390
C    -3.65778  -0.52863  -0.74753
H    -0.37134  -3.43066  -1.20721
H    -0.12318  -3.27983   0.55815
H    -1.40141  -2.32015  -0.24859
H    -0.37636  -1.34612   2.08505
H     1.84959  -1.90359   3.09169
H     2.03732  -2.43008   1.40414
H     3.43885  -0.18162   2.77214
H     3.68800  -0.69969   1.09036
H     2.55822   1.75252   1.42294
H     1.04085   0.57106   3.30756
H     0.01830   1.29541   2.03845
H     0.54040   1.70309  -1.58830
H    -1.27708   3.69632   0.30247
H    -1.26192   2.52855   1.64501
H    -2.64750   2.57083   0.52286
H    -1.75122   0.64848  -2.74661
H    -1.40276  -1.00277  -2.19089
H    -0.08506   0.13847  -2.37996
H    -1.98085   0.43474   2.05466
H    -4.01605  -0.43493   3.11244
H    -5.85589  -1.39774   1.71933
H    -5.60765  -1.44572  -0.76778
H    -3.57786  -0.56380  -1.83400
