24
Generated by autodE on: 2022-06-29. E = -555.972303 Ha
C     4.34881   0.35557   0.42350
C     2.93951   0.65946   0.85348
O     2.59330   1.73600   1.34551
C     1.99679  -0.43973   0.79713
N     1.12738  -0.74766  -0.00101
C     0.10581  -1.05867  -0.71258
C     0.24181  -2.08977  -1.79652
C    -1.17495  -0.38904  -0.42526
C    -2.35826  -0.81765  -1.05824
C    -3.57642  -0.19440  -0.77997
C    -3.63784   0.86580   0.12896
C    -2.46559   1.30427   0.75747
C    -1.24601   0.68919   0.48299
H     4.85997   1.29567   0.17225
H     4.36898  -0.33754  -0.43142
H     4.88536  -0.12431   1.25934
H    -0.08402  -1.68266  -2.76682
H    -0.38886  -2.96757  -1.57940
H     1.28410  -2.42258  -1.88372
H    -2.33188  -1.64748  -1.76552
H    -4.48450  -0.54264  -1.27780
H    -4.59180   1.35307   0.34302
H    -2.50134   2.13868   1.46191
H    -0.33584   1.05716   0.96148
