27
Generated by autodE on: 2022-06-29. E = -1178.466965 Ha
C     2.49679  -3.87846  -1.14974
N     2.12296  -2.47616  -1.18575
C     1.11857  -2.00485  -0.44366
O     0.44717  -2.69294   0.32730
C     0.84075  -0.48623  -0.48129
Cl    1.42463   0.28116  -2.05861
C    -0.56899  -0.17431  -0.34349
C    -1.58448   0.38820   0.00072
C    -2.30910   1.37014   0.81279
F    -2.87042   0.73699   1.89675
F    -3.35488   1.93599   0.13520
C    -1.34313   2.45202   1.28194
C    -0.03815   1.94237   1.92366
C     1.17843   1.66303   0.99666
C     1.56389   0.19940   0.71145
H     2.69366  -4.20143  -0.11668
H     3.40528  -4.01699  -1.74754
H     1.69825  -4.51601  -1.56162
H     2.59420  -1.85058  -1.83105
H    -1.91050   3.06185   2.00306
H    -1.12408   3.08772   0.41016
H     0.27047   2.72365   2.63351
H    -0.25792   1.05641   2.54261
H     1.06465   2.20511   0.04352
H     2.06111   2.10671   1.48071
H     1.35052  -0.42492   1.59373
H     2.64243   0.12005   0.51030
