51
Generated by autodE on: 2022-06-29. E = -1734.449433 Ha. Imaginary frequency = -109.6 cm-1
C   -10.18898  -3.31626  -3.88232
N    -9.27811  -3.85970  -2.89337
C    -8.13356  -3.25990  -2.55176
O    -7.70970  -2.22405  -3.07325
C    -7.25030  -3.96517  -1.49631
Cl   -8.28521  -4.97352  -0.33424
C    -6.24711  -4.94687  -2.15602
C    -5.31048  -4.38865  -3.24000
C    -4.35628  -3.21858  -2.93053
C    -3.52616  -3.30873  -1.63195
C    -4.01022  -2.33314  -0.56530
F    -3.32830  -2.54117   0.61201
F    -3.67901  -1.05120  -0.95081
C    -5.46039  -2.44545  -0.35864
C    -6.50379  -2.98758  -0.71079
C    -8.28457  -1.63930   0.32889
C    -9.73793  -1.73782   0.25600
C   -10.37134  -0.99026  -0.88762
O   -10.36377  -2.43654   1.04647
N    -7.50303  -0.86742   0.85201
C    -6.35755  -0.31636   1.09770
C    -5.68821  -0.58413   2.41582
C    -5.86280   0.71638   0.16888
C    -6.43749   0.87955  -1.10803
C    -5.91916   1.81319  -2.00182
C    -4.82542   2.60978  -1.63869
C    -4.25690   2.46241  -0.37054
C    -4.76920   1.52460   0.52791
H   -10.99751  -2.73725  -3.40754
H   -10.63728  -4.13512  -4.46159
H    -9.63608  -2.65535  -4.56063
H    -9.57620  -4.66231  -2.34726
H    -6.83274  -5.76420  -2.60255
H    -5.66019  -5.38257  -1.33419
H    -5.90716  -4.10605  -4.12214
H    -4.70267  -5.25363  -3.55524
H    -3.66404  -3.14804  -3.78317
H    -4.92069  -2.27451  -2.93476
H    -3.56663  -4.31709  -1.19327
H    -2.46660  -3.07219  -1.81505
H   -11.34948  -1.43358  -1.12137
H    -9.72693  -0.98143  -1.77781
H   -10.51742   0.05712  -0.57135
H    -6.15563  -1.44390   2.91304
H    -4.62275  -0.80306   2.25707
H    -5.75715   0.29054   3.08405
H    -7.27744   0.25316  -1.41229
H    -6.36881   1.91923  -2.99189
H    -4.42076   3.34141  -2.34177
H    -3.40475   3.08001  -0.07705
H    -4.30563   1.41502   1.50872
