38
Generated by autodE on: 2022-06-17. E = -768.657369 Ha. Imaginary frequency = -362.9 cm-1
C     4.69817   2.13659   0.76321
N     3.55676   1.28041   1.02514
C     2.47319   1.28038   0.22989
O     2.36747   1.95634  -0.80599
C     1.41397   0.31349   0.55299
N     0.31114   0.44194   1.06309
C    -0.84740  -0.17789   1.24579
C    -1.15713  -0.71017   2.61631
C    -1.90212   0.08068   0.26377
C    -1.62688   0.77642  -0.93638
C    -2.61657   0.95513  -1.90048
C    -3.90851   0.45431  -1.69542
C    -4.19694  -0.22577  -0.50802
C    -3.21076  -0.40798   0.46309
C     0.23157  -2.29494   0.14466
C    -0.80488  -2.57931  -0.90480
C     1.48930  -1.80216  -0.13997
C     1.97505  -1.55510  -1.54918
H     4.47149   3.19658   0.96543
H     5.52996   1.82656   1.40732
H     5.00969   2.04959  -0.28802
H     3.54056   0.71217   1.86677
H    -1.71312  -1.65620   2.54516
H    -1.77781  -0.00714   3.20012
H    -0.22780  -0.89760   3.17125
H    -0.62836   1.18246  -1.10807
H    -2.37912   1.49514  -2.82047
H    -4.68313   0.59810  -2.45208
H    -5.20180  -0.61804  -0.33277
H    -3.45881  -0.94478   1.37938
H     0.06358  -2.72518   1.13557
H    -0.87379  -1.77282  -1.65216
H    -0.57438  -3.50823  -1.46212
H    -1.80600  -2.70445  -0.46651
H     2.27183  -1.96350   0.60878
H     2.91570  -0.98413  -1.55960
H     1.23836  -0.99651  -2.14668
H     2.16255  -2.50931  -2.07548
