30
Generated by autodE on: 2022-05-29. E = -888.473235 Ha
C     4.06157  -1.38391   0.47208
N     2.73398  -0.94054   0.09707
C     2.42480   0.32822  -0.16198
O     3.18000   1.29781  -0.11399
C     0.91468   0.55373  -0.49515
C     0.83402   1.61265  -1.52157
N     0.73510   2.42655  -2.34128
N     0.22058  -0.66926  -0.89434
C    -1.03896  -0.79882  -0.17724
C    -1.19215  -2.16614   0.35580
N    -1.31228  -3.24521   0.76298
C    -2.26678  -0.45024  -1.11092
C    -3.63865  -0.53900  -0.52876
O    -2.02037  -0.09761  -2.24076
C    -0.90280   0.22973   0.94463
C    -1.81405   0.32257   2.02900
N    -2.56462   0.38612   2.91535
C     0.17839   1.01472   0.76533
C     0.63965   2.15108   1.59553
H     4.54429  -1.93290  -0.35189
H     4.67497  -0.50981   0.72160
H     4.00530  -2.04668   1.34755
H     1.98759  -1.61961  -0.04233
H     0.06265  -0.72116  -1.90128
H    -3.82212   0.37369   0.06431
H    -3.74145  -1.39765   0.14970
H    -4.38092  -0.58622  -1.33586
H     0.73454   3.05820   0.97681
H    -0.05700   2.34839   2.42049
H     1.63913   1.94226   2.00856
