22
Generated by autodE on: 2022-05-29. E = -679.411760 Ha
C     4.51431  -0.33840   0.17323
N     3.22535   0.32782   0.13109
C     2.08381  -0.36914   0.08854
O     2.02229  -1.60506   0.09348
C     0.80757   0.40961   0.03195
C     0.75836   1.82133   0.01844
N     0.78792   2.98672   0.01177
N    -0.27400  -0.35375  -0.00270
C    -1.59553  -0.15170  -0.06253
C    -2.17008   1.13747  -0.11639
N    -2.69158   2.17940  -0.16297
C    -2.40396  -1.38972  -0.07394
C    -3.89371  -1.25019  -0.13734
O    -1.82435  -2.47184  -0.02964
H     4.57139  -1.02587   1.03073
H     5.29924   0.42041   0.27015
H     4.69078  -0.92047  -0.74515
H     3.19890   1.34300   0.11449
H    -0.03139  -1.36876   0.02085
H    -4.18382  -0.69009  -1.04109
H    -4.35997  -2.24284  -0.14632
H    -4.25499  -0.67321   0.72957
