32
Generated by autodE on: 2022-06-23. E = -823.117417 Ha
C     0.13687   0.22047   1.90013
N    -0.02144   0.09393   0.45194
C    -1.18400   0.11168  -0.19429
C    -2.52648   0.40540   0.27460
C    -2.78015   1.28809   1.34485
C    -4.09223   1.54813   1.73879
C    -5.16506   0.94664   1.07335
C    -4.92087   0.08452  -0.00189
C    -3.61495  -0.18511  -0.40296
O    -0.98917  -0.24175  -1.46590
C     0.39975  -0.51836  -1.68030
O     0.77371  -0.86825  -2.79689
C     1.00636  -0.27243  -0.43508
C     2.43075  -0.33622  -0.13574
C     3.24050  -1.24518  -0.85501
C     4.61421  -1.31672  -0.62879
C     5.22139  -0.49275   0.32552
C     4.43482   0.41641   1.03961
C     3.06100   0.50395   0.80902
H     0.35491   1.25745   2.18542
H    -0.78233  -0.11178   2.39378
H     0.96271  -0.42624   2.21471
H    -1.96078   1.79826   1.84936
H    -4.27688   2.23692   2.56593
H    -6.19040   1.15503   1.38675
H    -5.75458  -0.38423  -0.52914
H    -3.42509  -0.86145  -1.23731
H     2.77813  -1.89910  -1.59493
H     5.21518  -2.03074  -1.19755
H     6.29688  -0.55472   0.50643
H     4.89601   1.07793   1.77719
H     2.48317   1.25149   1.35203
