33
Generated by autodE on: 2022-10-07. E = -1026.027673 Ha
C     1.12318   4.25433  -0.23639
N     1.49739   2.87892   0.01899
C     0.65538   1.86753  -0.23992
O    -0.51378   2.01880  -0.62880
C     1.21477   0.50012  -0.10415
O     0.43418  -0.53849  -0.15891
C    -0.85188  -0.73893   0.00273
C    -1.21757  -2.12729  -0.30332
O    -0.43594  -2.94089  -0.76980
O    -2.49387  -2.39597  -0.01467
C    -2.94806  -3.72752  -0.29384
C    -1.65737   0.22516   0.78939
O    -1.20327   0.78771   1.76910
O    -2.90861   0.34055   0.36598
C    -3.76492   1.20750   1.12916
C     2.65770   0.16637  -0.23724
O     3.52927   1.04769  -0.12747
N     2.95455  -1.12637  -0.44811
C     4.32809  -1.57306  -0.56704
H     0.11737   4.45162   0.16044
H     1.11451   4.48477  -1.31548
H     1.84192   4.91831   0.25947
H     2.47788   2.61667   0.15353
H    -2.38231  -4.45976   0.30042
H    -4.00722  -3.74814  -0.01326
H    -2.83260  -3.95694  -1.36309
H    -3.84796   0.85051   2.16547
H    -3.36494   2.23137   1.12152
H    -4.74198   1.17459   0.63454
H     2.19885  -1.79928  -0.53489
H     4.83283  -1.09222  -1.42005
H     4.33328  -2.65886  -0.71773
H     4.90150  -1.33572   0.34291
