39
Generated by autodE on: 2022-05-30. E = -1159.569189 Ha
C     4.06348   0.18628   1.65538
O     2.63805   0.03908   1.82226
C     1.94631  -0.30016   0.75730
O     2.39441  -0.56243  -0.33439
C     0.41843  -0.36301   1.01694
C     0.11558  -0.17344   2.44386
N    -0.13608  -0.04325   3.56672
O    -0.00530  -1.68240   0.68064
C    -0.62144  -1.73398  -0.59805
C     0.32253  -2.26702  -1.61219
N     1.02524  -2.70404  -2.42247
C    -1.73638  -2.70039  -0.49546
N    -2.60111  -3.46541  -0.40876
C    -1.08223  -0.28913  -0.97047
C    -2.57910   0.01372  -0.74545
C    -2.84113   1.43258  -1.29609
C    -2.19346   2.35303  -0.22221
C    -1.57138   1.34927   0.77007
C    -2.63908   0.24074   0.77624
C    -0.36496   0.63145   0.07171
C     0.59553   1.67933  -0.47026
O     1.31629   2.32244   0.26743
O     0.53069   1.84506  -1.78066
C     1.35711   2.87853  -2.34689
H     4.26506   0.98655   0.92991
H     4.45224   0.45252   2.64379
H     4.50059  -0.75902   1.30674
H    -0.77296  -0.07288  -1.99608
H    -3.24320  -0.75221  -1.16284
H    -2.40110   1.56958  -2.29390
H    -3.92236   1.61075  -1.37689
H    -1.47112   3.06868  -0.63747
H    -2.95528   2.93871   0.31081
H    -1.28954   1.79209   1.73161
H    -3.61667   0.61441   1.11271
H    -2.38236  -0.64150   1.37924
H     2.41655   2.65432  -2.16069
H     1.09918   3.85165  -1.90663
H     1.14591   2.87392  -3.42161
