23
Generated by autodE on: 2022-05-30. E = -500.847961 Ha
C     3.35168  -0.99663  -0.61624
O     2.00365  -0.84900  -0.15614
C     1.43209   0.35633  -0.33413
O     2.01892   1.29307  -0.85369
C     0.05292   0.39059   0.16358
C    -0.83501   1.37808  -0.08723
C    -2.17681   0.92080   0.43435
C    -2.63293  -0.22005  -0.54232
C    -1.62029  -1.36286  -0.24664
C    -0.70284  -0.73785   0.85205
C    -1.73502   0.08177   1.65521
H     3.63769  -2.03127  -0.39323
H     3.41490  -0.81145  -1.69873
H     4.01939  -0.29774  -0.09104
H    -0.65045   2.28098  -0.67232
H    -2.92718   1.70493   0.59323
H    -2.61823   0.11087  -1.59049
H    -3.66268  -0.52092  -0.29866
H    -1.04019  -1.66657  -1.12966
H    -2.12866  -2.25520   0.14779
H    -0.08632  -1.45868   1.40075
H    -1.27684   0.68919   2.44992
H    -2.54701  -0.53118   2.07562
