39
Generated by autodE on: 2022-05-30. E = -1159.482225 Ha. Imaginary frequency = -162.6 cm-1
C     4.01221   0.78824   0.67337
O     2.66300   0.54498   1.11566
C     2.07689  -0.55054   0.65540
O     2.57312  -1.36131  -0.09700
C     0.71834  -0.70771   1.22266
C     0.39078  -0.10335   2.46428
N     0.10815   0.43484   3.45739
O    -0.05716  -1.71750   0.88443
C    -0.35933  -2.24774  -0.28783
C     0.47513  -2.33547  -1.43594
N     1.00674  -2.46517  -2.46380
C    -1.52111  -3.06746  -0.26061
N    -2.48842  -3.71480  -0.26859
C    -1.36788  -0.04902  -1.16407
C    -2.81558  -0.07809  -0.74178
C    -3.38114   1.29126  -1.26290
C    -2.68063   2.33323  -0.34595
C    -1.78402   1.44303   0.57792
C    -2.70901   0.22341   0.76674
C    -0.72866   0.87558  -0.35903
C     0.50234   1.57493  -0.77764
O     1.28261   1.16737  -1.62233
O     0.65655   2.73233  -0.12610
C     1.77284   3.55197  -0.50035
H     4.32295   1.71628   1.16398
H     4.02929   0.90060  -0.41901
H     4.66192  -0.04474   0.97570
H    -1.00740  -0.36304  -2.14373
H    -3.39183  -0.95648  -1.05465
H    -4.47258   1.30037  -1.12947
H    -3.16940   1.44316  -2.33062
H    -3.40834   2.88051   0.27042
H    -2.08524   3.06947  -0.90305
H    -1.40618   1.94472   1.47487
H    -3.67681   0.49627   1.21096
H    -2.26823  -0.59397   1.35181
H     2.71997   3.04068  -0.28423
H     1.69066   4.46383   0.10198
H     1.72522   3.79739  -1.57093
