44
Generated by autodE on: 2022-06-18. E = -917.809160 Ha
C     1.76982   2.81005  -0.65510
N     0.42896   2.27343  -0.77473
C    -0.32711   2.07136   0.32263
O    -0.01800   2.46287   1.45119
N    -1.56710   1.43821   0.10024
C    -2.10909   0.58927   1.15862
C    -1.63818  -0.83590   0.74530
C    -2.67557  -1.89795   1.10637
C    -0.29827  -1.11123   1.39962
C     0.90629  -0.84294   0.86542
C     2.17075  -1.02815   1.55486
C     3.40489  -0.80157   1.04301
C     3.66930  -0.32892  -0.35952
C     4.63605  -1.02120   1.87662
N    -1.49695  -0.64597  -0.72306
C    -0.88875  -1.52598  -1.56756
C    -0.46600  -1.00487  -2.91930
O    -0.69761  -2.69725  -1.22874
N    -1.69992   0.72107  -1.10685
C    -3.03152   0.92006  -1.69300
H     2.33711   2.29470   0.13517
H     2.29138   2.67356  -1.61030
H     1.75594   3.88572  -0.41595
H     0.14166   1.78674  -1.61851
H    -1.72123   0.89760   2.13292
H    -3.20588   0.65342   1.17057
H    -2.83181  -1.90631   2.19615
H    -2.33701  -2.89415   0.79371
H    -3.63559  -1.67678   0.61749
H    -0.36609  -1.49439   2.42371
H     0.94991  -0.44881  -0.15200
H     2.10496  -1.38293   2.59021
H     4.33268  -1.04212  -0.87969
H     4.20599   0.63560  -0.34561
H     2.76175  -0.20521  -0.96368
H     4.39346  -1.36283   2.89362
H     5.22781  -0.09136   1.95263
H     5.29999  -1.76815   1.40568
H    -1.32110  -0.63786  -3.50487
H     0.01979  -1.82428  -3.46301
H     0.23902  -0.16784  -2.80184
H    -3.84961   0.63967  -1.00833
H    -3.12550   1.97943  -1.96676
H    -3.10899   0.31419  -2.60480
