21
Generated by autodE on: 2022-06-18. E = -566.230037 Ha
C     3.15871   1.11736  -0.54062
N     2.20144   0.04726  -0.73229
C     1.17003  -0.13253   0.10743
O     0.95699   0.56001   1.10543
N     0.43452  -1.29755  -0.21061
N    -0.80203  -1.34450   0.08153
C    -1.40945  -2.69233   0.04369
N    -1.62212  -0.40616   0.41565
C    -1.40539   0.89368  -0.02260
C    -2.06215   1.92744   0.84036
O    -0.81143   1.16137  -1.06008
H     2.63618   2.06528  -0.34670
H     3.83204   0.91711   0.30973
H     3.76239   1.22260  -1.45014
H     2.35097  -0.64304  -1.46172
H    -2.09887  -2.72507  -0.81034
H    -1.97059  -2.83460   0.97443
H    -0.61219  -3.43297  -0.06043
H    -3.06208   1.60318   1.16080
H    -1.44388   2.04971   1.74617
H    -2.11481   2.88630   0.30914
