44
Generated by autodE on: 2022-06-18. E = -917.729135 Ha. Imaginary frequency = -278.9 cm-1
C     1.86042  -0.19392  -2.24775
N     0.42966  -0.12870  -2.01799
C    -0.13889   0.98345  -1.52791
O     0.46890   2.04350  -1.35775
N    -1.55960   0.96413  -1.34707
C    -1.66632   1.79136   0.70936
C    -1.45639   0.72848   1.58542
C    -2.62178   0.16655   2.36257
C    -0.13554   0.26459   1.98084
C     1.05764   0.74196   1.53552
C     2.33047   0.16856   1.89376
C     3.54608   0.55625   1.42052
C     3.75817   1.67152   0.43763
C     4.79797  -0.13816   1.87056
N    -1.77589  -1.02983  -0.24817
C    -1.21068  -2.20926  -0.50940
C    -0.90693  -3.04086   0.71052
O    -0.88613  -2.60560  -1.65500
N    -2.16675  -0.16637  -1.20015
C    -3.60145  -0.16273  -1.48965
H     2.07383  -1.04539  -2.90671
H     2.21851   0.72745  -2.72723
H     2.41606  -0.33136  -1.30526
H    -0.10458  -1.00393  -2.10104
H    -0.85720   2.45784   0.42130
H    -2.68096   2.17616   0.59164
H    -2.67817   0.68092   3.33915
H    -3.57570   0.32697   1.84245
H    -2.50261  -0.90559   2.56923
H    -0.12353  -0.58376   2.67352
H     1.06311   1.58899   0.84903
H     2.30242  -0.66848   2.60116
H     4.38230   1.32022  -0.40181
H     2.83031   2.08187   0.02221
H     4.32101   2.49359   0.91493
H     5.50788   0.58613   2.30839
H     5.31939  -0.59340   1.00965
H     4.59571  -0.92405   2.61250
H    -1.17574  -4.08858   0.51032
H     0.17883  -3.00521   0.89658
H    -1.43401  -2.68110   1.60329
H    -4.14367   0.24543  -0.62141
H    -3.78395   0.45674  -2.37474
H    -3.91849  -1.19797  -1.66718
