20
Generated by autodE on: 2022-06-18. E = -606.997761 Ha
C     4.47457   0.56489  -0.38649
O     3.11306   1.02091  -0.37354
C     2.17579   0.09775  -0.15706
O     2.39763  -1.08859   0.02777
C     0.83189   0.68124  -0.16726
N    -0.16599  -0.13794   0.03462
C    -1.50905   0.04613   0.09051
C    -2.06384   1.32820  -0.08759
N    -2.52355   2.39141  -0.23578
C    -2.28874  -1.16247   0.34253
C    -3.78279  -1.02875   0.41703
O    -1.70387  -2.24088   0.48444
H     4.62175  -0.17749  -1.18431
H     4.73765   0.11784   0.58317
H     5.08777   1.45316  -0.57537
H     0.65677   1.74404  -0.33307
H     0.08135  -1.13447   0.18436
H    -4.06234  -0.33305   1.22465
H    -4.23462  -2.01130   0.60191
H    -4.17610  -0.60902  -0.52290
