18
Generated by autodE on: 2022-05-31. E = -3033.822763 Ha
C     2.99236   1.65035  -0.15541
C     2.09140   0.45761   0.03091
O     2.51334  -0.69321  -0.00807
C     0.66697   0.74878   0.25666
C    -0.40558  -0.06821   0.21887
Br   -0.53506  -1.89331  -0.11539
C    -1.64790   0.84056   0.36633
C    -1.74616   1.65722  -0.94300
C    -0.70014   2.48679  -0.90164
C     0.02230   2.15474   0.42344
O    -1.10359   1.82063   1.25906
H     4.01040   1.31966  -0.39816
H     2.60469   2.30140  -0.95649
H     3.00838   2.25488   0.76666
H    -2.55838   0.37049   0.75182
H    -2.49439   1.50448  -1.71945
H    -0.35329   3.21170  -1.63693
H     0.64978   2.93177   0.86994
