54
Generated by autodE on: 2022-10-22. E = -1918.626912 Ha
C     3.87500   2.38474   2.05889
O     2.72169   1.61783   1.65338
C     2.86222   0.31271   1.63450
O     3.84027  -0.31074   1.96744
C     1.56093  -0.41220   1.16336
C     1.31056  -1.39135   2.25859
N     1.14313  -2.06895   3.18243
O     0.52395   0.51716   1.09944
C    -0.53129   0.08654   0.22967
C    -1.31110   1.33611  -0.16749
C    -2.58152   1.21801  -0.74735
C    -3.27304   2.35506  -1.16940
C    -2.71086   3.62404  -0.99895
C    -1.45122   3.74631  -0.40606
C    -0.75077   2.60859   0.00335
C    -1.46836  -0.85658   1.00447
C    -2.21007  -1.90664   0.44568
C    -3.10327  -2.64068   1.23274
C    -3.28041  -2.33431   2.58320
C    -2.56169  -1.27394   3.14318
C    -1.67389  -0.53930   2.35831
C     0.32084  -0.46241  -1.00207
O    -0.44405  -1.33989  -1.72612
C    -0.08416  -1.77663  -3.04729
O     0.82680   0.60559  -1.73456
C     0.07977   1.19392  -2.80624
C     1.64596  -1.08623  -0.28382
C     2.95824  -0.70033  -1.04529
F     4.00360  -1.41815  -0.60099
F     3.28224   0.58667  -0.88464
F     2.86894  -0.94189  -2.35652
C     1.59531  -2.63674  -0.21697
F     0.42547  -3.08065   0.24580
F     2.54790  -3.12804   0.58898
F     1.78819  -3.17579  -1.42799
H     4.17450   2.10162   3.07706
H     3.56013   3.43272   2.02367
H     4.70222   2.20368   1.35879
H    -3.03129   0.23385  -0.88144
H    -4.25809   2.24764  -1.62921
H    -3.25483   4.51418  -1.32343
H    -1.00473   4.73346  -0.26517
H     0.23995   2.70696   0.44442
H    -2.08736  -2.16142  -0.60220
H    -3.66414  -3.46093   0.77848
H    -3.97711  -2.91296   3.19427
H    -2.69364  -1.01386   4.19604
H    -1.12225   0.28853   2.80432
H    -0.80762  -1.36025  -3.76156
H    -0.14738  -2.87232  -3.06211
H     0.92562  -1.46576  -3.33006
H    -0.95238   0.83150  -2.84529
H     0.58590   0.96108  -3.75493
H     0.06722   2.28064  -2.65319
