20
Generated by autodE on: 2022-10-22. E = -982.176497 Ha
C     0.74250   3.44260  -0.18858
O     0.05209   2.23093   0.17119
C     0.67868   1.06983   0.06893
O     1.99399   1.17027   0.06226
C     2.83953   0.29045  -0.70419
C    -0.07665  -0.08007   0.00904
C    -1.53579   0.01324  -0.30303
F    -2.00197  -1.16151  -0.78451
F    -2.31559   0.31557   0.76317
F    -1.81132   0.94136  -1.23947
C     0.43805  -1.41940   0.41090
F     1.53400  -1.33221   1.19284
F     0.77483  -2.23195  -0.62129
F    -0.48317  -2.10348   1.12601
H    -0.02706   4.22306  -0.19347
H     1.51570   3.67974   0.55418
H     1.19338   3.34769  -1.18619
H     3.60544   0.92953  -1.16150
H     3.31139  -0.44448  -0.04229
H     2.25676  -0.21588  -1.48496
