16
Generated by autodE on: 2022-05-29. E = -380.198009 Ha
C     0.98318  -0.77418   2.92218
C     0.87649  -1.47606   1.60584
N     0.15023  -1.04914   0.65151
C    -0.63309  -0.65654  -0.21390
C    -0.23568   0.20725  -1.34898
O     0.22633  -0.30872  -2.37630
N    -0.50469   1.52171  -1.21978
C    -0.96042   2.15129   0.00621
H     0.37793   0.14327   2.93410
H     0.64669  -1.43582   3.73889
H     2.03360  -0.51114   3.13273
H     1.43995  -2.40096   1.43024
H    -0.24801   2.10505  -2.01232
H    -1.72627   1.52867   0.49339
H    -0.14180   2.31477   0.72669
H    -1.41216   3.12237  -0.23380
