20
Generated by autodE on: 2022-05-29. E = -1069.688678 Ha
F     2.27970   0.39017  -0.43816
C     1.50882  -0.64484  -0.07244
F     2.15273  -1.28211   0.93174
F     1.49264  -1.51407  -1.11322
C     0.13482  -0.25545   0.32711
C    -0.53094   0.90160   0.15223
Cl    0.00228   2.37436  -0.57594
C    -1.98171   0.68209   0.53255
C    -2.57020  -0.21897  -0.60293
C    -1.82495  -1.56865  -0.39843
C    -0.89388  -1.26890   0.82001
C    -1.80324  -0.35169   1.66336
H    -2.54906   1.59522   0.74529
H    -2.40315   0.22360  -1.59502
H    -3.65464  -0.32914  -0.45884
H    -2.52357  -2.37916  -0.14427
H    -1.24675  -1.88092  -1.27846
H    -0.47027  -2.15441   1.30892
H    -1.29768   0.06170   2.54776
H    -2.74791  -0.83260   1.95748
