36
Generated by autodE on: 2022-05-29. E = -1449.886145 Ha. Imaginary frequency = -212.4 cm-1
C     4.79910  -0.60421   0.96385
N     3.47530  -0.02862   1.11611
C     2.38811  -0.80071   1.28632
O     2.41593  -2.03467   1.40005
C     1.08932  -0.12057   1.23140
N     0.34703   0.37606   2.05971
C    -0.80913   0.84658   2.41462
C    -1.02769   2.30122   2.66077
C    -1.60541   0.29921  -0.05354
Cl   -2.19021   1.91339  -0.42075
C    -2.59312  -0.82944   0.19388
C    -3.03593  -1.32366  -1.21894
C    -1.73838  -1.97825  -1.78157
C    -0.70667  -1.75737  -0.63017
C    -1.61761  -1.95175   0.59771
C    -0.44837  -0.25199  -0.55822
C     0.49019   0.42156  -1.49735
F    -0.06098   0.61907  -2.72625
F     0.89248   1.63688  -1.07490
F     1.60492  -0.31157  -1.71591
H     5.53584   0.20762   0.93688
H     4.88108  -1.19003   0.03309
H     5.03581  -1.26848   1.80789
H     3.33892   0.96172   0.93593
H    -1.52249   0.11829   2.81526
H    -0.87784   2.55361   3.72570
H    -0.34439   2.91213   2.05341
H    -2.06410   2.56290   2.40169
H    -3.41303  -0.59278   0.88309
H    -3.39877  -0.48945  -1.83641
H    -3.85148  -2.05679  -1.12814
H    -1.40488  -1.52864  -2.72623
H    -1.87597  -3.05645  -1.95246
H     0.19598  -2.37787  -0.68284
H    -1.10617  -1.78481   1.55388
H    -2.09637  -2.94207   0.60979
