35
Generated by autodE on: 2022-10-26. E = -916.598712 Ha
C    -2.31432   0.09290   4.01458
O    -1.16348   0.69832   3.42321
C    -1.05977   0.59921   2.07140
O    -1.87554  -0.02479   1.39788
C     0.07892   1.31535   1.56849
C     0.82359   2.18761   2.37735
N     1.45164   2.92384   3.03834
N     0.40601   1.27214   0.20719
C     0.33825   0.26165  -0.64057
C     0.43826   0.56672  -2.07188
C    -0.01463   1.80170  -2.58262
C     0.12539   2.09811  -3.93751
C     0.71033   1.16891  -4.80379
C     1.15395  -0.06305  -4.30950
C     1.01677  -0.36725  -2.95717
C     0.22364  -1.12868  -0.17192
C     1.02130  -1.58236   0.89477
C     0.94654  -2.91082   1.30677
C     0.06417  -3.79637   0.67517
C    -0.73242  -3.35047  -0.38306
C    -0.64891  -2.02504  -0.81141
H    -2.23241   0.27462   5.09324
H    -2.33345  -0.98971   3.81805
H    -3.24146   0.54411   3.62943
H     0.70703   2.16430  -0.19441
H    -0.51147   2.51954  -1.92649
H    -0.23875   3.05327  -4.32162
H     0.81398   1.40144  -5.86602
H     1.61399  -0.78981  -4.98236
H     1.38013  -1.32181  -2.57566
H     1.71021  -0.89671   1.39025
H     1.58068  -3.25980   2.12465
H     0.00187  -4.83507   1.00756
H    -1.42201  -4.03720  -0.87861
H    -1.27408  -1.67517  -1.63440
