35
Generated by autodE on: 2022-10-24. E = -916.604423 Ha
C     5.42233  -0.04343   0.61899
O     4.09335  -0.56835   0.69871
C     3.10101   0.23649   0.27287
O     3.29541   1.36927  -0.16982
C     1.79184  -0.35462   0.39572
C     1.59022  -1.61224   0.98039
N     1.46550  -2.66275   1.48140
N     0.76294   0.48898   0.00282
C    -0.53607   0.33872  -0.14446
C    -1.35100   1.54005  -0.36861
C    -2.56582   1.44207  -1.07819
C    -3.33319   2.57890  -1.32561
C    -2.90886   3.83033  -0.86617
C    -1.71069   3.93822  -0.15193
C    -0.93913   2.80530   0.10104
C    -1.16065  -0.99683  -0.11037
C    -2.27583  -1.23672   0.71141
C    -2.88169  -2.49293   0.72027
C    -2.39692  -3.51214  -0.10675
C    -1.30008  -3.27310  -0.94084
C    -0.67860  -2.02481  -0.93984
H     5.68714   0.19450  -0.42196
H     5.52266   0.86267   1.23480
H     6.08158  -0.83132   1.00238
H     1.14376   1.42348  -0.19364
H    -2.89654   0.47284  -1.45297
H    -4.26675   2.48813  -1.88512
H    -3.51413   4.71912  -1.05800
H    -1.38206   4.90920   0.22483
H    -0.02775   2.90543   0.69472
H    -2.65702  -0.43712   1.34919
H    -3.73830  -2.67690   1.37237
H    -2.87717  -4.49330  -0.10350
H    -0.92514  -4.06352  -1.59461
H     0.17769  -1.84050  -1.59129
