34
Generated by autodE on: 2022-10-24. E = -831.448917 Ha
C     2.80186  -2.25523  -1.47525
O     1.44727  -2.25483  -1.92198
C     0.48120  -2.23848  -0.93006
F     0.53175  -3.46276  -0.24653
C     0.64071  -1.12721   0.02298
C     0.38180  -0.02133   0.44550
C    -0.26497   1.27400   0.60018
C    -1.22281   1.29109   1.83612
C    -0.81532   0.47331   3.02263
O    -2.22541   1.97385   1.81092
C     0.77509   2.39791   0.86037
C     0.31635   3.81336   0.68100
O     1.90549   2.10639   1.19896
C    -1.06206   1.52131  -0.71728
C    -1.90488   0.33001  -1.21975
C    -1.23161  -0.71462  -2.15482
C    -0.89787  -2.10564  -1.58152
H     3.01513  -3.13940  -0.85441
H     3.02913  -1.34245  -0.89890
H     3.43051  -2.28101  -2.37455
H     0.25968   0.59816   3.22570
H    -0.97586  -0.59280   2.79296
H    -1.41542   0.75332   3.89772
H     1.05415   4.49866   1.11734
H    -0.67559   3.97142   1.12767
H     0.22151   4.02474  -0.39681
H    -1.72439   2.37669  -0.53050
H    -0.34808   1.82410  -1.49854
H    -2.37857  -0.17934  -0.36371
H    -2.73531   0.77759  -1.78683
H    -0.32459  -0.28527  -2.61199
H    -1.92363  -0.89153  -2.99169
H    -1.64186  -2.39881  -0.82539
H    -0.92250  -2.86139  -2.38247
