69
Generated by autodE on: 2022-10-24. E = -1748.017709 Ha. Imaginary frequency = -186.4 cm-1
C    19.79638 -11.73408  -9.90996
O    20.40981 -10.75483 -10.76106
C    19.81235 -10.50720 -11.91830
O    18.79121 -11.05412 -12.28305
C    20.49085  -9.42050 -12.71737
C    20.12605  -8.09607 -12.37748
N    19.84161  -6.99460 -12.11047
N    20.77560  -9.61893 -14.04870
C    21.31792 -10.69028 -14.63475
C    21.86078 -10.50489 -15.99364
C    22.28211  -9.23400 -16.44444
C    22.76683  -9.05766 -17.73772
C    22.86655 -10.14817 -18.60977
C    22.48798 -11.41744 -18.16575
C    21.99361 -11.59710 -16.87349
C    20.93132 -12.04993 -14.14125
C    21.56946 -12.73153 -13.09763
C    21.07670 -13.96278 -12.65433
C    19.94844 -14.53023 -13.24929
C    19.31141 -13.86120 -14.29974
C    19.79797 -12.63130 -14.74022
C    23.40826 -10.14553 -13.08463
C    22.80917  -9.55359 -12.17399
C    23.03135  -8.62303 -11.03037
F    21.87509  -8.44278 -10.26119
O    24.00882  -9.13096 -10.16877
C    23.65708 -10.33112  -9.48114
C    23.47516  -7.23235 -11.51465
C    24.18752  -7.16062 -12.86684
C    25.45661  -8.03107 -13.03429
C    25.37605  -9.10987 -14.12879
C    24.72837 -10.45094 -13.69299
C    25.60071 -11.21053 -12.63801
C    27.09461 -11.12946 -12.77638
O    25.07618 -11.89279 -11.78096
C    24.67054 -11.50345 -14.85216
C    25.36551 -11.20577 -16.14486
O    24.12791 -12.57114 -14.64475
H    18.77636 -11.42456  -9.64084
H    19.76534 -12.70843 -10.41799
H    20.42910 -11.78885  -9.01679
H    20.91172  -8.74370 -14.55426
H    22.26386  -8.36832 -15.77844
H    23.08627  -8.06445 -18.06046
H    23.25320 -10.01001 -19.62177
H    22.57848 -12.28013 -18.82943
H    21.71127 -12.59572 -16.54331
H    22.45129 -12.30173 -12.63207
H    21.58463 -14.47872 -11.83652
H    19.56581 -15.49133 -12.89799
H    18.42787 -14.29510 -14.77355
H    19.28623 -12.10188 -15.54635
H    24.57974 -10.71778  -9.02965
H    23.25116 -11.08589 -10.17037
H    22.91881 -10.12629  -8.69045
H    24.10855  -6.82017 -10.71337
H    22.56413  -6.61874 -11.56254
H    24.45096  -6.10289 -13.02439
H    23.46527  -7.40572 -13.66104
H    25.72848  -8.49275 -12.07170
H    26.30138  -7.37532 -13.29375
H    24.80120  -8.71799 -14.98044
H    26.38362  -9.31835 -14.50996
H    27.40324 -11.29626 -13.81935
H    27.55985 -11.87330 -12.11721
H    27.44322 -10.12411 -12.49270
H    24.96633 -10.29231 -16.60581
H    26.43564 -11.02866 -15.95432
H    25.24512 -12.05570 -16.82680
