51
Generated by autodE on: 2022-06-04. E = -1701.537283 Ha
C    -1.47316   3.72150  -0.57378
N    -1.08600   2.33285  -0.70024
C    -1.70216   1.36856  -0.01435
O    -2.74095   1.57211   0.64004
C    -1.03145  -0.04695  -0.08919
C    -2.09943  -1.13495  -0.44677
O    -1.77917  -2.13274  -1.09900
N    -3.34120  -0.94781   0.01426
C    -4.37973  -1.93626  -0.18905
N     0.01950  -0.01183  -1.07719
C    -0.28849  -0.05192  -2.49634
C     1.34744  -0.33785  -0.62673
C     1.70285  -1.72249  -1.29763
C     2.64774  -1.75283  -2.46495
O     1.11095  -2.71919  -0.94295
C     2.34263   0.79643  -0.99452
C     3.81316   0.58265  -0.75559
O     1.91786   1.85762  -1.41397
C     1.24035  -0.39606   0.93403
Cl    2.25419  -1.76835   1.57436
C     1.67736   0.89835   1.74554
C     1.69022   0.50732   3.22097
C     0.40137   0.40925   3.56164
C    -0.37727   0.75566   2.30703
O     0.50365   1.69520   1.65938
C    -0.30594  -0.43805   1.28670
C    -0.79147  -1.74946   1.88842
H    -2.56642   3.81837  -0.62084
H    -1.02637   4.29845  -1.39379
H    -1.13003   4.14597   0.38590
H    -0.15135   2.10486  -1.04729
H    -3.52307  -0.06894   0.50364
H    -5.31231  -1.56941   0.25728
H    -4.11362  -2.89573   0.28393
H    -4.54959  -2.12642  -1.26094
H    -1.27231   0.40399  -2.66908
H     0.44954   0.53762  -3.06037
H    -0.31997  -1.07390  -2.91039
H     3.67993  -1.82793  -2.08607
H     2.43425  -2.64271  -3.07165
H     2.58247  -0.84491  -3.08097
H     4.02161  -0.29268  -0.12749
H     4.31385   0.44944  -1.72688
H     4.23107   1.49027  -0.29657
H     2.55579   1.42914   1.37198
H     2.57966   0.28809   3.80848
H    -0.03730   0.08834   4.50557
H    -1.37760   1.16928   2.44301
H    -1.85306  -1.67033   2.15815
H    -0.22272  -1.98034   2.79783
H    -0.66526  -2.58129   1.18624
