32
Generated by autodE on: 2022-10-06. E = -1009.156160 Ha
C     3.67537   1.78243  -0.09221
N     2.48082   1.23641   0.51662
C     2.26585  -0.08352   0.61182
O     3.11530  -0.94265   0.34262
C     0.88585  -0.50621   1.12518
C     1.06201  -1.28275   2.43200
O     0.10499   0.66852   1.35506
C    -1.28004   0.38616   1.18758
C    -1.96475   1.65938   0.67287
C    -1.19939   2.50463  -0.30889
O    -3.00248   2.04075   1.19774
C    -1.37163  -0.88635   0.30683
C    -2.21152  -0.78305  -0.98231
O    -2.20175  -1.79092  -1.73167
O    -2.87328   0.27194  -1.17226
C     0.09701  -1.33737   0.07216
C     0.59960  -1.11560  -1.37284
O     0.52799   0.05624  -1.84037
O     1.07311  -2.11185  -1.97169
H     3.80144   2.82787   0.21832
H     4.55529   1.20691   0.22554
H     3.62039   1.74567  -1.19407
H     1.66665   1.82900   0.64881
H     1.72430  -2.14477   2.27349
H     0.08912  -1.64817   2.79360
H     1.50297  -0.63009   3.20104
H    -1.73799   0.18512   2.17053
H    -0.53331   3.17235   0.26571
H    -1.89871   3.12964  -0.88094
H    -0.57694   1.89018  -0.97002
H    -1.86819  -1.66761   0.90083
H     0.21263  -2.40376   0.29388
