22
Generated by autodE on: 2022-10-06. E = -554.006329 Ha
C    -4.02864   0.65625  -0.09995
N    -2.91098  -0.26395  -0.14559
C    -1.63775   0.18201  -0.05433
O    -1.36959   1.38952   0.07723
C    -0.59164  -0.85314  -0.11971
C    -0.86189  -2.30773  -0.28340
O     0.65920  -0.52607  -0.03243
C     1.33550   0.60441   0.11829
C     2.75985   0.48953   0.17285
C     3.38321  -0.88548   0.05353
O     3.46064   1.50805   0.31959
H    -3.99256   1.37312  -0.93639
H    -4.96167   0.08399  -0.16455
H    -4.02999   1.23489   0.83760
H    -3.09705  -1.25419  -0.25733
H     0.08530  -2.86178  -0.30563
H    -1.41222  -2.50955  -1.21882
H    -1.47816  -2.69435   0.54702
H     0.79543   1.54301   0.19746
H     4.47595  -0.78631   0.09375
H     3.04517  -1.54093   0.87212
H     3.09252  -1.37145  -0.89122
