22
Generated by autodE on: 2022-10-13. E = -554.014143 Ha
C     2.91623   0.55551  -1.93848
N     1.77154   0.24857  -1.10901
C     1.74813  -0.76984  -0.22169
O     2.69609  -1.54564  -0.02598
C     0.49100  -0.93541   0.54481
C     0.27847  -1.99193   1.54646
O    -0.43854  -0.07581   0.28030
C    -1.65948   0.03484   0.79477
C    -2.47108   1.10172   0.30529
C    -1.88572   2.01723  -0.75154
O    -3.62502   1.26832   0.74162
H     2.66097   0.48352  -3.00776
H     3.28609   1.57430  -1.74102
H     3.71745  -0.15926  -1.71840
H     0.94123   0.82615  -1.19707
H     1.17215  -2.61837   1.63365
H    -0.58961  -2.61876   1.26723
H     0.03843  -1.54642   2.53059
H    -1.98807  -0.67402   1.55417
H    -1.59997   1.44883  -1.65086
H    -0.97666   2.51617  -0.37974
H    -2.63325   2.77487  -1.02060
