32
Generated by autodE on: 2022-10-06. E = -1009.064291 Ha. Imaginary frequency = -265.8 cm-1
C     3.73778   1.41012  -0.40777
N     2.48588   1.13878   0.27479
C     2.35746   0.00255   1.00056
O     3.31972  -0.70551   1.33248
C     0.97415  -0.38964   1.38016
C     0.75681  -1.50040   2.34352
O     0.06643   0.55061   1.21910
C    -1.23961   0.34964   1.36751
C    -2.11838   1.39666   0.90802
C    -1.52297   2.53096   0.11204
O    -3.33783   1.30505   1.10857
C    -1.20492  -1.44375  -0.36640
C    -2.40615  -0.85301  -1.09162
O    -3.51792  -1.23886  -0.63165
O    -2.25520  -0.07941  -2.07400
C     0.14697  -1.46049  -0.64340
C     0.95829  -0.63405  -1.61528
O     0.63906   0.56835  -1.84487
O     1.98591  -1.20511  -2.07554
H     3.91915   0.67955  -1.21495
H     3.69956   2.41659  -0.84393
H     4.57787   1.36279   0.29797
H     1.64573   1.41955  -0.23326
H     1.62159  -2.17252   2.32138
H    -0.15523  -2.07395   2.13212
H     0.66061  -1.08510   3.36479
H    -1.59335  -0.41593   2.05566
H    -1.18573   2.13405  -0.85723
H    -2.28776   3.30161  -0.05019
H    -0.64533   2.96458   0.61398
H    -1.53764  -2.21296   0.33746
H     0.70423  -2.31994  -0.26076
