27
Generated by autodE on: 2022-10-23. E = -798.099934 Ha
C    -3.44161   2.79242  -1.07366
N    -2.80517   1.55108  -0.68664
C    -1.47763   1.46219  -0.52243
O    -0.70946   2.43317  -0.68826
C    -0.90624   0.15161  -0.12826
N     0.43657   0.22183  -0.00843
C     1.41451  -0.59954   0.29844
C     2.75681  -0.02547   0.28544
O     3.00462   1.14212   0.01635
O     3.68542  -0.93455   0.60371
C     5.04645  -0.48318   0.61966
C    -1.68704  -1.04806   0.09854
O    -2.90979  -1.11412  -0.01869
O    -0.94678  -2.10849   0.45709
C    -1.64750  -3.33517   0.70281
H    -3.06285   3.15363  -2.04337
H    -3.26633   3.58543  -0.32869
H    -4.52197   2.62386  -1.15936
H    -3.34853   0.70340  -0.52937
H     0.73847   1.19611  -0.22493
H     1.22888  -1.63988   0.54262
H     5.65077  -1.35494   0.89570
H     5.34227  -0.11518  -0.37374
H     5.17777   0.31979   1.35978
H    -2.17701  -3.66500  -0.20260
H    -2.36931  -3.20963   1.52258
H    -0.88059  -4.06699   0.98133
