27
Generated by autodE on: 2022-10-23. E = -664.630123 Ha
C     1.47980  -2.60044  -1.30642
O     0.16699  -2.87302  -0.85024
C    -0.59114  -1.76587  -0.36706
C    -1.75130  -2.37677   0.42002
C     0.17706  -0.83988   0.48098
C     0.56332   0.18822   0.99620
C     0.68603   1.64566   1.03739
F     0.75139   2.13189   2.31797
F     1.87163   2.02269   0.44514
C    -0.48658   2.28204   0.30066
C    -0.77466   1.70833  -1.09975
C    -1.72114   0.47874  -1.20643
C    -1.10165  -0.89080  -1.55326
H     1.88288  -3.54546  -1.69714
H     1.50188  -1.84961  -2.11523
H     2.13191  -2.24847  -0.48702
H    -2.43777  -1.59789   0.77895
H    -1.37013  -2.94207   1.28248
H    -2.30262  -3.06243  -0.24056
H    -1.36957   2.17970   0.95028
H    -0.24724   3.35559   0.23465
H    -1.23546   2.52775  -1.67103
H     0.18080   1.49855  -1.60929
H    -2.32984   0.39656  -0.29048
H    -2.43990   0.69658  -2.01090
H    -0.26338  -0.73624  -2.24990
H    -1.84515  -1.50971  -2.08044
