46
Generated by autodE on: 2022-06-19. E = -981.522598 Ha. Imaginary frequency = -255.7 cm-1
C     3.19968   1.98890  -2.98920
C     2.98361   1.38234  -1.80097
C     3.70047   1.82239  -0.55120
C     2.01200   0.29965  -1.70885
C     1.72575  -0.40267  -0.57724
C     0.74514  -1.44409  -0.51383
C    -1.57349   0.01854  -0.34434
C    -2.32373  -0.45409  -1.45346
N    -2.90487  -0.86600  -2.37892
C    -0.88514   1.28916  -0.41129
C    -0.63907   1.85448  -1.68565
C     0.00686   3.08068  -1.81300
C     0.43737   3.77528  -0.67931
C     0.19973   3.22908   0.58783
C    -0.44807   2.00343   0.72783
O    -1.83437  -0.70059   0.75237
C    -0.99843  -0.95142   1.75683
C    -1.51319  -1.83079   2.79067
C    -2.86048  -2.47345   2.58190
O    -0.83526  -2.04354   3.80349
C     0.55411  -2.30070   0.57158
C     1.56101  -2.40521   1.68723
C    -0.31189  -3.51680   0.35604
H     3.91217   2.81222  -3.08911
H     2.66214   1.67538  -3.88911
H     4.27651   0.99391  -0.10710
H     4.39162   2.65068  -0.76085
H     2.98066   2.15649   0.21365
H     1.49027   0.03648  -2.63454
H     2.25190  -0.14700   0.34515
H     0.19513  -1.66102  -1.43348
H    -0.96212   1.32281  -2.58212
H     0.19165   3.48780  -2.80914
H     0.95642   4.73061  -0.77990
H     0.52132   3.76583   1.48324
H    -0.63682   1.62479   1.73055
H    -0.19976  -0.25337   1.99425
H    -3.65207  -1.71423   2.69729
H    -2.95857  -2.88984   1.56921
H    -3.00444  -3.26071   3.33335
H     2.32147  -3.15854   1.41271
H     2.08415  -1.46118   1.88771
H     1.09020  -2.74111   2.62143
H     0.26765  -4.28941  -0.18104
H    -0.63955  -3.96505   1.30491
H    -1.19633  -3.28280  -0.25559
