25
Generated by autodE on: 2022-05-29. E = -552.380055 Ha
C     3.96662  -0.73193  -0.14075
N     2.75462   0.05278  -0.04413
C     1.54254  -0.50150  -0.29954
O     1.46238  -1.70024  -0.63348
C     0.36469   0.36815  -0.11092
C     0.46678   1.66781   0.62055
N    -0.84815  -0.07013  -0.53304
C    -0.96862  -0.91577  -1.73934
C    -2.02640   0.31150   0.04371
C    -3.34029   0.24466  -0.68432
C    -2.02925   0.65613   1.40445
N    -2.06243   0.89699   2.55193
H     3.92961  -1.61097   0.52296
H     4.81848  -0.10557   0.15161
H     4.13405  -1.09818  -1.16717
H     2.82845   1.02508   0.22518
H     1.39706   2.18948   0.34955
H    -0.37158   2.32217   0.33410
H     0.44492   1.58467   1.72170
H    -1.69567  -0.44412  -2.41093
H    -1.32366  -1.91831  -1.46807
H    -0.00605  -0.98005  -2.24509
H    -3.31386   0.80283  -1.63520
H    -3.64766  -0.79033  -0.91115
H    -4.12252   0.69150  -0.05615
