42
Generated by autodE on: 2022-06-20. E = -1032.590826 Ha
C    -4.43796   2.03389   0.58062
O    -3.20855   1.31155   0.77275
C    -2.56533   0.92763  -0.31757
O    -2.96325   1.11488  -1.44674
C    -1.20579   0.26054  -0.02976
C    -1.14072  -0.35794   1.36678
O    -1.21720   0.29358   2.38641
O    -0.94263  -1.66975   1.33964
C    -0.77950  -2.32083   2.61075
N    -0.99263  -0.72860  -1.08939
C    -0.24884  -0.18917  -1.97985
C     0.11641  -0.91461  -3.16967
N     0.44114  -1.46925  -4.13679
C     0.21068   1.21855  -1.72841
C    -0.03254   1.35525  -0.20987
C    -0.44058   2.76721   0.21025
C     1.16467   0.90680   0.60341
C     2.16141   0.09903   0.19018
C     3.24775  -0.33402   1.05153
C     4.26717  -1.15965   0.71139
C     5.32224  -1.53141   1.71477
C     4.44596  -1.77392  -0.64838
H    -4.24581   2.96426   0.02782
H    -4.81257   2.25589   1.58586
H    -5.15953   1.41635   0.02803
H     0.09576  -1.91143   3.13502
H    -1.67767  -2.18395   3.22924
H    -0.62806  -3.38250   2.38590
H     1.25045   1.39776  -2.03081
H    -0.43278   1.90468  -2.30174
H     0.40920   3.45124   0.06615
H    -1.28214   3.14552  -0.38836
H    -0.72327   2.78815   1.27204
H     1.17048   1.25310   1.64146
H     2.17245  -0.26552  -0.84044
H     3.22097   0.04873   2.07850
H     6.32446  -1.23866   1.35390
H     5.15177  -1.05781   2.69267
H     5.35664  -2.62632   1.85744
H     5.42186  -1.48053  -1.07360
H     4.46565  -2.87501  -0.56831
H     3.66284  -1.49815  -1.36631
