23
Generated by autodE on: 2022-06-20. E = -351.521382 Ha
C     3.64609   0.45323   0.89461
C     2.57930   0.01942   0.18780
C     2.74933  -0.83334  -1.04349
C     1.22741   0.37427   0.61515
C     0.07889  -0.00107  -0.00197
C    -1.23884   0.37800   0.46551
C    -2.43099   0.04298  -0.08966
C    -3.72170   0.51469   0.51817
C    -2.58651  -0.80396  -1.32089
H     4.66830   0.20228   0.59796
H     3.51894   1.07171   1.78848
H     2.24078  -1.80484  -0.92698
H     3.81148  -1.02263  -1.25337
H     2.30225  -0.34891  -1.92746
H     1.15784   0.99774   1.51471
H     0.14082  -0.62353  -0.89866
H    -1.25924   1.00230   1.36706
H    -3.55892   1.12894   1.41594
H    -4.30397   1.10744  -0.21015
H    -4.36141  -0.34328   0.79308
H    -3.14604  -0.25147  -2.09628
H    -1.63365  -1.13220  -1.75560
H    -3.18740  -1.70210  -1.09260
