19
Generated by autodE on: 2022-06-20. E = -680.983335 Ha
C     3.56848  -1.06607   0.16166
O     2.14582  -0.88872   0.19248
C     1.67939   0.29458  -0.23472
O     2.38992   1.19666  -0.63433
C     0.21151   0.34975  -0.15328
N    -0.42986  -0.70242   0.30284
C    -1.00009  -1.64366   0.70987
C    -1.65875  -2.73378   1.17882
N    -2.22652  -3.67407   1.58308
C    -0.57179   1.52777  -0.55667
O    -0.10389   2.55778  -1.00238
O    -1.88490   1.32474  -0.36971
C    -2.75861   2.40492  -0.72503
H     4.06393  -0.32370   0.80408
H     3.75304  -2.07789   0.54049
H     3.94703  -0.97060  -0.86636
H    -3.77353   2.05539  -0.50335
H    -2.66400   2.64216  -1.79465
H    -2.52707   3.30038  -0.13018
