15
Generated by autodE on: 2022-06-18. E = -433.370863 Ha
C    -2.66295   0.64428  -0.25645
O    -1.27137   0.49455   0.06069
C    -0.58200  -0.44495  -0.62582
O    -1.11587  -1.13869  -1.47811
N     0.75199  -0.59428  -0.33164
N     1.36501   0.13598   0.58675
C     2.79506  -0.22893   0.69024
N     0.97282   1.05216   1.36092
H    -2.78746   0.92726  -1.31129
H    -3.03445   1.44176   0.39757
H    -3.20367  -0.29248  -0.06052
H     3.25143   0.38821   1.46877
H     2.85794  -1.29558   0.93652
H     3.26280  -0.05107  -0.28576
H    -0.02931   1.20687   1.18526
