52
Generated by autodE on: 2022-06-24. E = -1354.257850 Ha
C    -0.90495  -2.24669   2.43526
N    -1.15379  -1.49352   1.22292
C    -1.09195  -0.16317   1.18876
O    -0.96754   0.55424   2.18791
C    -1.10901   0.47247  -0.22469
C    -2.31982   1.42196  -0.35047
O    -2.55918   2.08722  -1.33455
O    -3.15732   1.32814   0.68087
C    -4.38077   2.07542   0.59087
N    -1.19604  -0.58482  -1.25923
C    -2.49937  -0.84557  -1.85425
N    -0.16103  -0.29193  -2.23668
C    -0.02364  -1.33995  -3.23591
C     0.97786   0.07474  -1.39763
C     2.16862   0.56988  -2.22032
C     1.49982  -1.10341  -0.54313
O     1.56690  -2.23312  -1.01527
C     1.98650  -0.84572   0.81588
O     2.56893  -1.83919   1.52658
C     3.59970  -2.63806   0.93015
C     1.76971   0.34595   1.46291
O     2.25990   0.46820   2.69950
C     1.80197   1.46088   3.63075
C     1.10281   1.47107   0.76872
O     1.25739   2.61484   1.16642
C     0.30034   1.17673  -0.50950
C     0.19401   2.49850  -1.27539
H     0.16982  -2.24408   2.68215
H    -1.23473  -3.28322   2.29252
H    -1.45614  -1.80634   3.27716
H    -1.12958  -1.94183   0.30531
H    -4.96534   1.74277  -0.27868
H    -4.16574   3.14950   0.50096
H    -4.92517   1.87109   1.51960
H    -2.48411  -1.81638  -2.36664
H    -3.24072  -0.91353  -1.04647
H    -2.81829  -0.06543  -2.56745
H    -0.01486  -2.35867  -2.81653
H     0.91490  -1.17760  -3.78039
H    -0.84179  -1.26114  -3.96713
H     2.90410   1.05875  -1.56604
H     1.84367   1.28083  -2.99023
H     2.66567  -0.27755  -2.71226
H     4.24643  -2.96684   1.75553
H     3.17956  -3.51381   0.41865
H     4.19554  -2.04556   0.21969
H     2.08599   1.07742   4.61958
H     0.71272   1.57521   3.57678
H     2.29411   2.42478   3.45004
H    -0.28016   2.34895  -2.24800
H    -0.38480   3.23407  -0.70668
H     1.19907   2.91354  -1.42216
