26
Generated by autodE on: 2022-07-27. E = -664.772808 Ha
C     1.76720  -2.09455  -2.47298
N     1.22527  -1.51184  -1.26984
N     0.44353  -0.50066  -1.40086
C     0.12057   0.03562  -2.74188
C    -0.08775   0.05974  -0.27722
C     0.21280  -0.66720   1.01167
O    -0.44781  -1.64673   1.37517
N     1.23303  -0.17161   1.73087
C     1.62073  -0.74666   3.00374
C    -0.98004   1.19196  -0.23527
O    -1.39041   1.90979  -1.14577
O    -1.35856   1.42009   1.05274
C    -2.23623   2.52417   1.27709
H     2.39491  -2.94236  -2.17142
H     2.39743  -1.39144  -3.04683
H     0.98935  -2.47346  -3.15973
H     1.05673   0.32915  -3.23216
H    -0.35788  -0.76208  -3.32340
H    -0.54430   0.89194  -2.63818
H     1.70699   0.65713   1.38817
H     2.49942  -0.21188   3.38445
H     1.87378  -1.81288   2.89383
H     0.80831  -0.66666   3.74452
H    -3.18366   2.39097   0.73364
H    -1.76969   3.46897   0.95982
H    -2.42495   2.54499   2.35732
