37
Generated by autodE on: 2022-05-29. E = -954.940360 Ha
C    -0.15930   3.52731   0.74659
O    -0.10880   2.18910   0.23081
C    -0.76872   1.24965   0.90822
O    -1.41169   1.46784   1.92034
C    -0.65090  -0.07777   0.27970
C    -1.33880  -1.16620   0.65880
C    -2.30149  -1.27851   1.80421
C    -1.70491  -1.50193   3.15914
O    -3.49964  -1.25679   1.58022
C    -1.08898  -2.31729  -0.28199
C    -2.31025  -2.61844  -1.15753
N     0.09802  -1.85547  -1.02338
C     0.20522  -0.38917  -0.95297
C    -0.43541   0.25930  -2.12650
N    -0.98118   0.70506  -3.04903
C     1.66024   0.06775  -0.80183
C     2.29170   0.89954  -1.73034
C     3.62170   1.28969  -1.53778
C     4.32545   0.85415  -0.41318
C     3.69448   0.02162   0.51923
C     2.37001  -0.37047   0.32479
H    -1.19730   3.88841   0.77070
H     0.26556   3.56060   1.75986
H     0.44126   4.13525   0.06081
H    -2.49206  -1.52353   3.92475
H    -1.16496  -2.46442   3.14838
H    -0.96614  -0.71744   3.37944
H    -0.84076  -3.22509   0.29516
H    -3.16153  -2.94590  -0.54334
H    -2.06424  -3.42669  -1.86366
H    -2.61151  -1.72786  -1.72992
H     0.11688  -2.19283  -1.98386
H     1.74895   1.25203  -2.60939
H     4.10545   1.93796  -2.27209
H     5.36282   1.16121  -0.26121
H     4.23755  -0.32233   1.40262
H     1.88024  -1.02198   1.05103
