22
Generated by autodE on: 2022-07-26. E = -496.775493 Ha
C    -2.89044  -3.01526   0.59023
C    -2.53997  -1.61946   0.24177
N    -1.30533  -1.19575   0.21364
C    -0.78132   0.05124  -0.10163
C    -1.68861   1.04053  -0.49923
N    -2.46015   1.86123  -0.83043
C     0.64919   0.30574  -0.01990
C     1.16793   1.55777  -0.43476
C     2.53166   1.83371  -0.37412
C     3.43735   0.87591   0.09914
C     2.94258  -0.36390   0.51634
C     1.57703  -0.64753   0.46415
H    -1.99911  -3.61070   0.83913
H    -3.58350  -3.03462   1.44932
H    -3.41909  -3.50161  -0.24857
H    -3.32147  -0.89737  -0.00989
H    -0.60218  -1.89930   0.45512
H     0.48377   2.32082  -0.81320
H     2.89198   2.81149  -0.70469
H     4.50664   1.09318   0.14416
H     3.62733  -1.12675   0.89599
H     1.24685  -1.62634   0.82039
