40
Generated by autodE on: 2022-05-29. E = -1067.768155 Ha
C     1.21548  -3.81563   0.74004
C     1.00495  -2.35210   0.98122
O     0.93136  -1.88487   2.10467
C     0.93691  -1.36677  -0.23462
C     1.02374  -2.05880  -1.59630
C    -0.31971  -0.53019  -0.04919
C    -0.01149   0.70244   0.36455
C     1.48711   0.84814   0.52586
C     2.03630   2.06130  -0.11570
N     2.48425   3.00013  -0.62931
N     2.00910  -0.35280  -0.11059
C     3.31628  -0.77964   0.35295
C    -0.95243   1.85006   0.58676
F    -2.10211   1.39338   1.20018
F    -0.38258   2.71766   1.49363
C    -1.32480   2.62308  -0.66754
C    -1.65628   1.78588  -1.90857
C    -2.77550   0.73013  -1.77751
C    -2.32626  -0.73029  -1.61694
C    -1.69643  -1.09200  -0.27619
F    -1.60563  -2.49600  -0.19438
H     0.37888  -4.22361   0.15331
H     2.13062  -3.97344   0.14846
H     1.29259  -4.34238   1.69989
H     0.90563  -1.31048  -2.39201
H     2.00676  -2.53625  -1.71710
H     0.24765  -2.82380  -1.71510
H     1.74065   0.92393   1.60426
H     4.05404   0.01242   0.15224
H     3.34777  -1.00649   1.43634
H     3.63265  -1.67532  -0.20087
H    -0.47393   3.28093  -0.89947
H    -2.17231   3.26958  -0.38663
H    -1.94377   2.50796  -2.68758
H    -0.73562   1.30399  -2.27626
H    -3.46141   0.99999  -0.95782
H    -3.38145   0.76071  -2.69555
H    -3.20772  -1.38332  -1.71946
H    -1.62732  -0.99682  -2.42582
H    -2.35937  -0.78377   0.54232
