20
Generated by autodE on: 2022-05-29. E = -457.654390 Ha
C    -3.17742  -0.65658   0.27724
C    -1.66434  -0.65951   0.36749
O    -1.11719  -1.55101   1.04712
C    -0.93065   0.37377  -0.33770
C    -1.64438   1.41937  -1.14789
N     0.43325   0.42846  -0.28507
C     1.08151   1.52793  -1.03278
C     1.23642  -0.42354   0.38463
C     2.63223  -0.30255   0.39646
N     3.80199  -0.27815   0.46109
H    -3.52094  -0.76123  -0.76387
H    -3.55696  -1.50084   0.86703
H    -3.60370   0.27899   0.67235
H    -2.72612   1.26819  -1.10666
H    -1.35333   1.39417  -2.21133
H    -1.44494   2.44036  -0.78261
H     2.16576   1.46565  -0.91344
H     0.72658   2.49013  -0.64662
H     0.82712   1.44692  -2.09554
H     0.75834  -1.23067   0.93221
