20
Generated by autodE on: 2022-05-29. E = -610.002531 Ha
F    -0.31277  -1.68560  -2.56086
C    -0.65717  -1.85147  -1.21348
C     0.39338  -1.27889  -0.37758
C     0.99202  -0.49499   0.32677
C     1.05925   0.76830   1.06941
F     0.82308   0.52137   2.40199
F     2.30418   1.33539   1.01520
C     0.01903   1.74208   0.52842
C    -1.41108   1.18182   0.40153
C    -1.81162   0.46716  -0.92068
C    -1.94310  -1.07003  -0.91300
H    -0.80207  -2.92927  -1.04417
H     0.03221   2.60159   1.21782
H     0.38553   2.09562  -0.44771
H    -2.08095   2.04636   0.51866
H    -1.62322   0.53009   1.26586
H    -1.13144   0.76772  -1.73558
H    -2.80025   0.85491  -1.20850
H    -2.32726  -1.41794   0.05956
H    -2.67232  -1.38791  -1.67554
