47
Generated by autodE on: 2022-06-20. E = -981.894784 Ha
C     3.82897   2.42906   1.02431
N     3.19194   1.18619   0.63835
C     1.86928   1.01407   0.74050
O     1.12643   1.87163   1.22828
C     1.28826  -0.32973   0.19786
C     2.18955  -1.50565   0.62572
C     1.54918  -2.61516   1.40132
O     3.37644  -1.51898   0.33487
O     0.01533  -0.48670   0.78760
C    -0.99551  -0.71673  -0.19185
C    -2.33405  -0.27252   0.33725
C    -3.50403  -0.86457  -0.16014
C    -4.76038  -0.42853   0.26983
C    -4.86075   0.59745   1.21497
C    -3.69705   1.18213   1.72572
C    -2.44133   0.75266   1.28817
C    -0.49091  -0.00535  -1.47439
C    -1.17512  -0.57627  -2.72018
C    -0.77375   1.50408  -1.43737
C     1.05487  -0.32994  -1.39227
C     1.35739  -1.71694  -1.99179
C     1.92576   0.68294  -2.13814
H     3.64653   2.65910   2.08586
H     3.44852   3.27246   0.42537
H     4.90993   2.33862   0.86172
H     3.74220   0.41523   0.26643
H     2.28219  -3.41359   1.57313
H     0.67061  -3.00543   0.86600
H     1.18199  -2.22122   2.36225
H    -1.05230  -1.79940  -0.40398
H    -3.42802  -1.67676  -0.88728
H    -5.66346  -0.89760  -0.12834
H    -5.84194   0.93567   1.55681
H    -3.76732   1.98054   2.46874
H    -1.53370   1.21275   1.67899
H    -1.16533  -1.67404  -2.74867
H    -2.22667  -0.25213  -2.74464
H    -0.69270  -0.20026  -3.63570
H    -0.39895   1.98456  -2.35227
H    -1.85819   1.68010  -1.39722
H    -0.31581   2.00017  -0.57401
H     1.12784  -1.71530  -3.06529
H     0.77814  -2.52415  -1.52178
H     2.42268  -1.95871  -1.89144
H     1.64011   0.69029  -3.20147
H     1.83182   1.70662  -1.75590
H     2.98539   0.39414  -2.08172
