29
Generated by autodE on: 2022-07-27. E = -745.852601 Ha
C     4.10420   2.57418  -0.12220
N     3.37130   1.36013  -0.39957
C     2.06140   1.23817  -0.08892
O     1.42274   2.17498   0.44270
C     1.44613  -0.04796  -0.40991
O     0.12168  -0.26001  -0.13529
C    -0.79104   0.48574   0.36403
C    -2.11093  -0.04797   0.53136
C    -2.44720  -1.37332   0.16858
C    -3.74513  -1.83155   0.35734
C    -4.72095  -0.98488   0.90595
C    -4.39622   0.32759   1.26760
C    -3.09867   0.79790   1.08299
C     2.08184  -1.18699  -0.99509
C     1.24845  -2.43105  -1.22972
O     3.29310  -1.18606  -1.31641
H     3.65944   3.44463  -0.63258
H     5.13606   2.45420  -0.47588
H     4.12982   2.80228   0.95691
H     3.81272   0.53842  -0.81772
H    -0.52813   1.50629   0.64708
H    -1.68323  -2.02589  -0.25669
H    -4.00649  -2.85439   0.07809
H    -5.73906  -1.35309   1.05121
H    -5.15824   0.98299   1.69422
H    -2.83233   1.82007   1.36130
H     0.82945  -2.81224  -0.28569
H     0.40183  -2.22118  -1.90141
H     1.88912  -3.19989  -1.68054
