47
Generated by autodE on: 2022-06-20. E = -981.824280 Ha. Imaginary frequency = -239.0 cm-1
C     4.11219   2.40145   0.90135
N     3.39482   1.14753   0.86616
C     2.04834   1.10263   0.96448
O     1.37301   2.11666   1.24248
C     1.41706  -0.20135   0.70272
C     2.10969  -1.43396   0.52968
C     1.40477  -2.75650   0.74419
O     3.33503  -1.46394   0.23496
O     0.06870  -0.13431   0.94332
C    -0.84544  -0.74562   0.22323
C    -2.22075  -0.47129   0.59924
C    -3.24193  -1.35284   0.19491
C    -4.57052  -1.08280   0.52185
C    -4.89242   0.06525   1.25357
C    -3.88023   0.94366   1.66480
C    -2.55200   0.68178   1.34209
C    -0.56877   0.22583  -1.81784
C    -1.58816  -0.63153  -2.54225
C    -1.01570   1.64040  -1.52952
C     0.79106  -0.04187  -1.99939
C     1.25176  -1.36254  -2.53939
C     1.82014   1.04796  -2.06610
H     5.19032   2.19772   0.86906
H     3.85373   3.04872   0.04422
H     3.89024   2.96373   1.82147
H     3.83693   0.28313   0.54313
H     2.14416  -3.45637   1.15892
H     0.54408  -2.68940   1.42404
H     1.06004  -3.17336  -0.21531
H    -0.61141  -1.70380  -0.23855
H    -2.98354  -2.25194  -0.36743
H    -5.35804  -1.77169   0.20884
H    -5.93359   0.27542   1.50895
H    -4.13334   1.83729   2.23962
H    -1.75647   1.35840   1.65704
H    -1.55393  -0.40065  -3.62195
H    -2.60718  -0.41601  -2.19352
H    -1.41004  -1.71009  -2.43598
H    -0.90671   2.27360  -2.42818
H    -2.07585   1.66502  -1.24045
H    -0.42974   2.10158  -0.72289
H     1.24071  -1.32644  -3.64526
H     2.28573  -1.57633  -2.23251
H     0.61004  -2.20077  -2.23809
H     2.80718   0.69724  -1.73535
H     1.55080   1.94812  -1.50371
H     1.92370   1.34242  -3.12909
