48
Generated by autodE on: 2022-06-21. E = -1073.454907 Ha
C    -3.87324  -2.19754  -1.50595
N    -3.03912  -1.22363  -0.83285
C    -1.72914  -1.13046  -1.08323
O    -1.16045  -1.83748  -1.92239
C    -0.91942  -0.08567  -0.25296
C    -1.75039   1.19368  -0.02150
O    -2.90152   1.13923   0.44591
N    -1.13695   2.33966  -0.31903
C    -1.72781   3.62123   0.00972
O     0.22342   0.24227  -1.01514
C     1.44915  -0.25368  -0.48163
C     2.20572  -0.93542  -1.62483
C     2.26382   0.98491  -0.06508
O     1.81370   2.11309   0.00831
O     3.54284   0.70228   0.15457
C     4.39222   1.78610   0.56334
C     1.06003  -1.18642   0.73402
C     1.02442  -2.66498   0.30682
C     2.05846  -1.10657   1.89888
C    -0.37857  -0.64664   1.13187
C    -1.28927  -1.72143   1.73182
C    -0.28489   0.48745   2.17334
H    -3.87685  -2.04129  -2.59692
H    -4.90056  -2.10517  -1.13247
H    -3.51690  -3.22250  -1.31456
H    -3.43195  -0.53796  -0.18546
H    -0.13634   2.28216  -0.51908
H    -2.76698   3.66650  -0.34513
H    -1.73125   3.79990   1.09868
H    -1.14998   4.41740  -0.47616
H     1.56609  -1.69565  -2.08600
H     2.46193  -0.18998  -2.39284
H     3.13341  -1.39988  -1.26820
H     4.40958   2.56960  -0.20715
H     4.03564   2.21068   1.51270
H     5.39090   1.35376   0.69110
H     2.02287  -2.99085  -0.01515
H     0.74662  -3.28976   1.16651
H     0.31678  -2.85989  -0.50563
H     3.03056  -1.51556   1.58891
H     2.22884  -0.08999   2.27290
H     1.69043  -1.71689   2.73726
H    -2.26269  -1.28156   1.99366
H    -1.47162  -2.56767   1.05925
H    -0.83887  -2.11201   2.65692
H     0.36217   1.31268   1.85512
H     0.10441   0.09187   3.12023
H    -1.28308   0.89384   2.38264
