48
Generated by autodE on: 2022-06-21. E = -1073.360680 Ha. Imaginary frequency = -279.4 cm-1
C    -3.89189  -2.02453  -1.61552
N    -3.03277  -0.97632  -1.11364
C    -1.70093  -0.99571  -1.33535
O    -1.15600  -1.90224  -1.98822
C    -0.93902   0.11739  -0.73546
C    -1.55151   1.40221  -0.33862
O    -2.78241   1.52636  -0.15276
N    -0.70611   2.43440  -0.13518
C    -1.17457   3.68794   0.41620
O     0.37293   0.24367  -0.92756
C     1.45150  -0.47506  -0.71294
C     1.67704  -1.84350  -1.25528
C     2.63238   0.37285  -0.44649
O     3.75470  -0.07456  -0.26586
O     2.34416   1.68105  -0.36675
C     3.41395   2.55789   0.00753
C     0.89566  -0.90318   1.68996
C     1.77915  -2.12444   1.78162
C     1.48658   0.33573   2.32454
C    -0.49093  -1.03353   1.61003
C    -1.12507  -2.37540   1.35490
C    -1.39663  -0.03982   2.29089
H    -4.91485  -1.84699  -1.26011
H    -3.56089  -3.01276  -1.25761
H    -3.90414  -2.05745  -2.71853
H    -3.40309  -0.14091  -0.65417
H     0.29402   2.26247  -0.20900
H    -0.33369   4.39164   0.45700
H    -1.96979   4.12498  -0.20722
H    -1.57791   3.56066   1.43533
H     0.90461  -2.55177  -0.95018
H     1.67024  -1.79771  -2.35821
H     2.66314  -2.19674  -0.93600
H     4.23892   2.49072  -0.71594
H     3.78456   2.30534   1.01149
H     2.98776   3.56766   0.00513
H     2.80968  -1.90348   1.46859
H     1.82507  -2.44210   2.84062
H     1.41157  -2.97997   1.20479
H     2.57834   0.36308   2.20267
H     1.06890   1.26336   1.91353
H     1.28487   0.33640   3.41138
H    -0.61763  -2.95248   0.57211
H    -1.09663  -2.98227   2.27951
H    -2.18059  -2.26593   1.07181
H    -1.00808   0.98509   2.28754
H    -2.40138  -0.03042   1.84876
H    -1.50858  -0.34094   3.35080
