20
Generated by autodE on: 2022-06-19. E = -457.715322 Ha
C    -3.16836   0.24297  -0.08728
N    -1.81127  -0.24760   0.08803
C    -1.60187  -1.59529   0.40649
C    -0.37635  -2.13016   0.52410
C     0.89188  -1.33833   0.32136
C     0.56683   0.10544  -0.02602
C     1.63138   1.09160  -0.27005
N     2.90408   0.62973  -0.17736
O     1.41101   2.28840  -0.54740
C    -0.72111   0.54179  -0.12174
H    -3.77447   0.04188   0.81011
H    -3.65965  -0.23610  -0.95071
H    -3.14385   1.32668  -0.25619
H    -2.51251  -2.17823   0.55570
H    -0.29380  -3.18882   0.78061
H     1.52392  -1.39326   1.23146
H     1.50942  -1.80815  -0.47157
H     3.12283  -0.33296   0.04524
H     3.66835   1.27671  -0.33749
H    -0.92583   1.58282  -0.37634
