21
Generated by autodE on: 2022-06-19. E = -628.122774 Ha
C     3.59371  -0.96807  -0.20626
O     2.37717  -0.32539   0.18343
C     1.25802  -0.71157  -0.46974
O     1.27631  -1.56523  -1.35108
C     0.09738  -0.00707   0.00266
C     0.00748   0.96633   1.01952
O     0.76088   1.53343   1.78836
O    -1.40417   1.29071   1.06089
C    -2.04660   0.57058   0.15123
C    -3.50778   0.70579  -0.02536
N    -1.21133  -0.20775  -0.49939
C    -1.58483  -1.12173  -1.57444
H     3.81461  -0.78153  -1.26789
H     3.53740  -2.05360  -0.03552
H     4.37966  -0.53119   0.42158
H    -3.74629   1.03046  -1.04999
H    -4.01124  -0.25647   0.15571
H    -3.88394   1.45004   0.68652
H    -2.66167  -1.04003  -1.75279
H    -1.03641  -0.85798  -2.48625
H    -1.33259  -2.14948  -1.28832
