56
Generated by autodE on: 2022-06-12. E = -4017.831107 Ha
C     7.61583  -2.45387  -3.25379
O     7.47724  -1.58133  -2.11825
C     6.25548  -1.41751  -1.63207
O     5.26233  -1.95159  -2.07145
C     6.28667  -0.56636  -0.33737
C     7.17831   0.69770  -0.48173
C     7.85648   1.17599   0.76289
O     7.28205   1.22399  -1.56754
O     6.85664  -1.39844   0.67657
O     5.76387  -1.89926   1.48930
C     4.66379  -1.14281   1.20762
C     4.88884  -0.27570   0.19443
C     4.03725   0.73860  -0.46674
F     4.40549   0.79670  -1.79269
Br    4.53612   2.61380   0.23692
C     2.53312   0.63007  -0.39335
C     2.00227  -0.72232  -0.90559
C     1.49536  -1.65722   0.19067
C     2.50720  -2.39180   1.07394
C     3.46051  -1.60081   2.03717
C     2.76165  -0.43703   2.74642
C     3.40965   0.77743   2.99938
C     2.76821   1.80092   3.70375
C     1.47002   1.61726   4.18192
C     0.82466   0.39500   3.96213
C     1.46662  -0.62314   3.25611
C     3.98705  -2.56855   3.14319
C     4.46980  -2.05744   4.35843
C     4.96865  -2.90456   5.35037
C     4.99676  -4.28702   5.14824
C     4.52841  -4.80754   3.94005
C     4.03265  -3.95735   2.94697
H     7.28172  -3.46852  -2.99454
H     7.02334  -2.07315  -4.09753
H     8.68239  -2.45374  -3.50410
H     8.21783   2.20138   0.61579
H     8.71372   0.51118   0.96423
H     7.18889   1.11416   1.63378
H     2.15029   1.45290  -1.01270
H     2.19898   0.82601   0.63208
H     1.15682  -0.51267  -1.57798
H     2.76263  -1.22455  -1.52333
H     0.90928  -2.45463  -0.29544
H     0.77903  -1.10460   0.81800
H     3.14086  -3.02562   0.43567
H     1.92838  -3.07838   1.70665
H     4.42809   0.93574   2.64666
H     3.29112   2.74451   3.87490
H     0.96489   2.41630   4.72947
H    -0.18601   0.23198   4.34372
H     0.95428  -1.57504   3.11124
H     4.45894  -0.98295   4.54005
H     5.33493  -2.47804   6.28725
H     5.38200  -4.95206   5.92472
H     4.54895  -5.88528   3.76125
H     3.69293  -4.39783   2.01099
