14
Generated by autodE on: 2022-05-26. E = -499.075715 Ha
N     3.24540  -0.02013   0.52577
C     2.10843  -0.06696   0.26959
C     0.74418  -0.11241  -0.06057
C    -0.27521  -0.73923   0.55413
F    -0.26608  -1.48820   1.63130
C    -1.56234  -0.34198  -0.18675
C    -1.79978   1.15397   0.12161
C    -0.81507   1.79230  -0.51654
C     0.01393   0.68022  -1.19383
O    -1.02397  -0.26232  -1.51589
H    -2.40539  -1.03492  -0.09913
H    -2.58476   1.53916   0.77049
H    -0.57118   2.85347  -0.54038
H     0.62825   0.94448  -2.05957
