29
Generated by autodE on: 2022-05-26. E = -895.321922 Ha. Imaginary frequency = -344.5 cm-1
C     5.13273   0.02948  -0.05936
N     3.82901   0.42656   0.43192
C     2.86115  -0.49230   0.66853
O     3.01410  -1.69548   0.41941
N     1.63985  -0.06502   1.19632
N     1.44978   1.20232   1.29101
C     0.76703   2.12933   0.98136
C     0.31684   3.49823   1.20030
C    -0.48999   1.02097  -0.69254
C    -1.83057   0.93839   0.07607
O    -1.49716  -0.01718   1.09206
C    -1.02651  -1.03722   0.19324
C    -2.29729  -1.19930  -0.70454
C    -2.72997  -2.35774  -1.36987
N    -3.07500  -3.33294  -1.90943
C    -2.76961   0.06011  -0.76414
F    -3.77888   0.53794  -1.45473
C     0.00526  -0.24890  -0.62699
H     5.04190  -0.55822  -0.98533
H     5.68491  -0.58102   0.67544
H     5.71977   0.93144  -0.27400
H     3.69412   1.38582   0.73080
H     0.30860   4.05561   0.25222
H    -0.71165   3.47916   1.59530
H     0.97023   4.00609   1.92680
H    -0.24487   1.80410  -1.40818
H    -2.26422   1.86098   0.47561
H    -0.69073  -1.93713   0.71513
H     0.78564  -0.71293  -1.22572
