23
Generated by autodE on: 2022-06-17. E = -351.521383 Ha
C     3.54652  -1.31220  -0.01321
C     2.55518  -0.39470   0.02184
C     2.85554   1.08028   0.10175
C     1.15930  -0.82597  -0.01916
C     0.07781  -0.00704   0.00372
C    -1.28846  -0.48649  -0.04021
C    -2.41788   0.26582  -0.02596
C    -3.77352  -0.38025  -0.07694
C    -2.43664   1.76666   0.03939
H     3.32529  -2.38242  -0.07144
H     4.59913  -1.01715   0.01555
H     2.43204   1.61947  -0.76191
H     3.93868   1.26542   0.12680
H     2.40646   1.52916   1.00333
H     0.99380  -1.90877  -0.07389
H     0.23496   1.07363   0.05724
H    -1.40687  -1.57570  -0.09066
H    -3.71028  -1.47730  -0.12414
H    -4.37295  -0.10262   0.80875
H    -4.34371  -0.02496  -0.95412
H    -2.96952   2.18014  -0.83512
H    -1.43766   2.21985   0.07668
H    -3.00042   2.10304   0.92746
