33
Generated by autodE on: 2022-10-23. E = -781.626212 Ha
C    -3.94284   1.77058   1.66644
N    -3.15930   0.81579   0.91837
C    -1.85436   1.03345   0.63324
O    -1.28608   2.10760   0.94036
C    -1.14134  -0.05146  -0.04244
C    -1.68541  -1.31121  -0.39623
C    -0.85489  -2.32181  -1.16781
O    -2.87629  -1.63990  -0.12762
N     0.22005   0.25599  -0.36450
C     0.43081   1.26312  -1.41900
C     1.21802  -0.38556   0.16963
C     1.07368  -1.32539   1.30546
C     2.57987  -0.27705  -0.48574
O     2.72227  -0.75148  -1.61559
N     3.54993   0.28946   0.23520
C     4.90642   0.40598  -0.27311
H    -3.97692   2.75148   1.16433
H    -4.97025   1.39500   1.75927
H    -3.54187   1.93655   2.68198
H    -3.50696  -0.11718   0.67936
H     0.07190  -1.93028  -1.60547
H    -1.48632  -2.73081  -1.97073
H    -0.59713  -3.16173  -0.50148
H     0.36911   0.76840  -2.39786
H     1.40284   1.75644  -1.30175
H    -0.36557   2.00736  -1.32977
H     1.92474  -1.19961   1.99156
H     1.11728  -2.36362   0.93460
H     0.11901  -1.17735   1.82633
H     3.33394   0.62757   1.16948
H     4.91665   0.94282  -1.23354
H     5.35616  -0.58707  -0.42815
H     5.50842   0.96195   0.45460
