33
Generated by autodE on: 2022-10-26. E = -781.619392 Ha
C     3.50734  -1.15747  -2.33087
N     2.94512  -0.79624  -1.04684
C     1.68240  -0.29866  -0.94655
O     0.97232  -0.23050  -1.97684
C     1.17780   0.13795   0.35243
C     1.80577   0.30248   1.61929
C     3.29525   0.06650   1.79777
O     1.14183   0.64991   2.62801
N    -0.21245   0.50460   0.33756
C    -0.52296   1.93075   0.54239
C    -1.14354  -0.34327   0.01809
C    -0.89088  -1.78997  -0.16913
C    -2.53434   0.17701  -0.28396
O    -2.71054   0.87494  -1.28433
N    -3.49750  -0.20433   0.56116
C    -4.88350   0.18196   0.36062
H     2.92939  -1.95948  -2.81821
H     4.53418  -1.51317  -2.17700
H     3.53489  -0.30071  -3.02467
H     3.53315  -0.86408  -0.22923
H     3.53596  -1.00900   1.74444
H     3.90092   0.59594   1.04731
H     3.57742   0.42243   2.79750
H    -1.49462   2.04986   1.03687
H    -0.53496   2.42668  -0.43757
H     0.25685   2.36408   1.17239
H     0.01191  -2.10309   0.37358
H    -1.76711  -2.37233   0.14796
H    -0.72583  -1.98258  -1.24287
H    -3.25447  -0.81035   1.34022
H    -5.30688  -0.30366  -0.53299
H    -4.96546   1.27119   0.23114
H    -5.46486  -0.11930   1.23972
