60
Generated by autodE on: 2022-06-10. E = -1711.979121 Ha
C   -12.96437  -9.97207  -0.64498
N   -11.63721  -9.73277  -1.17589
C   -11.43446  -9.54033  -2.48235
O   -12.37622  -9.52245  -3.28846
C    -9.95956  -9.25536  -2.91676
C    -9.63054  -9.75588  -4.35913
O    -8.47474 -10.09348  -4.64659
N   -10.61397  -9.71577  -5.26116
C   -10.39643 -10.12377  -6.63427
C    -9.87599  -7.70183  -2.96063
C    -8.60304  -7.07530  -3.53312
C    -7.26330  -7.58446  -3.00384
C    -6.95709  -7.40201  -1.51970
C    -7.82627  -8.18187  -0.47972
C    -9.10842  -7.43156   0.03199
C    -9.15755  -5.93112   0.00675
O   -10.00761  -8.08888   0.52010
C    -6.96211  -8.24289   0.81429
F    -6.62887  -7.00962   1.23183
F    -7.59835  -8.83955   1.83608
F    -5.80266  -8.90264   0.63419
C    -8.19090  -9.59146  -0.96061
C    -9.01224  -9.97062  -1.96332
C    -8.93163 -11.49747  -2.09433
C   -10.19425 -12.18020  -2.41848
N   -11.16056 -12.75598  -2.70177
N    -8.40240 -11.92685  -0.80906
C    -7.84578 -13.27143  -0.80059
C    -7.52166 -10.83517  -0.38046
C    -6.11107 -11.01732  -0.96754
O    -5.79129 -10.71306  -2.09966
O    -5.30163 -11.63505  -0.11215
C    -3.97934 -11.94734  -0.57947
H   -13.64925  -9.14354  -0.88559
H   -13.38684 -10.89926  -1.06369
H   -12.89355 -10.07281   0.44487
H   -10.86397  -9.60265  -0.52630
H   -11.55419  -9.55181  -4.88984
H    -9.56654  -9.55777  -7.08359
H   -10.15056 -11.19644  -6.70594
H   -11.30967  -9.93170  -7.21099
H   -10.09469  -7.32465  -1.95735
H   -10.72730  -7.36735  -3.57060
H    -8.60352  -7.21459  -4.62612
H    -8.67844  -5.98723  -3.36684
H    -6.46957  -7.04171  -3.54287
H    -7.13817  -8.63951  -3.27621
H    -6.96907  -6.33645  -1.25531
H    -5.92158  -7.74062  -1.37816
H   -10.11940  -5.60388   0.42018
H    -9.03495  -5.54124  -1.01347
H    -8.33378  -5.51614   0.60610
H    -8.25353 -11.72982  -2.94015
H    -8.64616 -13.99463  -1.01552
H    -7.04472 -13.42173  -1.55112
H    -7.44117 -13.49716   0.19504
H    -7.43860 -10.83970   0.71206
H    -3.44277 -11.02468  -0.84312
H    -3.47756 -12.45563   0.25149
H    -4.03023 -12.60720  -1.45720
