42
Generated by autodE on: 2022-06-10. E = -1218.301433 Ha
C    -2.50185   4.49454  -0.95102
N    -1.41689   3.77633  -0.31211
C    -1.32181   2.44445  -0.37555
O    -2.13886   1.73697  -0.97408
C    -0.05847   1.81970   0.28790
C     0.34490   2.54680   1.58297
O     0.58197   3.76372   1.57463
N     0.46240   1.79835   2.68406
C     0.89253   2.36296   3.94983
C    -0.27013   0.38569   0.43900
C    -0.23927  -0.79468   0.17697
C     0.03780  -2.01218  -0.57693
C    -1.23758  -2.83394  -0.91629
C    -2.53747  -2.09001  -0.91544
O    -1.14239  -4.01023  -1.20044
C     1.03393  -2.89156   0.19960
F     1.52757  -3.89507  -0.53461
F     0.45053  -3.43112   1.28559
F     2.08649  -2.17462   0.63741
C     0.63148  -1.54119  -1.95706
C     1.62759  -0.36393  -1.93666
C     1.06022   1.08243  -1.99065
C     1.15094   1.94602  -0.71816
H    -2.51302   4.31227  -2.03722
H    -2.36856   5.56859  -0.77352
H    -3.47954   4.18645  -0.54715
H    -0.71096   4.26584   0.23988
H     0.27786   0.80144   2.62184
H     0.84507   1.58273   4.71866
H     0.24073   3.19844   4.24672
H     1.92545   2.74069   3.88806
H    -2.84316  -1.94090   0.13441
H    -2.43249  -1.08787  -1.35483
H    -3.30360  -2.67681  -1.43778
H    -0.22375  -1.27141  -2.59544
H     1.09637  -2.42573  -2.41541
H     2.24427  -0.50253  -2.83798
H     2.32146  -0.46694  -1.08881
H     1.63581   1.62555  -2.75572
H     0.02235   1.06782  -2.36070
H     2.06431   1.68656  -0.15989
H     1.22957   3.00872  -0.98651
