60
Generated by autodE on: 2022-06-10. E = -1711.892423 Ha. Imaginary frequency = -196.1 cm-1
C   -12.82093 -10.20298  -1.00314
N   -11.54658  -9.76559  -1.53534
C   -11.31062  -9.70829  -2.85000
O   -12.20176  -9.89694  -3.69144
C    -9.87060  -9.28973  -3.24831
C    -9.34669  -9.91075  -4.56544
O    -8.13065 -10.08805  -4.71743
N   -10.24677 -10.15860  -5.52050
C    -9.86393 -10.72590  -6.79737
C    -9.95488  -7.73117  -3.43348
C    -8.68183  -6.98270  -3.83636
C    -7.48148  -6.99676  -2.86971
C    -7.82939  -6.76622  -1.38494
C    -7.73491  -8.04701  -0.47045
C    -8.73102  -7.83294   0.71322
C    -8.39069  -6.82861   1.77503
O    -9.78575  -8.43830   0.72529
C    -6.29630  -8.20432   0.04571
F    -5.79363  -7.06585   0.55572
F    -6.21213  -9.12697   1.02059
F    -5.46542  -8.57588  -0.94630
C    -8.17585  -9.23226  -1.23887
C    -8.91907  -9.59032  -2.15995
C    -8.90183 -11.97412  -2.09846
C   -10.12749 -12.52041  -2.54147
N   -11.12814 -12.93847  -2.97309
N    -8.55449 -12.01835  -0.79158
C    -9.60089 -12.16651   0.23225
C    -7.38561 -11.51499  -0.36138
C    -6.17542 -11.50943  -1.17848
O    -6.10240 -11.65271  -2.39250
O    -5.08888 -11.34829  -0.40489
C    -3.83105 -11.24941  -1.07947
H   -12.76155 -10.20393   0.09213
H   -13.63971  -9.53559  -1.31526
H   -13.05804 -11.22160  -1.34984
H   -10.78754  -9.55110  -0.88826
H   -11.22826 -10.08464  -5.23858
H    -9.07370 -10.12404  -7.27055
H    -9.48416 -11.75558  -6.68758
H   -10.74013 -10.74255  -7.45733
H   -10.34109  -7.32715  -2.48600
H   -10.72922  -7.54548  -4.19283
H    -8.33846  -7.33071  -4.82367
H    -8.99529  -5.93442  -3.97921
H    -6.79563  -6.19786  -3.19142
H    -6.92317  -7.93438  -2.98669
H    -8.85633  -6.38316  -1.29625
H    -7.18376  -5.99252  -0.95050
H    -9.28481  -6.63113   2.37962
H    -8.00574  -5.89563   1.34005
H    -7.60114  -7.23667   2.42642
H    -8.09877 -11.88399  -2.82539
H   -10.45793 -12.70695  -0.18160
H    -9.19179 -12.72210   1.08354
H    -9.91405 -11.16616   0.56317
H    -7.26057 -11.45176   0.71633
H    -3.84384 -10.42585  -1.80741
H    -3.08553 -11.05220  -0.30021
H    -3.59405 -12.18951  -1.59922
