36
Generated by autodE on: 2022-05-29. E = -1197.620965 Ha
C    -4.33108  -1.27175   0.51308
O    -3.27719  -0.29382   0.51608
C    -2.17684  -0.59159  -0.16791
O    -2.01273  -1.62555  -0.77541
C    -1.14805   0.54849  -0.06686
C    -1.81863   1.79911  -0.67212
C    -1.64781   3.09939   0.04172
O    -2.42892   1.67681  -1.71920
N    -0.80182   0.71472   1.34918
C     0.39536   0.31751   1.56041
C     1.02958   0.33452   2.90856
C     1.15479  -0.15016   0.31817
C     1.56658  -1.60861   0.44135
F     1.89069  -2.16773  -0.73461
F     2.63875  -1.74431   1.24940
F     0.57816  -2.35875   0.96888
C     2.34586   0.83963  -0.01864
C     2.97528   0.39556  -1.33003
C     2.08522   0.72297  -2.27423
C     0.92001   1.35329  -1.53090
O     1.58474   1.98112  -0.41848
C     0.15534   0.17909  -0.82663
H    -4.68076  -1.44998  -0.51372
H    -5.13671  -0.84709   1.12236
H    -3.97602  -2.21513   0.95144
H    -2.05822   3.91878  -0.56194
H    -2.16745   3.04238   1.01157
H    -0.58311   3.26845   0.26426
H     1.95469   0.93237   2.89244
H     1.31259  -0.68457   3.21637
H     0.33897   0.75376   3.65102
H     3.00736   1.06350   0.82388
H     3.91118  -0.15366  -1.42336
H     2.10534   0.50853  -3.34252
H     0.30205   2.06777  -2.08298
H    -0.03170  -0.64607  -1.51859
