36
Generated by autodE on: 2022-05-29. E = -1197.521353 Ha. Imaginary frequency = -314.3 cm-1
C    -3.83782  -1.82158  -0.84732
O    -3.10787  -0.59178  -0.74921
C    -2.36081  -0.43354   0.35043
O    -2.28684  -1.27689   1.23073
C    -1.60507   0.83038   0.37941
C    -1.89212   2.03999  -0.40114
C    -1.27561   3.32426   0.10002
O    -2.57509   2.01815  -1.42452
N    -0.77214   0.92775   1.43278
C     0.28818   0.65178   1.89790
C     1.15425   0.66229   3.06885
C     1.24007  -0.34551  -0.04943
C     1.55401  -1.69642   0.47537
F     0.45088  -2.42147   0.73460
F     2.28857  -1.66366   1.61134
F     2.29255  -2.41840  -0.40836
C     2.34922   0.70402  -0.33820
C     2.98281   0.33764  -1.69882
C     2.03175   0.59454  -2.60287
C     0.83137   1.11573  -1.78339
O     1.52187   1.81008  -0.72507
C     0.28953  -0.10206  -1.01204
H    -3.15088  -2.68047  -0.84559
H    -4.54683  -1.92119  -0.01256
H    -4.37963  -1.77315  -1.79916
H    -1.56590   4.14533  -0.56777
H    -1.60883   3.54225   1.12681
H    -0.17948   3.23123   0.12049
H     1.15409  -0.34569   3.51102
H     0.77578   1.38648   3.80679
H     2.18527   0.91146   2.78215
H     3.02212   0.95820   0.48720
H     3.97565  -0.08970  -1.83349
H     2.02700   0.42325  -3.67874
H     0.10601   1.75505  -2.29590
H    -0.43132  -0.80348  -1.42660
