20
Generated by autodE on: 2022-06-22. E = -457.715329 Ha
C    -3.01279   0.59990   0.80911
N    -1.79235  -0.05693   0.37009
C    -1.86626  -1.32088  -0.22920
C    -0.79359  -1.94231  -0.74405
C     0.59180  -1.34465  -0.72989
C     0.56907   0.03336  -0.08900
C     1.79358   0.84047   0.03419
N     2.92812   0.28248  -0.45841
O     1.82053   1.97504   0.55375
C    -0.58389   0.57178   0.39930
H    -2.75599   1.51627   1.35526
H    -3.58590  -0.05841   1.48006
H    -3.65689   0.86867  -0.04543
H    -2.86338  -1.76480  -0.24338
H    -0.92968  -2.93057  -1.18926
H     1.29134  -2.01914  -0.19421
H     0.99422  -1.29489  -1.76231
H     2.95032  -0.63784  -0.87878
H     3.79481   0.80441  -0.38841
H    -0.57212   1.56432   0.85227
