27
Generated by autodE on: 2022-07-27. E = -665.786794 Ha
C     2.51450  -0.30940  -2.03887
N     1.78948  -0.17004  -0.78958
C     1.20333  -1.23467  -0.21767
O     1.39601  -2.39316  -0.59004
C     0.40678  -0.98581   1.05081
C     0.55052  -2.02161   2.10920
N    -0.31400   0.09017   1.24833
C    -0.86521   0.36376   2.59009
C    -0.77091   0.91891   0.18723
C    -0.88239   2.29894   0.42734
N    -0.97081   3.45361   0.60299
C    -1.27750   0.31479  -1.01191
C    -1.92110   1.23494  -2.02629
O    -1.19290  -0.90707  -1.23187
H     3.29953  -1.07347  -1.94628
H     2.97990   0.65181  -2.28793
H     1.84109  -0.60579  -2.86042
H     1.48218   0.75970  -0.51786
H     1.29556  -1.69646   2.85728
H    -0.39633  -2.20747   2.63453
H     0.90962  -2.95032   1.65204
H    -1.13036   1.42429   2.64786
H    -1.76916  -0.24307   2.74216
H    -0.12139   0.13279   3.35964
H    -2.67182   1.89613  -1.56906
H    -2.38975   0.62885  -2.81238
H    -1.14990   1.87675  -2.48342
