27
Generated by autodE on: 2022-06-22. E = -665.785927 Ha
C     2.76469  -1.97132   1.62559
N     2.46167  -0.91213   0.68186
C     1.35302  -0.16652   0.82456
O     0.64283  -0.19411   1.83110
C     1.08828   0.84074  -0.27464
C     2.22762   1.61678  -0.84472
N    -0.14605   1.14005  -0.60173
C    -0.40196   2.32678  -1.44064
C    -1.24733   0.28545  -0.34341
C    -2.49008   0.88228  -0.07214
N    -3.53388   1.35936   0.16326
C    -1.11802  -1.13104  -0.51425
C    -2.37135  -1.96499  -0.35362
O    -0.03216  -1.67948  -0.78306
H     3.75067  -2.38898   1.38853
H     2.78040  -1.57721   2.65131
H     2.01181  -2.77618   1.57702
H     2.90637  -0.94227  -0.23052
H     3.18575   1.13993  -0.61375
H     2.24986   2.63041  -0.40717
H     2.13235   1.73066  -1.93473
H    -1.47237   2.55115  -1.41788
H     0.16048   3.18737  -1.06215
H    -0.10124   2.11289  -2.47605
H    -3.23778  -1.53131  -0.87329
H    -2.62716  -2.03434   0.71706
H    -2.17771  -2.97662  -0.73395
