47
Generated by autodE on: 2022-06-22. E = -1123.472230 Ha. Imaginary frequency = -345.5 cm-1
C     3.79361   0.03754  -2.25030
N     3.00175   0.15878  -1.04310
C     1.93811  -0.64631  -0.83687
O     1.77374  -1.68888  -1.47973
C     1.17866  -0.28738   0.46193
C     1.95860  -0.94575   1.59529
N     0.91821   1.07078   0.63296
C     0.97498   1.60530   1.99469
C     0.07475   1.83127  -0.25798
C    -0.81541   2.73447   0.34937
N    -1.58923   3.47458   0.82965
C    -0.01037   1.69977  -1.66478
C    -0.95423   2.64457  -2.40275
O     0.62396   0.84864  -2.34159
C    -1.32927  -0.71079   1.48951
N    -2.36255   0.07954   1.31528
C    -3.00279   0.75415   2.44635
C    -2.87186   0.34126   0.02167
C    -2.33503  -0.25700  -1.04624
C    -1.21243  -1.24662  -0.96837
C    -0.57958  -1.33753   0.43192
C    -0.17281  -2.72944   0.89170
N     0.31896  -3.54403  -0.06220
O    -0.33216  -3.10072   2.06352
H     4.12597  -1.00090  -2.38538
H     4.67697   0.68375  -2.16817
H     3.21416   0.33404  -3.14124
H     2.96087   1.06856  -0.59492
H     1.39353  -0.98811   2.53385
H     2.89913  -0.40303   1.77002
H     2.22448  -1.96905   1.30538
H     0.10877   1.29599   2.60775
H     0.98988   2.70008   1.94970
H     1.89046   1.28352   2.49999
H    -0.66052   3.69751  -2.26597
H    -0.91269   2.40120  -3.47299
H    -1.99407   2.54792  -2.05755
H    -1.04435  -0.90471   2.52280
H    -2.55653   0.39739   3.38095
H    -4.07915   0.53370   2.43901
H    -2.85177   1.83758   2.34508
H    -3.69445   1.05301  -0.01308
H    -2.75921  -0.04563  -2.03010
H    -1.59915  -2.23597  -1.27395
H    -0.46406  -0.98190  -1.72755
H     0.67315  -4.44345   0.25168
H     0.77978  -3.08904  -0.85640
