39
Generated by autodE on: 2022-05-29. E = -1027.315395 Ha
C    -3.27778  -2.27435   0.67764
N    -2.68302  -2.50812  -0.62433
C    -1.45935  -2.15215  -1.06002
O    -1.05137  -2.45452  -2.19573
C    -0.54333  -1.42152  -0.15578
C    -0.65641  -0.25857   0.52654
C    -1.77061   0.68376   0.64707
C    -2.67790   0.87195  -0.41352
C    -3.74765   1.75695  -0.28151
C    -3.92603   2.47238   0.90782
C    -3.02069   2.30683   1.96110
C    -1.94611   1.42607   1.83053
C     0.76400   0.03643   1.01635
O     1.31454  -1.27559   1.18468
C     0.94051  -1.77764  -0.10032
C     1.66187  -0.76986  -1.04537
N     3.09555  -1.06196  -1.13017
N     3.81776  -0.20911  -0.61133
C     3.01125   0.94025  -0.01064
C     3.46612   1.12439   1.43893
C     3.35751   2.13055  -0.79304
N     3.63591   3.07253  -1.41125
C     1.53121   0.54911  -0.24152
H    -2.49602  -2.12802   1.43241
H    -3.93557  -1.39060   0.68035
H    -3.87506  -3.15153   0.96435
H    -3.25496  -2.97575  -1.32448
H    -2.52820   0.33654  -1.35263
H    -4.44185   1.89528  -1.11355
H    -4.76481   3.16487   1.00994
H    -3.15235   2.86706   2.88960
H    -1.24662   1.29604   2.65871
H     0.86419   0.63736   1.92392
H     1.21675  -2.82843  -0.23200
H     1.23526  -0.79045  -2.05445
H     4.53907   1.35931   1.46838
H     3.29029   0.19613   1.99699
H     2.90865   1.94468   1.91157
H     0.97690   1.33568  -0.76230
