9
Generated by autodE on: 2022-05-29. E = -280.430046 Ha
C    -1.77013  -0.06665  -0.64000
C    -0.35100  -0.00513  -0.12759
C     0.29904   1.20840   0.18846
N     0.79053   2.23888   0.43461
N     0.33438  -1.10997   0.04546
N     0.89739  -2.08544   0.18281
H    -2.06047  -1.11030  -0.82160
H    -1.86426   0.49170  -1.58428
H    -2.46574   0.36692   0.09519
