37
Generated by autodE on: 2022-05-29. E = -1265.234970 Ha
C    -2.52560   2.92408   0.17755
C    -1.32970   2.04313  -0.03767
O    -0.29132   2.46674  -0.50560
C    -1.39563   0.60833   0.52396
N    -0.76998   0.77983   1.87266
N     0.22174   0.06567   2.05345
C     0.55061  -0.81025   0.90741
C     1.98561  -0.61670   0.48564
C     2.77186  -1.73161   0.17047
C     4.09455  -1.57015  -0.25143
C     4.64445  -0.28891  -0.35327
C     3.86459   0.82857  -0.03515
C     2.54111   0.66677   0.37918
C    -0.57178  -0.54989  -0.14373
Cl    0.10574  -0.20857  -1.78880
C    -1.59525  -1.71552  -0.20908
C    -2.65650  -1.44355  -1.28754
C    -3.41865  -0.21316  -0.72045
C    -2.79874  -0.02176   0.68718
C    -2.42803  -1.46776   1.06523
H    -2.74663   2.95561   1.25750
H    -2.30760   3.93604  -0.18691
H    -3.42208   2.52798  -0.31927
H     0.44888  -1.83759   1.28639
H     2.34104  -2.73251   0.25383
H     4.69774  -2.44754  -0.49669
H     5.67959  -0.16048  -0.67861
H     4.28861   1.83248  -0.11420
H     1.93051   1.54271   0.60263
H    -1.09433  -2.68885  -0.29269
H    -2.22016  -1.26031  -2.27628
H    -3.31620  -2.31957  -1.36674
H    -4.49704  -0.40587  -0.63040
H    -3.29847   0.67209  -1.35935
H    -3.43055   0.52428   1.39697
H    -3.30500  -2.12848   1.11485
H    -1.87426  -1.55993   2.00893
