15
Generated by autodE on: 2022-05-29. E = -379.978864 Ha
N     2.98819   1.61414   0.27414
N     2.37308   0.65892   0.15811
C     1.64377  -0.40836   0.02678
C     0.18938  -0.34268  -0.02430
C    -0.53613  -1.54291  -0.17683
C    -1.92983  -1.52842  -0.23239
C    -2.63213  -0.32170  -0.13743
C    -1.92008   0.87399   0.01465
C    -0.52650   0.86957   0.07140
H     2.19226  -1.34896  -0.04460
H     0.00613  -2.48859  -0.25229
H    -2.47236  -2.46967  -0.35134
H    -3.72347  -0.31243  -0.18115
H    -2.45616   1.82333   0.09061
H     0.01038   1.81376   0.19105
