51
Generated by autodE on: 2022-06-23. E = -1109.698866 Ha
C     2.84960   3.30474   1.02173
N     2.41343   2.00213   0.56038
C     1.11166   1.66704   0.53366
O     0.23851   2.48596   0.85147
C     0.75704   0.28404  -0.09237
C     1.98970  -0.63262  -0.16825
C     2.62223  -1.10208   0.99702
C     3.74380  -1.93055   0.91953
C     4.26386  -2.30388  -0.32405
C     3.64910  -1.83705  -1.48763
C     2.52298  -1.01097  -1.40776
N     0.21809   0.54485  -1.43343
C    -1.24739   0.71681  -1.45434
C    -1.86128  -0.24163  -2.48389
C    -1.64039   2.15224  -1.82601
C    -1.67809   0.38503   0.01232
N    -2.96104  -0.27509   0.13608
C    -4.09014   0.53804   0.54454
C    -3.02025  -1.64301   0.25078
C    -1.93504  -2.44765   0.30473
C    -0.54002  -1.90022   0.24943
C    -0.46377  -0.39125   0.62492
C    -0.42500  -0.23953   2.14909
N    -1.48736  -0.73560   2.81205
O     0.50753   0.30463   2.75312
H     2.38124   4.10937   0.43384
H     2.58703   3.46509   2.08026
H     3.93898   3.37438   0.91366
H     3.10983   1.30249   0.33051
H     2.23281  -0.80880   1.97060
H     4.21430  -2.28641   1.83948
H     5.14203  -2.95138  -0.38357
H     4.04373  -2.11734  -2.46750
H     2.03944  -0.66011  -2.31811
H     0.71015   1.30219  -1.90071
H    -2.95331  -0.12273  -2.53659
H    -1.63982  -1.29151  -2.25133
H    -1.44375  -0.01773  -3.47808
H    -1.28730   2.39412  -2.84207
H    -2.73482   2.27005  -1.81496
H    -1.20241   2.87358  -1.12298
H    -1.74769   1.33425   0.55214
H    -5.02158  -0.03286   0.41971
H    -4.16107   1.44268  -0.07779
H    -4.01852   0.85407   1.60309
H    -4.03223  -2.05290   0.31551
H    -2.07765  -3.52746   0.37152
H     0.12536  -2.47416   0.91268
H    -0.11438  -2.01805  -0.76069
H    -2.16715  -1.32730   2.34091
H    -1.46070  -0.72770   3.82737
