20
Generated by autodE on: 2022-06-23. E = -457.715320 Ha
C     3.06655  -0.55669   0.62015
N     1.81512   0.06859   0.22499
C     1.83776   1.31529  -0.41293
C     0.72637   1.91960  -0.86207
C    -0.65166   1.32040  -0.72426
C    -0.57404  -0.03835  -0.04726
C    -1.78157  -0.84473   0.19178
N    -2.95391  -0.29847  -0.21849
O    -1.76252  -1.96858   0.73433
C     0.61498  -0.55995   0.36742
H     2.85195  -1.48181   1.16970
H     3.68629  -0.80520  -0.25778
H     3.64689   0.11279   1.27429
H     2.82909   1.76021  -0.51669
H     0.82453   2.89394  -1.34621
H    -1.13214   1.23923  -1.72072
H    -1.31083   2.00906  -0.15636
H    -3.81142  -0.81730  -0.06436
H    -3.01190   0.61749  -0.64477
H     0.64098  -1.53836   0.84962
