31
Generated by autodE on: 2022-07-27. E = -651.950418 Ha
C     1.70421   2.31164   2.87111
N     1.19736   1.27107   2.00386
C     0.03584   1.43599   1.30439
O    -0.68054   2.45418   1.51542
C    -0.34638   0.45140   0.31440
N    -1.47805   0.86668  -0.37319
C    -2.35038   0.26619  -1.14740
C    -2.31224  -1.19957  -1.39335
C    -3.42485   1.09067  -1.77521
C     0.50386  -0.64176  -0.16419
C     1.14457  -1.53134   0.72983
C     2.00245  -2.53195   0.26901
C     2.23745  -2.69254  -1.10042
C     1.60740  -1.82704  -2.00271
C     0.76249  -0.81636  -1.54520
H     2.02807   3.21219   2.31756
H     0.93612   2.62670   3.59298
H     2.56590   1.92263   3.42977
H     1.83880   0.54595   1.70471
H    -1.68555   1.84514  -0.12632
H    -3.31824  -1.55321  -1.66106
H    -1.95626  -1.74224  -0.50442
H    -1.63328  -1.46657  -2.22325
H    -3.34159   1.05498  -2.87627
H    -4.41993   0.68665  -1.52277
H    -3.37281   2.14378  -1.46163
H     0.94546  -1.45063   1.80015
H     2.47786  -3.20379   0.98849
H     2.90150  -3.48150  -1.46083
H     1.78716  -1.93157  -3.07598
H     0.30789  -0.13271  -2.26503
