31
Generated by autodE on: 2022-06-23. E = -651.950476 Ha
C     0.12761   4.02511  -0.54164
N     0.27285   2.64164  -0.14511
C    -0.77275   1.76673  -0.22831
O    -1.92145   2.19401  -0.53200
C    -0.54446   0.35721   0.01019
N    -1.69551  -0.37340  -0.24829
C    -2.09133  -1.58990   0.04352
C    -3.41097  -2.05010  -0.48092
C    -1.28126  -2.50289   0.89268
C     0.77000  -0.27591   0.14924
C     1.73513   0.20728   1.06342
C     3.00627  -0.36427   1.14737
C     3.35344  -1.44918   0.33563
C     2.41014  -1.94732  -0.57104
C     1.14505  -1.36864  -0.66900
H     1.04419   4.56938  -0.27784
H    -0.71774   4.49570  -0.01774
H    -0.04666   4.14493  -1.62672
H     1.21024   2.26470  -0.06967
H    -2.39398   0.23873  -0.69423
H    -3.93932  -1.25216  -1.02298
H    -4.04971  -2.41147   0.34262
H    -3.27476  -2.90271  -1.17032
H    -0.74119  -1.94441   1.67248
H    -1.93912  -3.24753   1.36326
H    -0.51970  -3.05128   0.30941
H     1.47341   1.02751   1.73464
H     3.72614   0.03253   1.86803
H     4.34494  -1.90184   0.40863
H     2.66733  -2.78871  -1.21990
H     0.43635  -1.75324  -1.40529
