44
Generated by autodE on: 2022-06-01. E = -1385.822078 Ha
C    -2.22098   3.62230   0.36927
N    -2.03304   2.23695  -0.01616
C    -1.45620   1.35321   0.81337
O    -1.20692   1.61553   1.99250
C    -1.14238  -0.03387   0.21179
C    -2.30950  -0.49473  -0.76808
C    -2.18862  -1.97131  -1.08104
C    -1.13132  -2.07055  -1.89296
C    -0.62611  -0.65417  -2.08046
O    -1.84664   0.09990  -1.98805
C     0.10209  -0.11383  -0.76265
C     0.76614   1.21838  -1.17177
F     1.89050   0.98374  -1.87380
F     1.11435   1.97960  -0.11370
F     0.00051   1.99200  -1.95555
C     1.12905  -1.07904  -0.04667
C     1.93215  -1.95347  -1.01665
C     2.10494  -0.26720   0.86067
O     1.81775   0.12173   1.97393
O     3.30006  -0.07689   0.31178
C     4.24617   0.69647   1.06755
N     0.25268  -1.88681   0.80235
C     0.86782  -2.78881   1.76079
C    -0.78976  -1.02548   1.34223
C    -1.94754  -1.78737   1.83119
N    -2.85116  -2.36378   2.27548
H    -2.78764   4.13582  -0.41707
H    -2.77931   3.69048   1.31386
H    -1.25286   4.13363   0.50429
H    -2.10523   1.99090  -0.99953
H    -3.29626  -0.12094  -0.48042
H    -2.81065  -2.76197  -0.66721
H    -0.68071  -2.96354  -2.32094
H    -0.08502  -0.43581  -3.00619
H     2.44753  -1.34043  -1.76362
H     1.27073  -2.66039  -1.52756
H     2.69234  -2.52948  -0.47299
H     3.84882   1.70605   1.24524
H     5.15293   0.74466   0.45432
H     4.45884   0.20883   2.02924
H     1.36826  -2.26932   2.59955
H     1.60299  -3.42844   1.25437
H     0.09454  -3.44868   2.18254
H    -0.44665  -0.43565   2.20867
