23
Generated by autodE on: 2022-06-01. E = -852.835742 Ha
C     3.94454  -1.29349  -0.33807
N     2.60254  -1.23415   0.20680
C     1.78585  -0.19344  -0.05276
O     2.13724   0.77329  -0.74027
C     0.42906  -0.28109   0.53891
C    -0.69448   0.34254   0.15308
C    -0.95385   1.27395  -0.98473
F    -0.46755   2.50888  -0.76235
F    -2.28195   1.40788  -1.18529
F    -0.42960   0.84367  -2.14574
C    -1.80761  -0.21212   1.07784
C    -2.02451  -1.68912   0.67623
C    -0.91181  -2.31541   1.06738
C    -0.03873  -1.20909   1.69991
O    -1.04743  -0.37321   2.28473
H     3.92934  -1.32926  -1.43950
H     4.44174  -2.19478   0.03941
H     4.52885  -0.41003  -0.03779
H     2.26250  -2.02015   0.75065
H    -2.69221   0.41654   1.21669
H    -2.89251  -2.06721   0.13797
H    -0.60898  -3.35403   0.94184
H     0.72448  -1.51037   2.42476
