21
Generated by autodE on: 2022-06-01. E = -532.914979 Ha
C     3.42931  -0.57367  -1.45901
O     2.10123  -1.05092  -1.23520
C     1.27126  -0.22392  -0.55891
O     1.66051   0.87629  -0.16635
C    -0.05528  -0.79122  -0.37637
C    -0.39080  -2.14743  -0.92565
N    -1.00439  -0.09497   0.30082
C    -2.31876  -0.75981   0.44616
C    -0.86835   1.13331   0.85018
C    -1.90593   1.77544   1.53539
N    -2.72095   2.38046   2.12209
H     3.94287  -0.37954  -0.50541
H     3.94713  -1.36897  -2.00854
H     3.41924   0.35080  -2.05575
H    -1.23362  -2.11270  -1.63544
H     0.47430  -2.55343  -1.45621
H    -0.66401  -2.86355  -0.13266
H    -2.18811  -1.71419   0.96831
H    -2.74635  -0.94212  -0.54641
H    -2.99288  -0.12044   1.02052
H     0.09081   1.63061   0.74678
