44
Generated by autodE on: 2022-06-01. E = -1385.745259 Ha. Imaginary frequency = -170.3 cm-1
C    -2.62993   3.66815   0.58426
N    -2.24384   2.39526   0.00512
C    -1.47682   1.51242   0.67481
O    -1.08936   1.72009   1.82820
C    -1.17858   0.27366  -0.13865
C    -2.36890  -0.49170  -0.82602
C    -2.02974  -1.97621  -0.87822
C    -1.03604  -2.07300  -1.76810
C    -0.78625  -0.64597  -2.23854
O    -2.13223  -0.10632  -2.19984
C    -0.15742   0.15409  -1.05624
C     0.83789   1.19329  -1.41353
F     1.96187   0.68317  -1.95938
F     1.20811   1.96751  -0.37335
F     0.33727   2.04261  -2.35236
C     1.47700  -1.48947   0.48203
C     2.26282  -2.40412  -0.40970
C     2.16337  -0.30761   1.04002
O     1.78647   0.38241   1.97716
O     3.34060  -0.09225   0.43222
C     4.09814   1.03654   0.87955
N     0.36056  -1.94744   1.10302
C     0.07042  -3.39350   1.04205
C    -0.52724  -1.10685   1.69821
C    -1.69813  -1.58708   2.32303
N    -2.70535  -1.89885   2.82606
H    -3.34991   4.15701  -0.08342
H    -3.09966   3.51824   1.56741
H    -1.76053   4.33291   0.71863
H    -2.42997   2.21978  -0.97826
H    -3.36540  -0.20508  -0.47765
H    -2.47963  -2.74225  -0.24991
H    -0.44975  -2.93977  -2.06749
H    -0.31218  -0.50352  -3.21469
H     2.84507  -1.80288  -1.11635
H     1.61694  -3.07393  -0.98715
H     2.97375  -3.02411   0.16542
H     3.52492   1.96392   0.74041
H     5.00256   1.05476   0.26026
H     4.36777   0.92930   1.94024
H     0.90261  -3.92929   1.51702
H    -0.03908  -3.73769   0.01132
H    -0.85192  -3.60173   1.59028
H    -0.18132  -0.12862   2.01500
