40
Generated by autodE on: 2022-06-20. E = -1023.754944 Ha
C     4.49184   0.57160  -1.14069
N     3.48053   0.20468  -0.16854
C     2.17885   0.15406  -0.48105
O     1.75728   0.33755  -1.63229
C     1.22576  -0.23078   0.65823
N     0.56705  -1.50979   0.40029
C     1.38756  -2.66523   0.08905
C    -0.66740  -1.32329  -0.34023
C    -0.59352  -1.76414  -1.75318
N    -0.50286  -2.12082  -2.85285
C    -1.76614  -2.07448   0.30892
N    -2.60919  -2.66523   0.84176
C    -0.92198   0.26013  -0.30713
N    -2.27518   0.69514  -0.17183
C    -3.15500   0.46868  -1.30677
C    -2.80991   0.83817   1.10766
C    -2.07452   0.82506   2.23271
C    -0.59922   0.55621   2.22066
C     0.03375   0.73418   0.81309
C     0.46108   2.19402   0.65342
N    -0.45340   3.03121   0.14406
O     1.58019   2.55959   1.02645
H     4.35364  -0.00135  -2.06880
H     5.48397   0.35059  -0.72841
H     4.44170   1.64468  -1.39068
H     3.74463   0.12169   0.80772
H     1.78880  -0.30338   1.59951
H     0.77311  -3.57708   0.12841
H     2.17947  -2.75447   0.84620
H     1.86314  -2.60879  -0.90850
H    -0.53043   0.61845  -1.26531
H    -3.44287  -0.59358  -1.41919
H    -4.07251   1.06147  -1.18634
H    -2.65107   0.78775  -2.23132
H    -3.88607   1.02380   1.12560
H    -2.57018   0.99686   3.18981
H    -0.06921   1.21466   2.92737
H    -0.39768  -0.47270   2.56331
H    -0.22984   4.01849   0.06168
H    -1.36801   2.69499  -0.14686
