48
Generated by autodE on: 2022-06-22. E = -1033.189730 Ha
C     0.66945   2.44961  -2.03250
N     0.42243   1.76422  -0.78079
C     0.31164   2.46811   0.39559
C     0.46841   1.92091   1.62112
C     0.79868   0.46907   1.81485
C     1.34701  -0.19043   0.52137
C     2.85544   0.03934   0.41904
N     3.25268   1.32440   0.39154
O     3.66372  -0.89507   0.36422
C     0.58867   0.33820  -0.73140
C    -0.74713  -0.51399  -0.77808
C    -0.98577  -0.96587  -2.23222
C    -1.96202   0.27327  -0.27310
C    -2.50189   1.31616  -1.04575
C    -3.58543   2.06714  -0.58456
C    -4.16582   1.78159   0.65573
C    -3.65017   0.73586   1.42490
C    -2.55789  -0.00633   0.96404
N    -0.44898  -1.63854   0.12964
C    -1.16349  -2.88171  -0.06100
C     0.96820  -1.69914   0.46296
C     1.25256  -2.47871   1.75368
C     1.69484  -2.39352  -0.64809
N     2.08869  -3.02037  -1.54409
H     1.74894   2.52054  -2.26647
H     0.17261   1.92924  -2.86459
H     0.26240   3.46944  -1.97923
H     0.09437   3.53270   0.27352
H     0.33432   2.54992   2.50259
H     1.53545   0.34678   2.62524
H    -0.09611  -0.08519   2.13433
H     2.59756   2.07954   0.57739
H     4.24922   1.52112   0.40201
H     1.17644   0.04915  -1.61372
H    -0.16148  -1.60715  -2.57509
H    -1.03379  -0.09727  -2.90262
H    -1.92867  -1.52237  -2.33069
H    -2.06929   1.55852  -2.01640
H    -3.97910   2.88024  -1.19972
H    -5.01485   2.36755   1.01618
H    -4.09602   0.49534   2.39342
H    -2.15278  -0.81334   1.57350
H    -0.81265  -3.47414  -0.92961
H    -1.07605  -3.51250   0.83552
H    -2.23168  -2.66859  -0.20708
H     2.30962  -2.36681   2.02615
H     1.04337  -3.54870   1.62015
H     0.62237  -2.10023   2.56807
