20
Generated by autodE on: 2022-06-22. E = -457.715339 Ha
C     3.06486   0.78364  -0.27787
N     1.83015   0.06914   0.00260
C     1.87146  -1.30803   0.25497
C     0.76378  -2.05027   0.41038
C    -0.63034  -1.47916   0.32611
C    -0.57634   0.00767   0.01579
C    -1.80569   0.80220  -0.13788
N    -2.97357   0.12507  -0.00245
O    -1.80802   2.02680  -0.37787
C     0.61019   0.66280  -0.12569
H     2.86552   1.86261  -0.29546
H     3.49267   0.48893  -1.25151
H     3.81222   0.57955   0.50384
H     2.87496  -1.73253   0.32035
H     0.87784  -3.11762   0.61322
H    -1.21727  -2.02331  -0.44185
H    -1.17696  -1.66600   1.27346
H    -3.84468   0.63332  -0.10816
H    -3.01194  -0.86920   0.18218
H     0.61816   1.73050  -0.35066
