23
Generated by autodE on: 2022-06-17. E = -351.521382 Ha
C     3.65277   0.89269  -0.40211
C     2.57955   0.11308  -0.14475
C     2.73811  -1.33632   0.23783
C     1.23228   0.67242  -0.23536
C     0.07854  -0.00267  -0.00275
C    -1.23448   0.60074  -0.10557
C    -2.43050  -0.00348   0.10934
C    -2.59594  -1.44479   0.49986
C    -3.71556   0.76135  -0.03762
H     3.53442   1.94476  -0.67937
H     4.67162   0.50007  -0.34141
H     3.79788  -1.62582   0.27075
H     2.29303  -1.53738   1.22649
H     2.22101  -1.99544  -0.47922
H     1.17113   1.73079  -0.51615
H     0.13200  -1.05821   0.27709
H    -1.24756   1.66047  -0.38776
H    -3.14698  -1.52103   1.45387
H    -3.20939  -1.97511  -0.24997
H    -1.64707  -1.98555   0.60900
H    -4.29096   0.74499   0.90548
H    -4.36516   0.29259  -0.79866
H    -3.54561   1.80982  -0.32339
