13
Generated by autodE on: 2022-07-27. E = -357.898963 Ha
C     1.11681  -0.60922  -2.97248
C     0.24372  -0.52130  -1.78376
N     0.63414   0.00634  -0.66588
C    -0.07036   0.15969   0.53851
C     0.57941   0.76480   1.62303
N     1.11297   1.26911   2.53671
C    -1.39405  -0.29060   0.63407
N    -2.50003  -0.67186   0.69860
H     0.64523  -0.08415  -3.82082
H     1.22449  -1.66410  -3.27800
H     2.11228  -0.18042  -2.78716
H    -0.77828  -0.91064  -1.82018
H     1.59248   0.36965  -0.63668
