26
Generated by autodE on: 2022-06-29. E = -578.022636 Ha
C     1.63267   0.94221  -2.02255
C     1.47872   0.12862  -0.78840
C     0.40607  -0.24790  -0.05869
C    -1.02520  -0.02353  -0.23617
C    -1.86972   0.05784   0.89170
C    -3.23849   0.29127   0.74871
C    -3.80041   0.43793  -0.52365
C    -2.97895   0.34277  -1.65283
C    -1.61009   0.11150  -1.51406
C     1.02124  -0.89866   1.21554
C     1.69330   0.22757   2.03101
C     2.74990   0.59277   1.29760
C     2.69819  -0.32433   0.05456
O     2.17830  -1.53114   0.64068
H     1.95249   0.32038  -2.87773
H     2.42245   1.69927  -1.87537
H     0.70428   1.45715  -2.30597
H    -1.44593  -0.04864   1.89271
H    -3.87083   0.35737   1.63754
H    -4.87246   0.61609  -0.63565
H    -3.41039   0.43978  -2.65224
H    -0.98913   0.00892  -2.40491
H     0.39045  -1.61047   1.75897
H     1.31040   0.64522   2.96179
H     3.47144   1.39285   1.46065
H     3.63486  -0.49288  -0.48963
