33
Generated by autodE on: 2022-07-27. E = -876.741705 Ha
C    -4.45335   0.46019   0.25522
N    -3.15567  -0.14299   0.05415
C    -2.09483   0.20121   0.82693
O    -2.23938   0.95959   1.81277
C    -0.78765  -0.33933   0.46192
C    -0.53200  -1.07976  -0.73180
O    -1.37953  -1.39833  -1.57878
O     0.76440  -1.46374  -0.88638
C     1.11296  -2.11744  -2.10492
N     0.27275  -0.02251   1.35373
C     0.09860  -0.39341   2.77476
C     1.42974   0.45579   0.97789
C     2.58392   0.54697   1.91365
C     1.59905   0.98371  -0.42482
O     0.79412   1.69337  -0.98722
O     2.77948   0.63769  -0.92081
C     3.06712   1.06865  -2.26239
H    -4.82888   0.27785   1.27471
H    -4.43703   1.55388   0.10160
H    -5.16343   0.02205  -0.45812
H    -2.95110  -0.68130  -0.78600
H     0.83390  -1.50390  -2.97409
H     2.20153  -2.24922  -2.07560
H     0.61977  -3.09814  -2.18340
H    -0.91535  -0.76771   2.91875
H     0.82228  -1.18364   3.01981
H     0.27504   0.47555   3.42032
H     2.85482  -0.45458   2.28932
H     3.45351   0.98612   1.41527
H     2.32378   1.16151   2.79047
H     4.05053   0.65216  -2.50582
H     2.30454   0.68280  -2.95337
H     3.09135   2.16628  -2.31159
