33
Generated by autodE on: 2022-06-29. E = -876.742783 Ha
C    -2.29778  -3.04925  -0.00659
N    -2.00684  -1.65552  -0.25467
C    -0.95153  -1.03661   0.32007
O    -0.16360  -1.67085   1.06261
C    -0.78480   0.39140   0.05237
C    -1.59798   1.12857  -0.86123
O    -2.62231   0.71585  -1.42587
O    -1.12634   2.37895  -1.11842
C    -1.92130   3.20280  -1.97094
N     0.25475   1.05402   0.74425
C    -0.08412   2.27552   1.50541
C     1.44625   0.53281   0.91013
C     2.40731   1.09566   1.89988
C     1.89834  -0.59063   0.01685
O     1.63582  -0.67112  -1.16505
O     2.72297  -1.41241   0.65809
C     3.21942  -2.53326  -0.08947
H    -2.65230  -3.22864   1.02361
H    -1.40405  -3.67323  -0.16247
H    -3.08082  -3.37854  -0.70191
H    -2.63828  -1.07071  -0.80083
H    -1.39743   4.16448  -2.03667
H    -2.01420   2.76010  -2.97400
H    -2.92770   3.35408  -1.55179
H     0.58133   3.09944   1.21942
H     0.03351   2.06820   2.57809
H    -1.12224   2.54243   1.30427
H     2.62802   2.15091   1.67114
H     3.34330   0.52969   1.89582
H     1.97720   1.06813   2.91497
H     3.86531  -3.09078   0.59790
H     2.38058  -3.16196  -0.42137
H     3.79332  -2.19074  -0.96201
