37
Generated by autodE on: 2022-06-20. E = -1083.286242 Ha
C    -1.46056  -0.30568  -2.60618
O    -0.34233   0.31769  -1.96208
C    -0.32088   0.37846  -0.56437
C     0.62210   1.57308  -0.27530
O     0.16461   2.69647  -0.18897
C     2.07820   1.32317  -0.18099
C     2.98684   2.48286  -0.43504
C     2.55449   0.12592   0.27037
C     4.01171  -0.09069   0.53182
C     1.63835  -0.97836   0.60330
O     1.98971  -1.95903   1.23791
C     0.18259  -0.96360   0.09018
O    -0.06045  -2.07995  -0.70973
C     0.93567  -2.43001  -1.68029
N    -0.73223  -1.05405   1.24202
C    -0.79371  -2.11676   2.04717
N    -0.85227  -3.02745   2.77072
N    -1.80600  -0.20868   1.15974
C    -1.64596   0.58563   0.15967
C    -2.67917   1.61014  -0.16512
C    -3.77997   1.81464   0.83418
O    -2.60469   2.23735  -1.20960
H    -1.91236  -1.08751  -1.98163
H    -1.07783  -0.76702  -3.52671
H    -2.21651   0.45146  -2.85976
H     2.44382   3.33283  -0.86430
H     3.46089   2.81097   0.50607
H     3.80339   2.18811  -1.11233
H     4.20555  -1.11191   0.87922
H     4.37761   0.61759   1.29348
H     4.59638   0.09864  -0.38260
H     0.43231  -3.06933  -2.41628
H     1.33407  -1.54006  -2.18665
H     1.75677  -2.99253  -1.21012
H    -3.35521   2.17569   1.78465
H    -4.49542   2.54805   0.44203
H    -4.28862   0.86286   1.04923
