11
Generated by autodE on: 2022-06-20. E = -393.762408 Ha
C    -3.09393   0.42578  -0.38269
C    -1.83994   0.84015   0.31378
O    -1.73642   1.70555   1.16040
C    -0.63021   0.11053  -0.08808
N     0.35593  -0.45276  -0.34670
N     1.33688  -1.15250  -0.73749
C     2.52810  -0.91282  -0.20099
N     3.62687  -0.80843   0.18717
H    -3.93548   1.02148  -0.00597
H    -3.27387  -0.64863  -0.21314
H    -2.97504   0.57115  -1.46930
