26
Generated by autodE on: 2022-06-20. E = -689.460843 Ha
C    -3.06079   1.03214   0.37653
O    -2.11409   0.19425   1.04786
C    -0.87731   0.11074   0.47517
C    -0.42588  -1.00700  -0.16102
O    -1.05639  -2.15825  -0.39165
C    -2.42674  -2.37303  -0.03830
C     0.98064  -1.04617  -0.69749
O     1.36954  -2.06141  -1.25839
C     1.85514   0.14504  -0.54697
C     3.23947   0.06729  -1.11290
C     1.39386   1.25333   0.08394
C     2.23844   2.47564   0.25911
C     0.01105   1.27982   0.64955
O    -0.39465   2.26093   1.27025
H    -3.99100   0.98138   0.95782
H    -3.24852   0.66456  -0.64603
H    -2.71381   2.07506   0.33356
H    -2.65614  -3.39071  -0.37883
H    -3.08267  -1.65704  -0.55375
H    -2.57143  -2.30146   1.04730
H     3.40001   0.86214  -1.85979
H     3.99291   0.22080  -0.32277
H     3.42070  -0.90411  -1.58769
H     3.15891   2.23608   0.81712
H     2.55959   2.86982  -0.71928
H     1.69371   3.26056   0.79653
