42
Generated by autodE on: 2022-05-29. E = -1268.659312 Ha
C     1.46378  -2.54994   0.73833
N     0.51484  -1.45150   0.76615
C    -0.88115  -1.81450   0.97860
C    -1.26310  -2.98669   0.15236
N    -1.47237  -3.93569  -0.48334
C    -1.72606  -0.53763   0.63953
C    -3.03149  -0.89734  -0.06092
C    -1.92190   0.33198   1.92293
C    -2.77461   1.57628   1.60379
C    -1.82081   2.43166   0.71912
C    -0.51725   1.60039   0.68903
C    -0.54102   0.99037   2.10726
C    -0.70539   0.34419  -0.19084
Cl   -1.27666   0.80340  -1.86751
C     0.54604  -0.56411  -0.39145
C     1.84664   0.18437  -0.57186
C     2.24912   0.55047  -1.86444
C     3.41223   1.29852  -2.06576
C     4.19733   1.68149  -0.97402
C     3.80972   1.31108   0.31779
C     2.64144   0.57101   0.51758
H     1.33200  -3.17389   1.63496
H     1.35128  -3.19751  -0.15519
H     2.48985  -2.15765   0.74454
H    -1.04412  -2.12116   2.02473
H    -2.85018  -1.46987  -0.97975
H    -3.59707  -0.00299  -0.34474
H    -3.66066  -1.50656   0.60730
H    -2.29880  -0.26372   2.76569
H    -3.72873   1.34598   1.11363
H    -3.01258   2.09574   2.54383
H    -1.61480   3.40842   1.18034
H    -2.21831   2.61691  -0.28619
H     0.37221   2.17862   0.41308
H    -0.55021   1.77026   2.88361
H     0.26929   0.28549   2.30841
H     0.36243  -1.14279  -1.31890
H     1.64066   0.24890  -2.71969
H     3.70968   1.57677  -3.07975
H     5.11055   2.26095  -1.12947
H     4.42001   1.60072   1.17674
H     2.34440   0.28760   1.52771
