22
Generated by autodE on: 2022-05-29. E = -496.756881 Ha
C    -1.48738   1.22410  -0.34979
N    -1.39970  -0.14822   0.18089
C    -2.57674  -0.74213   0.58100
C    -3.81590  -0.13097   0.44443
N    -4.88832   0.34894   0.35846
C    -0.24067  -0.79289   0.25204
C     1.10304  -0.31848  -0.00452
C     2.07032  -1.32188  -0.26971
C     3.40119  -0.99922  -0.51555
C     3.81897   0.33708  -0.49066
C     2.88722   1.33873  -0.20047
C     1.55044   1.02480   0.04483
H    -2.47947   1.36857  -0.78924
H    -1.34507   1.95060   0.46073
H    -0.72848   1.36772  -1.12393
H    -2.50492  -1.74099   1.01028
H    -0.33583  -1.84115   0.54301
H     1.75323  -2.36737  -0.28777
H     4.11950  -1.79499  -0.72663
H     4.86328   0.59335  -0.68233
H     3.20579   2.38277  -0.15171
H     0.86997   1.83041   0.31081
