31
Generated by autodE on: 2022-06-05. E = -805.033816 Ha
C     4.57458  -1.08881   0.29075
O     3.17179  -0.82036   0.18218
C     2.82773   0.28869  -0.49294
O     3.64341   1.05752  -0.98360
C     1.38066   0.49703  -0.57895
C     0.80228   1.63745  -1.31776
O     0.67720  -0.46237  -0.04456
C    -0.61559  -0.69442   0.13214
C    -0.88156  -2.08050   0.49808
C     0.29945  -3.01992   0.59279
O    -2.03494  -2.47390   0.70573
C    -1.64026   0.35080   0.12335
C    -1.43403   1.55845   0.82298
C    -2.43826   2.52619   0.87733
C    -3.66290   2.30621   0.24036
C    -3.88278   1.10501  -0.44471
C    -2.88559   0.13279  -0.50072
H     4.66002  -2.01939   0.86375
H     5.02434  -1.21468  -0.70524
H     5.08589  -0.27049   0.81882
H    -0.00670   1.29269  -1.98214
H     0.36345   2.40339  -0.65371
H     1.59527   2.10825  -1.91131
H     1.07127  -2.62411   1.26974
H    -0.05353  -3.99419   0.95438
H     0.77325  -3.14371  -0.39404
H    -0.49347   1.72369   1.35184
H    -2.26323   3.45445   1.42602
H    -4.44669   3.06613   0.28088
H    -4.83788   0.92787  -0.94477
H    -3.05919  -0.79824  -1.04024
