14
Generated by autodE on: 2022-06-05. E = -2973.384107 Ha
N     2.99132  -1.54108   0.12354
C     1.87273  -1.26233   0.29707
C     0.52123  -0.94355   0.52282
C    -0.17465   0.15738   0.17503
Br    0.38607   1.66763  -0.75070
C    -1.63837  -0.12283   0.59849
C    -2.16110  -1.22103  -0.35356
C    -1.49000  -2.32145  -0.00336
C    -0.56571  -1.87767   1.14938
O    -1.38557  -0.88579   1.78486
H    -2.27025   0.75208   0.78041
H    -2.87832  -1.05961  -1.15679
H    -1.50715  -3.31978  -0.43800
H    -0.19890  -2.63660   1.84654
