45
Generated by autodE on: 2022-06-05. E = -3778.416831 Ha. Imaginary frequency = -164.1 cm-1
C     3.83703   0.17188  -2.42506
O     3.08608   0.92821  -1.46715
C     1.75800   0.74221  -1.46215
O     1.19328  -0.04029  -2.21859
C     1.11839   1.51957  -0.40952
C     1.86797   2.41568   0.51342
O    -0.19650   1.64507  -0.34705
C    -1.21748   1.03084  -0.90890
C    -1.20576   0.66178  -2.36758
C    -0.66470   1.71444  -3.30386
O    -1.80897  -0.31279  -2.78530
C    -2.49820   1.27159  -0.24668
C    -2.59703   2.22041   0.79582
C    -3.80365   2.41613   1.46063
C    -4.93616   1.67024   1.11059
C    -4.85053   0.73196   0.07705
C    -3.64944   0.53454  -0.60247
C    -0.32188  -1.11095   0.58396
C    -0.66447  -2.08363  -0.37419
N    -0.96128  -2.91542  -1.13599
C    -1.20690  -0.72644   1.81012
C    -0.82901  -1.71058   2.93597
C     0.40480  -1.35786   3.31016
C     0.76270  -0.15942   2.40105
O    -0.51793   0.45433   2.24253
C     0.94416  -0.74820   0.98419
Br    2.55202  -1.62520   0.54854
H     4.88947   0.41995  -2.24641
H     3.67213  -0.90587  -2.28871
H     3.54714   0.45584  -3.44736
H     2.17906   3.34636   0.00624
H     2.77940   1.92363   0.87977
H     1.23052   2.68377   1.36658
H    -0.17659   1.22707  -4.15891
H    -1.53739   2.27949  -3.67431
H     0.02564   2.42377  -2.83132
H    -1.71987   2.80130   1.07787
H    -3.86271   3.15727   2.26106
H    -5.87976   1.82268   1.63919
H    -5.72752   0.14401  -0.20304
H    -3.58735  -0.20752  -1.39615
H    -2.26729  -0.54981   1.61593
H    -1.45356  -2.53548   3.27603
H     1.07332  -1.81030   4.04112
H     1.52717   0.54217   2.74802
