42
Generated by autodE on: 2022-06-19. E = -899.645950 Ha
C     3.65073   2.04298   0.12563
N     2.53597   1.12104   0.10716
C     2.66905  -0.21295   0.16499
O     3.75793  -0.80421   0.22521
C     1.36252  -1.01245   0.09872
C     0.77620  -0.97872  -1.32923
C     1.35445  -2.04252  -2.25050
C    -0.74055  -1.08167  -1.10783
C    -1.59422  -0.61378  -2.27450
C    -0.95766  -0.31097   0.24983
C    -2.13595  -1.04497   0.91742
C    -1.81487  -2.25198   1.74938
O    -3.27917  -0.71931   0.73015
C    -1.16623   1.20784  -0.02060
O    -0.17019   1.92251  -0.22101
N    -2.41217   1.68382  -0.05050
C    -2.73929   3.06647  -0.33465
N     0.27955  -0.54414   0.94874
C     0.52722   0.06183   2.23404
H     4.58888   1.47433   0.11844
H     3.63181   2.67849   1.02640
H     3.63084   2.70205  -0.75707
H     1.57740   1.48623   0.03106
H     1.65893  -2.04598   0.36108
H     0.97721   0.01574  -1.75615
H     0.94878  -1.95083  -3.26957
H     1.12351  -3.05365  -1.87744
H     2.44985  -1.94604  -2.31366
H    -0.97272  -2.14034  -0.90473
H    -2.66518  -0.64655  -2.02388
H    -1.33801   0.41356  -2.57642
H    -1.43372  -1.27020  -3.14296
H    -1.00131  -2.84602   1.31322
H    -1.47378  -1.92068   2.74383
H    -2.72298  -2.85678   1.87150
H    -3.15358   1.00647   0.13751
H    -1.85521   3.57517  -0.73676
H    -3.06719   3.59674   0.57456
H    -3.55110   3.11785  -1.07511
H     1.33913  -0.47574   2.74919
H    -0.36779  -0.00919   2.87201
H     0.80857   1.13104   2.18507
