12
Generated by autodE on: 2022-06-19. E = -157.300302 Ha
C     1.96377   0.01302  -0.03536
C     0.51651   0.19516  -0.37918
C    -0.51651  -0.19505   0.37924
C    -1.96377  -0.01310   0.03532
H     2.48881   0.98366   0.01337
H     2.48688  -0.58007  -0.80649
H     2.09248  -0.49481   0.93348
H     0.30440   0.69270  -1.33599
H    -0.30440  -0.69254   1.33608
H    -2.48739   0.57859   0.80716
H    -2.09248   0.49600  -0.93285
H    -2.48830  -0.98395  -0.01499
