30
Generated by autodE on: 2022-07-27. E = -742.282135 Ha
C     4.73603  -1.72717  -0.18355
N     3.33944  -1.46538  -0.46493
C     2.64131  -0.56003   0.24933
O     3.13759   0.09256   1.17437
C     1.22930  -0.44592  -0.19905
N     0.32941   0.35419   0.30526
C     0.66961   1.40119   1.29360
C    -1.03360   0.13154   0.01237
C    -1.58518  -1.18494   0.14580
C    -0.77764  -2.32308   0.74915
O    -2.77952  -1.43803  -0.15269
C    -1.78239   1.31965  -0.44017
O    -1.21844   2.41707  -0.63842
N    -3.10767   1.15898  -0.64675
C    -3.91480   2.21851  -1.20718
H     4.86891  -2.10400   0.84319
H     5.33692  -0.80968  -0.28592
H     5.10622  -2.47851  -0.89054
H     2.88094  -1.97662  -1.21330
H     0.89686  -1.09683  -1.00783
H    -0.22223   2.00368   1.46936
H     1.49090   2.02171   0.92146
H     0.98187   0.90584   2.22128
H    -1.47881  -2.94125   1.32762
H     0.04481  -2.00311   1.40340
H    -0.35387  -2.95815  -0.04489
H    -3.45240   0.19931  -0.55927
H    -3.88576   3.12248  -0.57792
H    -4.95539   1.87604  -1.27477
H    -3.57706   2.50989  -2.21724
