42
Generated by autodE on: 2022-06-19. E = -899.562547 Ha. Imaginary frequency = -391.4 cm-1
C     4.79641  -1.29489   1.00231
N     3.34956  -1.30602   0.90646
C     2.66596  -0.25173   0.42225
O     3.22159   0.79604   0.06974
C     1.18968  -0.47655   0.27922
C     0.85825  -0.68477  -1.76994
C     1.41558  -2.07998  -1.95856
C    -0.51462  -0.46529  -1.91230
C    -1.06632   0.76036  -2.56661
C    -1.05093   0.18968   0.50413
C    -1.63059  -1.10262   0.84737
C    -0.88898  -2.08864   1.73131
O    -2.78199  -1.43439   0.49321
C    -1.91640   1.36047   0.18752
O    -1.45710   2.50271   0.00018
N    -3.24273   1.12645   0.07124
C    -4.13646   2.15816  -0.40403
N     0.30427   0.43944   0.74942
C     0.77920   1.72466   1.29193
H     5.14285  -0.47885   1.65538
H     5.25851  -1.15556   0.01170
H     5.13228  -2.25127   1.42053
H     2.84192  -2.15188   1.14471
H     0.88777  -1.51480   0.36944
H     1.50932   0.13508  -2.09807
H     2.41347  -2.19938  -1.51136
H     0.74752  -2.83421  -1.51264
H     1.50810  -2.31349  -3.03255
H    -1.17951  -1.33355  -1.85408
H    -2.14054   0.88898  -2.37856
H    -0.53821   1.67093  -2.24839
H    -0.93729   0.67370  -3.66258
H    -0.49150  -2.91849   1.12526
H    -0.06885  -1.64897   2.31190
H    -1.63406  -2.52030   2.41532
H    -3.52813   0.14597   0.10554
H    -5.15612   1.75388  -0.44531
H    -4.13492   3.03329   0.26512
H    -3.85783   2.51244  -1.41187
H    -0.02250   2.17397   1.88153
H     1.08586   2.42370   0.50566
H     1.63300   1.52882   1.95176
