38
Generated by autodE on: 2022-10-06. E = -834.876988 Ha
C     2.47098  -2.90471   0.43978
N     1.80030  -1.68667   0.02528
C     0.91534  -1.07326   0.81380
O     0.65120  -1.43664   1.96253
C     0.18942   0.17602   0.22254
C     1.14644   0.96431  -0.69040
O     1.56549   0.45110  -1.74282
N     1.48320   2.17280  -0.25352
C     2.36221   3.06595  -0.97973
N    -0.28941   0.96620   1.35375
C    -1.67696   1.28953   1.15527
C    -2.44717   1.52903   2.42846
N    -2.19787   0.08371   0.39550
C    -1.10920  -0.25114  -0.60953
N    -1.31907   0.66036  -1.70771
N    -1.15305  -1.66938  -0.85209
C    -2.24631  -2.13389  -1.70343
H     3.03012  -2.74682   1.37464
H     1.74565  -3.71682   0.60701
H     3.17051  -3.20848  -0.34794
H     1.96292  -1.28785  -0.90026
H     1.03532   2.46530   0.61347
H     2.89144   3.71422  -0.26941
H     1.79998   3.70073  -1.68428
H     3.09506   2.48036  -1.55004
H    -0.18958   0.37668   2.18666
H    -1.78683   2.12520   0.45244
H    -2.36259   0.66363   3.10465
H    -2.04030   2.41573   2.93437
H    -3.50794   1.71269   2.20680
H    -2.31094  -0.71439   1.03737
H    -3.10373   0.26160  -0.05850
H    -2.17522   0.41566  -2.20818
H    -0.54526   0.56211  -2.36619
H    -0.26176  -1.95299  -1.25621
H    -2.23532  -1.70703  -2.72232
H    -2.18048  -3.22667  -1.79329
H    -3.21862  -1.89935  -1.24398
