13
Generated by autodE on: 2022-10-06. E = -245.298505 Ha
C    -1.93946  -0.37314  -0.11086
N    -0.79414   0.51806  -0.04339
C     0.47179   0.10036   0.02709
N     1.46500   0.99331   0.07385
N     0.75153  -1.20440   0.05285
H    -1.89627  -1.01780  -1.00331
H    -2.00760  -1.01097   0.78504
H    -2.84689   0.23808  -0.16874
H    -0.95556   1.51979  -0.06562
H     1.26623   1.98678   0.03083
H     2.43080   0.68740   0.11457
H     1.71485  -1.51664   0.10915
H     0.01723  -1.90194   0.03874
