21
Generated by autodE on: 2022-05-30. E = -499.581923 Ha
C     2.78166  -0.20443   0.68139
C     1.67189   0.77508   0.39197
O     1.82547   1.98411   0.57862
C     0.41905   0.20955  -0.11124
C    -0.80427   0.78398  -0.21074
C    -1.30542   2.13904   0.10609
C    -1.73661  -0.36942  -0.65337
C    -1.86363  -1.32191   0.55565
C    -0.66288  -1.90018   0.65760
C     0.17515  -1.27882  -0.48194
O    -0.83834  -1.11570  -1.49139
H     3.63482   0.31462   1.13720
H     3.10306  -0.69229  -0.25381
H     2.42466  -1.00430   1.35093
H    -0.51624   2.78885   0.50017
H    -1.73999   2.60314  -0.79672
H    -2.12951   2.06507   0.83807
H    -2.65638  -0.07972  -1.17360
H    -2.74375  -1.41569   1.19063
H    -0.28867  -2.60572   1.39875
H     1.03229  -1.85128  -0.84951
