42
Generated by autodE on: 2022-05-30. E = -1140.851469 Ha. Imaginary frequency = -298.2 cm-1
C     3.52144  -1.90162   2.27464
N     2.99343  -0.82679   1.46139
C     1.78105  -0.30582   1.69772
O     1.08486  -0.60166   2.67899
C     1.26719   0.66100   0.67070
C     2.06947   1.17002  -0.47496
O     3.07986   0.55491  -0.86221
N     1.63160   2.29353  -1.07117
C     2.16804   2.73881  -2.34285
N     0.15467   1.27922   1.02372
C    -1.05088   1.19837   1.06209
C    -2.15747   1.84953   1.59061
N    -3.17124   2.28813   1.96791
C    -1.42416  -0.64907  -0.30823
C    -2.37634  -1.26243   0.62912
C    -1.87552  -2.11972   1.75859
O    -3.58090  -1.06226   0.46311
C    -1.97002   0.16129  -1.51432
C    -2.21566  -0.85292  -2.64637
C    -0.99413  -1.23814  -3.03402
C    -0.02716  -0.44193  -2.13220
O    -0.75710   0.78227  -1.96566
C    -0.16185  -1.06546  -0.71903
C     0.64937  -2.26105  -0.35908
H     2.95989  -2.83921   2.12091
H     4.57053  -2.07170   2.00238
H     3.46707  -1.64499   3.34264
H     3.42856  -0.56772   0.57215
H     0.70743   2.63138  -0.82258
H     1.96121   3.80966  -2.46740
H     3.25314   2.57926  -2.36587
H     1.71429   2.19127  -3.18662
H    -2.67180  -2.23898   2.50545
H    -0.97118  -1.69812   2.21841
H    -1.61549  -3.11511   1.36119
H    -2.75722   0.89027  -1.29924
H    -3.19399  -1.20072  -2.97593
H    -0.69686  -1.98807  -3.76612
H     0.99130  -0.28014  -2.49991
H     1.70759  -2.10263  -0.61006
H     0.29775  -3.11939  -0.96209
H     0.57130  -2.53682   0.69785
