25
Generated by autodE on: 2022-05-30. E = -701.720694 Ha
C     3.84964  -0.84179  -0.09909
N     3.76520   0.48846  -0.68107
C     2.63253   1.18641  -0.83765
O     2.52348   2.33628  -1.26478
C     1.40836   0.48484  -0.46064
N     0.37287   0.06788  -0.11870
C    -0.81243  -0.39889   0.25823
C    -0.87205  -1.72841   0.83939
C     0.42220  -2.49663   0.96264
O    -1.94333  -2.22602   1.21989
C    -1.94731   0.52846   0.01913
O    -1.76659   1.64285  -0.49937
N    -3.15869   0.08054   0.39687
C    -4.35099   0.87973   0.21683
H     4.77808  -1.31739  -0.43767
H     3.84853  -0.80995   1.00212
H     3.00910  -1.46492  -0.43708
H     4.62289   0.99590  -0.89053
H     0.87051  -2.66034  -0.03093
H     1.15737  -1.93713   1.56263
H     0.22184  -3.46558   1.43671
H    -3.19232  -0.85309   0.80914
H    -5.21495   0.31800   0.59328
H    -4.28655   1.83364   0.76563
H    -4.52336   1.11812  -0.84565
