15
Generated by autodE on: 2022-05-30. E = -400.824240 Ha
N     4.49512  -1.42615  -0.07518
C     3.38078  -1.07313  -0.05668
C     2.07683  -0.65953  -0.03451
C     0.91243  -0.28964  -0.01544
C    -0.44180   0.14026   0.00722
C    -0.81076   1.27584   0.76043
C    -2.14028   1.69092   0.77785
C    -3.10773   0.98621   0.05226
C    -2.74622  -0.14008  -0.69592
C    -1.42081  -0.56748  -0.72338
H    -0.04974   1.81895   1.32304
H    -2.42462   2.56949   1.36071
H    -4.14868   1.31652   0.06990
H    -3.50283  -0.68817  -1.26126
H    -1.12967  -1.44451  -1.30372
