40
Generated by autodE on: 2022-05-30. E = -1102.533417 Ha. Imaginary frequency = -333.9 cm-1
C     3.82619  -4.11452  -0.65624
N     2.85753  -3.05074  -0.85373
C     1.71438  -2.99392  -0.16622
O     1.29123  -3.82186   0.63851
C     0.91120  -1.75971  -0.37344
N    -0.18640  -1.43834  -0.73615
C    -1.09204  -0.47312  -0.80558
C    -1.13031   0.34919  -2.03076
C    -0.10005   0.03229  -3.08598
O    -1.91883   1.27952  -2.15978
C    -2.11020  -0.39765   0.28440
O    -2.94729   0.50923   0.33147
N    -2.03610  -1.35436   1.23610
C    -2.93108  -1.33724   2.37617
C     0.75520   1.02862   0.39816
C    -0.04156   2.19886   0.47508
C    -0.83341   2.43775   1.62169
C    -1.60230   3.59511   1.70399
C    -1.60075   4.52203   0.65486
C    -0.82560   4.28631  -0.48567
C    -0.05154   3.13243  -0.58536
C     1.63545   0.14379   0.47809
C     2.90831  -0.22322   0.88005
N     3.97409  -0.57398   1.20441
H     3.30409  -5.05673  -0.44720
H     4.42822  -4.22883  -1.56622
H     4.49453  -3.88448   0.18977
H     3.13115  -2.23108  -1.39152
H     0.91404   0.17817  -2.67924
H    -0.24901   0.70147  -3.94229
H    -0.17321  -1.01680  -3.41190
H    -1.35986  -2.10632   1.16121
H    -2.82609  -0.40324   2.95050
H    -3.98380  -1.42394   2.06248
H    -2.68661  -2.18388   3.02877
H    -0.83436   1.70851   2.43320
H    -2.21063   3.77512   2.59305
H    -2.20761   5.42743   0.72507
H    -0.82667   5.00587  -1.30734
H     0.55089   2.94071  -1.47426
