46
Generated by autodE on: 2022-06-19. E = -885.749599 Ha
C    -0.96547  -2.26166  -2.20841
C    -0.46279  -2.40501  -0.97437
C     0.25581  -3.65134  -0.54065
C    -0.52842  -1.30209   0.06503
C    -1.87149  -0.53547   0.19572
C    -2.77802  -1.19867   1.21999
C    -3.24278  -2.59504   0.91796
O    -3.09223  -0.61537   2.24673
N    -1.53749   0.84258   0.55760
C    -0.08005   0.98978   0.71730
C     0.35147   0.87504   2.18190
C     0.42606   2.32306   0.14373
O     1.59041   2.70409   0.33898
N    -0.46431   2.99741  -0.59615
C    -0.15894   4.21741  -1.30821
C     0.47848  -0.15758  -0.18643
C     1.90487  -0.53922   0.05063
C     2.96723  -0.22886  -0.71518
C     2.90247   0.60294  -1.96757
C     4.35200  -0.67833  -0.33260
H    -1.48054  -1.34997  -2.52509
H    -0.87281  -3.05931  -2.95143
H     0.31172  -4.39799  -1.34618
H    -0.25039  -4.10667   0.32845
H     1.28176  -3.41134  -0.21254
H    -0.28489  -1.74189   1.04504
H    -2.40865  -0.57281  -0.76701
H    -3.53433  -2.69709  -0.13718
H    -2.40549  -3.29259   1.09046
H    -4.07345  -2.86987   1.58144
H    -2.01013   1.06939   1.43334
H    -0.16183   1.64481   2.78018
H     1.43352   1.02272   2.29242
H     0.08310  -0.10935   2.59122
H    -1.37609   2.54875  -0.66846
H    -1.04586   4.86536  -1.34059
H     0.16445   4.02077  -2.34507
H     0.65252   4.74980  -0.79405
H     0.33745   0.16723  -1.22703
H     2.08479  -1.12713   0.95783
H     3.43822   1.55568  -1.81385
H     3.41104   0.08849  -2.80098
H     1.87870   0.84366  -2.28206
H     4.80223  -1.29036  -1.13411
H     5.02025   0.19053  -0.19618
H     4.35424  -1.26650   0.59710
