23
Generated by autodE on: 2022-06-19. E = -351.521385 Ha
C    -2.30546  -0.55738  -2.94496
C    -1.92218  -0.51954  -1.64981
C    -2.86902  -0.90178  -0.54104
C    -0.56566  -0.10133  -1.30192
C    -0.06103  -0.02034  -0.04510
C     1.29362   0.40296   0.24536
C     1.86976   0.51462   1.46899
C     1.17520   0.20742   2.76526
C     3.29453   0.97061   1.60923
H    -3.31421  -0.86602  -3.23322
H    -1.61566  -0.27928  -3.74778
H    -3.01557  -0.06545   0.16256
H    -3.85094  -1.19456  -0.93880
H    -2.46995  -1.74291   0.04994
H     0.08367   0.16631  -2.14424
H    -0.70239  -0.28593   0.79963
H     1.90722   0.65810  -0.62717
H     1.18248   1.09511   3.42221
H     1.71995  -0.58201   3.31280
H     0.13419  -0.11801   2.64259
H     3.90021   0.20796   2.13111
H     3.35405   1.88322   2.22935
H     3.76215   1.18022   0.63602
