23
Generated by autodE on: 2022-07-27. E = -534.180746 Ha
C    -0.89763   1.65996  -2.95154
N    -0.50847   1.08943  -1.67592
C     0.77778   1.12996  -1.26161
O     1.67820   1.60605  -1.96978
C     1.11090   0.63010   0.09722
C     2.39236   1.11398   0.69374
N     0.37333  -0.22516   0.77717
C    -0.75529  -0.95242   0.55546
C    -1.17477  -1.75931   1.64990
C    -2.39060  -2.63271   1.46104
O    -0.56218  -1.75472   2.74569
H    -0.30838   1.21711  -3.76778
H    -0.74230   2.75177  -2.97616
H    -1.95989   1.44826  -3.12418
H    -1.24174   0.85762  -1.01405
H     3.25302   0.74511   0.11113
H     2.44364   2.21423   0.67561
H     2.50059   0.76932   1.73192
H     0.71452  -0.44029   1.73011
H    -1.23624  -0.96237  -0.41608
H    -3.14143  -2.38172   2.22810
H    -2.84118  -2.52507   0.46468
H    -2.10936  -3.68690   1.61953
