46
Generated by autodE on: 2022-06-19. E = -885.690735 Ha. Imaginary frequency = -375.5 cm-1
C    -1.73794  -3.02772  -1.38149
C    -1.06117  -1.85774  -1.38534
C    -1.18296  -0.90097  -2.54328
C    -0.20526  -1.49671  -0.24660
C    -1.61699  -0.10327   0.92049
C    -2.10576  -0.96457   1.98128
C    -3.27639  -1.84806   1.65347
O    -1.55498  -0.98674   3.09364
N    -0.67098   0.80558   1.28482
C     0.26473   1.33515   0.44987
C     1.43570   2.01041   1.09979
C    -0.12789   1.93902  -0.86326
O     0.71740   2.15954  -1.74491
N    -1.41941   2.29169  -1.02237
C    -1.90379   2.86616  -2.26162
C     0.94044  -0.67571  -0.35641
C     2.06892  -0.92268   0.53724
C     3.36117  -0.56898   0.34792
C     3.85945   0.17690  -0.86066
C     4.41841  -0.92444   1.35663
H    -2.37563  -3.31940  -2.22071
H    -1.65632  -3.72788  -0.54526
H    -1.69785   0.02061  -2.23143
H    -1.75393  -1.34875  -3.36877
H    -0.19869  -0.59406  -2.92980
H    -0.19163  -2.23430   0.56114
H    -2.21896   0.06409   0.03270
H    -4.19327  -1.23572   1.61217
H    -3.15300  -2.30603   0.65876
H    -3.39503  -2.62425   2.42137
H    -0.33654   0.62311   2.23604
H     1.18509   3.05067   1.37326
H     1.75092   1.47205   2.00422
H     2.28078   2.04559   0.40249
H    -2.06831   2.17406  -0.25243
H    -1.51596   3.88645  -2.41787
H    -1.59377   2.25090  -3.11967
H    -2.99963   2.90613  -2.22943
H     1.16355  -0.24494  -1.33133
H     1.82257  -1.46552   1.45833
H     4.49192   1.02750  -0.55282
H     3.05335   0.57048  -1.49284
H     4.50231  -0.47266  -1.48276
H     5.22545  -1.52051   0.89284
H     4.90281  -0.01533   1.75724
H     4.00861  -1.49734   2.20203
