39
Generated by autodE on: 2022-10-22. E = -6140.409782 Ha
C     2.45133   3.35897   2.05206
O     1.95087   2.08608   1.60982
C     1.77068   1.92390   0.31011
O     2.03552   2.76865  -0.52008
C     1.21543   0.53192  -0.07120
C     2.24103  -0.54809   0.31366
C     2.67254  -0.72079   1.64024
C     3.61300  -1.70181   1.96020
C     4.14796  -2.52391   0.96329
C     3.73009  -2.35400  -0.35822
C     2.78433  -1.37574  -0.67751
N     0.95226   0.52895  -1.51185
C    -0.46631   0.58066  -1.80548
C    -0.99660   1.95758  -1.94412
N    -1.32381   3.04732  -2.17018
C    -1.07483  -0.19249  -0.62060
Br   -3.00040   0.09012  -0.46954
Br   -0.72340  -2.10329  -0.88926
C    -0.23490   0.36028   0.59354
O    -0.77095   1.64451   0.81172
C    -0.92047   2.18712   2.12242
O    -0.15572  -0.42772   1.70523
C    -1.34458  -0.91680   2.33240
H     3.47000   3.51675   1.67075
H     1.79573   4.16818   1.70251
H     2.45579   3.31409   3.14663
H     2.27053  -0.09267   2.43084
H     3.92918  -1.82314   2.99912
H     4.88523  -3.28967   1.21618
H     4.13792  -2.98746  -1.14982
H     2.44893  -1.25295  -1.70529
H     1.47797   1.26306  -1.98332
H    -0.69781   0.07661  -2.75759
H    -0.61473   3.24146   2.07665
H    -0.29669   1.66723   2.85894
H    -1.97733   2.13322   2.42869
H    -2.08885  -0.12593   2.49394
H    -1.79458  -1.72918   1.74439
H    -1.02454  -1.31311   3.30454
