25
Generated by autodE on: 2022-10-26. E = -685.426498 Ha
C     1.19178   2.43367   2.85592
O     0.93871   1.37311   1.92591
C    -0.01730   1.58802   1.01578
O    -0.67936   2.62185   0.96674
C    -0.21361   0.46869   0.09509
N    -1.21303   0.69091  -0.76746
C    -1.68950  -0.02952  -1.78761
C    -2.74844   0.46431  -2.56263
N    -3.63339   0.85294  -3.22334
C     0.57675  -0.77253   0.09429
C    -0.05609  -2.03081   0.09117
C     0.69859  -3.20487   0.09384
C     2.09569  -3.14399   0.09804
C     2.73435  -1.89950   0.10361
C     1.98403  -0.72325   0.10166
H     1.49774   3.34758   2.32625
H     0.29455   2.64359   3.45623
H     2.00444   2.08018   3.50103
H    -1.65969   1.60434  -0.59687
H    -1.24156  -0.99300  -2.02542
H    -1.14609  -2.09252   0.10512
H     0.19132  -4.17239   0.09826
H     2.68523  -4.06368   0.09797
H     3.82541  -1.84369   0.10463
H     2.48698   0.24472   0.10090
