25
Generated by autodE on: 2022-10-22. E = -685.424959 Ha
C     4.02573   0.11629  -0.67694
O     2.69236   0.49520  -0.31776
C     1.72387  -0.43186  -0.48501
O     1.94655  -1.54270  -0.94309
C     0.41171   0.04676  -0.05301
N     0.36990   1.28434   0.46034
C    -0.65364   2.03481   0.88485
C    -0.41799   3.32998   1.36649
N    -0.24722   4.41356   1.77595
C    -0.78364  -0.80193  -0.17407
C    -1.04308  -1.49662  -1.37135
C    -2.16443  -2.31891  -1.48526
C    -3.04551  -2.46423  -0.40875
C    -2.79492  -1.78332   0.78688
C    -1.67517  -0.95899   0.90521
H     4.35577  -0.74800  -0.08225
H     4.08011  -0.13450  -1.74636
H     4.65584   0.98674  -0.46060
H     1.29666   1.72530   0.51045
H    -1.66874   1.64496   0.83891
H    -0.36175  -1.38477  -2.21546
H    -2.35378  -2.84638  -2.42309
H    -3.92359  -3.10767  -0.50037
H    -3.47201  -1.89869   1.63640
H    -1.48192  -0.45032   1.85166
