14
Generated by autodE on: 2022-10-22. E = -5454.941864 Ha
C     1.75985  -2.20717  -1.19456
O     0.50788  -2.23130  -0.48698
C    -0.29768  -1.15144  -0.59341
O    -1.42829  -1.32064  -1.29955
C    -1.37299  -2.15694  -2.46291
C    -0.06160   0.01554   0.05135
Br   -1.20264   1.51349  -0.15027
Br    1.35630   0.19792   1.29551
H     2.20051  -3.20401  -1.06818
H     2.43828  -1.45175  -0.77174
H     1.59925  -2.00691  -2.26429
H    -2.40193  -2.21912  -2.83749
H    -1.00903  -3.16360  -2.21353
H    -0.72711  -1.70616  -3.23319
