51
Generated by autodE on: 2022-06-13. E = -1171.501925 Ha
C    -4.86737   0.08013  -1.13269
O    -3.62701   0.49356  -0.54279
C    -2.57306  -0.31347  -0.72110
O    -2.64798  -1.34566  -1.35311
C    -1.32423   0.27264  -0.07454
C    -1.63780   0.89673   1.31918
C    -2.26107  -0.22190   2.19530
C    -1.03199  -1.10616   2.56350
C     0.11589  -0.44938   1.76063
C    -0.25523   1.02876   1.97826
C    -0.11927  -0.71479   0.23598
C    -0.27065  -2.21213  -0.03864
C     1.01118  -0.09708  -0.70729
C     2.40969  -0.50287  -0.33668
C     3.12078   0.24840   0.61417
C     4.39159  -0.15052   1.03219
C     4.97007  -1.31335   0.51349
C     4.26531  -2.07218  -0.42403
C     2.99364  -1.67255  -0.84631
C     0.51091  -0.41572  -2.14447
O     0.89267  -1.20871  -2.97323
O    -0.53449   0.40384  -2.35675
C    -0.65748   1.24675  -1.10359
C    -1.37447   2.51743  -1.45808
N     0.70705   1.34608  -0.67050
C     1.57179   2.21485  -1.46548
H    -5.18997  -0.88184  -0.70901
H    -4.76131  -0.01740  -2.22258
H    -5.59316   0.86454  -0.88965
H    -2.24520   1.80680   1.25440
H    -2.72298   0.21930   3.09024
H    -3.04805  -0.78752   1.67587
H    -1.18381  -2.16969   2.34660
H    -0.79895  -1.02594   3.63538
H     1.11451  -0.76304   2.08854
H    -0.34466   1.26872   3.04910
H     0.41005   1.74542   1.49801
H     0.58063  -2.74442   0.41350
H    -0.29093  -2.45506  -1.10631
H    -1.19133  -2.61505   0.39507
H     2.67202   1.14913   1.03352
H     4.93015   0.44885   1.77000
H     5.96434  -1.62663   0.84062
H     4.70554  -2.98452  -0.83344
H     2.45584  -2.26911  -1.58046
H    -2.40932   2.30121  -1.74946
H    -1.38815   3.18663  -0.58682
H    -0.87279   3.02644  -2.29135
H     1.25133   3.25798  -1.34465
H     2.60102   2.13933  -1.09527
H     1.57671   1.97321  -2.54524
