26
Generated by autodE on: 2022-06-13. E = -540.188571 Ha
C     3.59392   0.04871   0.59019
O     2.26361   0.36525   0.16984
C     1.36607  -0.64459   0.18332
O     1.67563  -1.77558   0.53350
C     0.04651  -0.19944  -0.26155
C    -1.13678  -0.84761  -0.08095
C    -1.44634  -2.15330   0.55669
C    -2.22461   0.11616  -0.52015
C    -2.26488   1.22358   0.58714
C    -0.91983   1.97666   0.37893
C    -0.27064   1.19143  -0.80260
C    -1.51239   0.87321  -1.65815
H     4.03516  -0.72237  -0.05880
H     4.16767   0.97984   0.51137
H     3.59968  -0.31060   1.63003
H    -1.96574  -2.81013  -0.16285
H    -2.15022  -2.00025   1.39343
H    -0.55080  -2.66613   0.92515
H    -3.19725  -0.34602  -0.73257
H    -2.36749   0.78895   1.59202
H    -3.12823   1.88398   0.41786
H    -0.27547   1.96543   1.26949
H    -1.08807   3.02675   0.09610
H     0.56254   1.70781  -1.29241
H    -1.28577   0.23391  -2.52444
H    -2.05743   1.77055  -1.98960
