25
Generated by autodE on: 2022-06-13. E = -631.292492 Ha
C    -3.98758  -0.02551  -0.28616
C    -2.57278   0.10294   0.12293
O    -2.23997   0.61809   1.29769
C    -0.79911   0.66729   1.40350
O    -0.29984   1.12954   2.42904
C    -0.33775   0.11186   0.20193
C     1.05092  -0.11378  -0.17605
C     1.46962  -1.15975  -1.02885
C     2.81957  -1.33594  -1.33910
C     3.79380  -0.49155  -0.79857
C     3.39701   0.53720   0.06355
C     2.05021   0.72806   0.36764
N    -1.48739  -0.21132  -0.55807
C    -1.51278  -0.71767  -1.92642
H    -4.23188   0.69339  -1.08601
H    -4.62722   0.18249   0.58049
H    -4.19990  -1.03806  -0.66017
H     0.74422  -1.86231  -1.43644
H     3.11159  -2.15434  -2.00209
H     4.84908  -0.63616  -1.04093
H     4.14432   1.20645   0.49762
H     1.75506   1.53884   1.03425
H    -2.47561  -0.46668  -2.38395
H    -0.71027  -0.24082  -2.50048
H    -1.37786  -1.80721  -1.94072
