51
Generated by autodE on: 2022-06-13. E = -1171.452516 Ha. Imaginary frequency = -397.5 cm-1
C    -4.92053   0.32706  -1.02927
O    -3.65280   0.55858  -0.40758
C    -2.67520  -0.33262  -0.67168
O    -2.86800  -1.29232  -1.39878
C    -1.40340   0.04417  -0.00587
C    -1.50410   0.90929   1.26742
C    -2.19428   0.01881   2.34354
C    -1.10351  -1.04751   2.66011
C     0.07268  -0.63710   1.71122
C    -0.06271   0.88866   1.79591
C    -0.41551  -0.96610   0.30697
C    -0.43182  -2.40808  -0.09106
C     1.31093  -0.02650  -1.12301
C     2.59826  -0.40198  -0.54492
C     3.19435   0.32429   0.51024
C     4.39498  -0.09809   1.08144
C     5.03132  -1.25703   0.62732
C     4.44912  -1.99136  -0.41039
C     3.25231  -1.57312  -0.99149
C     0.60642  -0.73688  -2.17011
O     0.80739  -1.78331  -2.76767
O    -0.52353   0.01820  -2.44430
C    -0.55784   1.08429  -1.54454
C    -1.40711   2.23699  -1.95445
N     0.73508   1.24703  -1.11212
C     1.36496   2.53027  -0.84504
H    -5.33945  -0.63895  -0.71140
H    -4.82327   0.33596  -2.12488
H    -5.57256   1.14578  -0.70240
H    -1.96806   1.89175   1.12149
H    -2.43529   0.62062   3.23263
H    -3.13237  -0.42325   1.98065
H    -1.44580  -2.07706   2.48997
H    -0.76349  -0.97784   3.70424
H     1.04080  -1.08101   1.97827
H     0.00586   1.25709   2.83033
H     0.64825   1.44087   1.18964
H     0.57795  -2.84082  -0.00070
H    -0.80315  -2.58119  -1.10376
H    -1.08650  -2.97407   0.59523
H     2.72168   1.22000   0.90664
H     4.83225   0.48435   1.89584
H     5.96974  -1.58571   1.07959
H     4.93263  -2.90023  -0.77674
H     2.81051  -2.15010  -1.80138
H    -2.39346   1.87859  -2.27336
H    -1.53907   2.93225  -1.11515
H    -0.94487   2.77558  -2.79788
H     1.23514   2.87647   0.19132
H     2.43672   2.45086  -1.06177
H     0.93833   3.28444  -1.51826
