49
Generated by autodE on: 2022-10-22. E = -962.974707 Ha
C    -0.29063  -1.67970   1.83209
C    -0.31925  -2.20994   0.60149
C    -0.18690  -3.68658   0.36541
C    -0.47549  -1.37274  -0.66111
C     0.67660  -0.33987  -0.86084
C     2.00632  -0.72905  -0.27110
C     2.93430  -1.49652  -0.86957
C     4.21361  -1.86020  -0.16512
C     2.78124  -2.07618  -2.24962
C     0.02891   0.92483  -0.30630
C     0.79034   2.14056   0.04546
C     2.05198   2.38938  -0.52398
C     2.75416   3.55456  -0.20735
C     2.21342   4.47875   0.69120
C     0.96048   4.23704   1.26782
C     0.25278   3.08029   0.94465
N    -1.24945   0.86995  -0.20373
C    -1.72754  -0.43921  -0.67498
C    -2.28316  -0.28136  -2.10033
C    -2.86432  -0.98207   0.19368
O    -3.32624  -2.11398  -0.00802
N    -3.34167  -0.15088   1.12831
C    -4.40448  -0.53226   2.03495
H    -0.17405  -2.31583   2.71489
H    -0.37799  -0.60517   2.00785
H    -0.05598  -4.24816   1.30207
H    -1.08293  -4.06768  -0.15436
H     0.67378  -3.89437  -0.29463
H    -0.50970  -2.05344  -1.52005
H     0.79631  -0.17279  -1.94472
H     2.20172  -0.38620   0.74881
H     5.09092  -1.51722  -0.74186
H     4.26831  -1.42353   0.84315
H     4.31364  -2.95645  -0.07473
H     1.87841  -1.72945  -2.77014
H     2.73787  -3.17846  -2.19775
H     3.65792  -1.83064  -2.87379
H     2.48302   1.67421  -1.22528
H     3.72937   3.73946  -0.66361
H     2.76747   5.38567   0.94475
H     0.53585   4.95413   1.97430
H    -0.72272   2.88767   1.39373
H    -2.69722  -1.23841  -2.44679
H    -3.08004   0.47722  -2.11891
H    -1.48534   0.03187  -2.79008
H    -2.87140   0.74536   1.22006
H    -4.64514   0.31939   2.68304
H    -5.31138  -0.82383   1.48231
H    -4.10566  -1.38482   2.66668
