49
Generated by autodE on: 2022-10-22. E = -962.884083 Ha. Imaginary frequency = -371.5 cm-1
C    -2.28399  -3.54354  -0.69291
C    -1.31148  -2.79376  -0.11610
C    -1.00177  -2.98600   1.34825
C    -0.56563  -1.83911  -0.93473
C     0.63955  -1.15911  -0.69291
C     1.34441  -1.04272   0.58450
C     2.64511  -0.70946   0.76278
C     3.20434  -0.51978   2.14581
C     3.63126  -0.47582  -0.34630
C     0.03951   0.96156  -0.89260
C     1.13231   1.89256  -0.80706
C     1.88353   2.23072  -1.94814
C     3.00648   3.04665  -1.81781
C     3.40808   3.50031  -0.55551
C     2.67024   3.14978   0.58115
C     1.53390   2.35014   0.46346
N    -1.17385   0.92892  -0.92238
C    -2.19372   0.09103  -0.73529
C    -3.13936  -0.20468  -1.85695
C    -2.55257  -0.09859   0.68542
O    -1.86371   0.36986   1.61354
N    -3.67901  -0.81968   0.91551
C    -4.07225  -1.22765   2.24845
H    -2.51460  -3.45730  -1.75857
H    -2.85639  -4.27173  -0.11209
H     0.03629  -3.32628   1.49087
H    -1.11200  -2.05190   1.91630
H    -1.67110  -3.73841   1.78912
H    -0.84632  -1.88168  -1.99138
H     1.24478  -0.98048  -1.58485
H     0.74112  -1.14923   1.48597
H     4.05908  -1.19587   2.32804
H     2.44889  -0.69632   2.92598
H     3.59398   0.50738   2.26795
H     4.49721  -1.15345  -0.23945
H     3.20914  -0.61830  -1.34895
H     4.03322   0.55062  -0.28817
H     1.58149   1.84966  -2.92558
H     3.58111   3.31952  -2.70582
H     4.29795   4.12613  -0.45782
H     2.98215   3.50085   1.56741
H     0.95207   2.06577   1.34143
H    -2.65976   0.00034  -2.82384
H    -3.42453  -1.27041  -1.84306
H    -4.06979   0.38668  -1.79516
H    -4.07762  -1.33435   0.13793
H    -5.14855  -1.44759   2.25891
H    -3.53001  -2.12526   2.59075
H    -3.87015  -0.41545   2.95880
