15
Generated by autodE on: 2022-07-27. E = -566.344249 Ha
C    -2.60584  -0.03482  -1.52447
O    -1.25608   0.00611  -1.03754
C    -0.27969  -0.29959  -1.87684
O    -0.41503  -0.58718  -3.05163
C     1.05166  -0.24040  -1.25760
O     1.33438  -0.03220  -0.02609
C     0.78254   0.16324   1.16485
C    -0.59075   0.14183   1.49768
N    -1.67171   0.13497   1.93731
C     1.72532   0.35817   2.20214
N     2.48065   0.52542   3.07526
H    -2.83658  -1.03677  -1.91320
H    -2.74231   0.71361  -2.31812
H    -3.23907   0.19831  -0.66136
H     1.92979  -0.37113  -1.89249
