39
Generated by autodE on: 2022-06-18. E = -993.267522 Ha
C     5.44169  -1.91282  -0.10998
C     4.51576  -0.93891  -0.00090
C     4.89294   0.49191   0.27720
C     3.09590  -1.27215  -0.15721
C     2.07887  -0.39587  -0.07089
C     0.64832  -0.78899  -0.23358
C    -0.10630   0.01212  -1.32501
C     0.23114  -0.28324  -2.71527
N     0.52925  -0.54546  -3.80259
O     0.06979   1.43023  -1.07352
C    -0.76645   1.69999  -0.02505
O    -0.87179   2.77857   0.48087
C    -1.42177   0.34971   0.28906
C    -2.77020   0.43920   0.97225
O    -2.82966   0.93930   2.09755
N    -3.80409  -0.04748   0.27667
C    -5.16581  -0.06178   0.77511
O    -1.46425  -0.20647  -1.04052
C    -0.32301  -0.53845   0.99854
C     0.33320   0.16006   2.18767
C    -0.94768  -1.86388   1.43826
H     6.50881  -1.70045   0.00051
H     5.15270  -2.94858  -0.31253
H     4.54658   1.15665  -0.53162
H     5.98166   0.60478   0.37624
H     4.41961   0.85309   1.20534
H     2.86873  -2.32561  -0.35740
H     2.27541   0.66011   0.12628
H     0.58556  -1.84596  -0.52442
H    -3.62019  -0.41592  -0.65179
H    -5.81511   0.58142   0.16120
H    -5.57056  -1.08468   0.75970
H    -5.17016   0.30950   1.80642
H    -0.42235   0.37015   2.95723
H     0.81819   1.10833   1.91804
H     1.10159  -0.49571   2.62178
H    -1.49528  -2.34158   0.61340
H    -0.15248  -2.55008   1.76675
H    -1.63736  -1.71033   2.28175
