16
Generated by autodE on: 2022-06-18. E = -641.680329 Ha
C    -3.66199   1.39228   0.32863
N    -2.24787   1.12167   0.15596
C    -1.74729  -0.11495   0.34412
O    -2.43551  -1.08656   0.68734
C    -0.31121  -0.28867   0.12646
O     0.48837   0.76482  -0.26840
C     1.70449   0.33582  -0.39056
C     2.75873   1.19884  -0.77956
N     3.63256   1.89596  -1.09593
O     1.84677  -0.91247  -0.12321
C     0.46019  -1.45191   0.25848
O     0.35211  -2.60761   0.54991
H    -4.27170   0.83417  -0.40032
H    -3.83513   2.46540   0.18499
H    -3.99874   1.10989   1.33806
H    -1.63444   1.87205  -0.14398
