50
Generated by autodE on: 2022-06-21. E = -1042.046277 Ha
C    -0.69255  -3.08436   1.33125
C    -0.90761  -2.94934  -0.14533
O    -0.99145  -3.90910  -0.89612
C    -0.99619  -1.55347  -0.73515
O    -1.15148  -0.57819   0.27909
C    -0.73318   0.69723  -0.21064
C     0.15032   1.37294   0.86177
C     0.11655   0.81057   2.24972
O     0.82397   2.34320   0.55877
C    -1.93885   1.61477  -0.41701
C    -1.78841   2.83653  -1.09161
C    -2.88323   3.68474  -1.26731
C    -4.14126   3.32345  -0.77163
C    -4.29385   2.10981  -0.09676
C    -3.19694   1.26064   0.08473
C     0.04010   0.40713  -1.52450
C     0.28066  -1.11384  -1.52843
C     0.29540  -1.70119  -2.94209
C     1.51466  -1.55386  -0.77281
C     2.36219  -0.77803  -0.07208
C     3.47124  -1.28942   0.71656
C     4.23930  -0.57381   1.57300
C     5.34578  -1.23144   2.34925
C     4.06241   0.89380   1.85015
H     0.21140  -2.52926   1.62820
H    -0.59793  -4.14405   1.60098
H    -1.53516  -2.62553   1.87259
H    -1.85818  -1.53980  -1.42762
H     0.58368  -0.18676   2.24520
H     0.66181   1.47404   2.93288
H    -0.92280   0.67414   2.58501
H    -0.80967   3.12811  -1.47644
H    -2.75380   4.63177  -1.79672
H    -4.99803   3.98673  -0.91200
H    -5.27208   1.81870   0.29366
H    -3.31542   0.31327   0.61067
H    -0.59338   0.66854  -2.38122
H     0.96131   0.99647  -1.59863
H    -0.62802  -1.44291  -3.48330
H     1.15373  -1.30792  -3.50797
H     0.37894  -2.79743  -2.90834
H     1.68870  -2.63708  -0.77827
H     2.21902   0.30232  -0.06753
H     3.67306  -2.36303   0.62197
H     5.43300  -2.30409   2.12199
H     6.31558  -0.74855   2.13263
H     5.18360  -1.11639   3.43598
H     3.25817   1.36641   1.27315
H     3.84477   1.05059   2.92156
H     5.00117   1.43841   1.64661
