27
Generated by autodE on: 2022-07-27. E = -690.436503 Ha
C     1.55097  -3.25613   1.52370
C     0.43911  -3.18464   0.50414
O    -0.09628  -4.20108   0.03934
C    -0.01292  -1.88834   0.06825
O     0.60547  -0.84068   0.55219
C     0.48334   0.45059   0.34822
C     1.48997   1.23914   1.06647
C     2.52389   0.49365   1.87483
O     1.48249   2.46946   1.00102
C    -0.56294   1.02637  -0.49675
C    -0.25206   2.08317  -1.37789
C    -1.24625   2.65834  -2.16796
C    -2.56543   2.20011  -2.08727
C    -2.88703   1.15951  -1.20936
C    -1.89675   0.57227  -0.42313
H     1.78257  -4.30963   1.72678
H     2.45285  -2.74204   1.15655
H     1.25170  -2.75777   2.45940
H    -0.82189  -1.76867  -0.65297
H     3.17307   1.22410   2.37380
H     3.12934  -0.15438   1.22188
H     2.04767  -0.15588   2.62480
H     0.77434   2.44219  -1.44573
H    -0.98892   3.46873  -2.85364
H    -3.34227   2.65357  -2.70711
H    -3.91704   0.80416  -1.13344
H    -2.16918  -0.22351   0.27188
