27
Generated by autodE on: 2022-06-21. E = -690.436474 Ha
C     3.89097   0.16119   0.40546
C     3.07719   0.79588  -0.69725
O     3.60029   1.45200  -1.60923
C     1.64584   0.63588  -0.67615
O     1.13586  -0.09821   0.28042
C    -0.08883  -0.47066   0.57280
C    -0.14625  -1.39770   1.70794
C     1.15805  -1.81892   2.34056
O    -1.23002  -1.81456   2.12009
C    -1.26204   0.01286  -0.15471
C    -1.39643   1.37306  -0.50548
C    -2.54014   1.82301  -1.16353
C    -3.56345   0.92715  -1.49128
C    -3.44080  -0.42328  -1.14773
C    -2.30462  -0.87962  -0.48113
H     3.70849  -0.92352   0.45449
H     3.61007   0.58226   1.38402
H     4.95590   0.34975   0.21778
H     1.00064   1.08654  -1.43084
H     1.73681  -0.94490   2.67555
H     0.93918  -2.47081   3.19562
H     1.78137  -2.36111   1.61215
H    -0.61938   2.09021  -0.23644
H    -2.63419   2.88087  -1.41877
H    -4.45525   1.28143  -2.01332
H    -4.23540  -1.12779  -1.40357
H    -2.21314  -1.93313  -0.21923
