8
Generated by autodE on: 2022-10-21. E = -651.547893 Ha
C    -2.85232  -0.34547   0.33080
O    -1.79229   0.52469   0.79873
C    -0.60269   0.27435   0.34613
C     0.52386   0.07449  -0.05207
Cl    2.06772  -0.19118  -0.59139
H    -2.64139  -1.38353   0.62712
H    -3.76990   0.01061   0.81309
H    -2.94078  -0.27140  -0.76307
