31
Generated by autodE on: 2022-10-21. E = -1297.850884 Ha. Imaginary frequency = -404.5 cm-1
C    -4.12108   0.97496   0.79277
N    -2.86112   0.26009   0.80880
C    -2.36365  -0.30471  -0.31469
O    -2.96636  -0.25554  -1.39318
C    -1.03023  -0.95200  -0.17864
C    -0.44620  -1.86071  -1.17943
C     0.80535  -2.61154  -0.78289
O    -0.93666  -1.98735  -2.29970
N    -0.34373  -0.75472   0.94172
C     0.61335  -0.21561   1.42435
C     1.43645  -0.21887   2.65396
C     2.69666  -1.01794   2.56014
O     1.06369   0.42766   3.61455
C     1.30195   1.09257  -0.25069
Cl    2.51888   2.01202   0.49981
C     0.58699   0.97187  -1.25800
O    -0.04903   0.93437  -2.38069
C     0.72474   0.54093  -3.54694
H    -4.95522   0.31626   0.50143
H    -4.09433   1.81720   0.08303
H    -4.31737   1.36684   1.79811
H    -2.35327   0.18384   1.68302
H     0.66733  -3.15227   0.16581
H     1.05842  -3.31831  -1.58299
H     1.64464  -1.91201  -0.64304
H     2.45303  -2.06490   2.31546
H     3.24277  -0.96034   3.51084
H     3.31824  -0.62670   1.73870
H     0.01194   0.50866  -4.37827
H     1.16560  -0.45060  -3.37838
H     1.50919   1.28847  -3.73334
