49
Generated by autodE on: 2022-06-06. E = -1464.991431 Ha
C    -1.99743   0.24775  -2.60949
N    -0.82675   0.03564  -1.77547
C     0.41508   0.59638  -2.26819
C     0.30283   2.03493  -2.66549
N     0.17065   3.14223  -2.98268
C     0.83262  -0.13191  -3.48909
N     1.13894  -0.71341  -4.44336
C     1.44194   0.45205  -1.09249
C     2.34181  -0.82058  -1.18887
C     3.26615  -0.76633   0.01803
C     2.48601  -1.09794   1.05170
C     2.79836  -1.07846   2.50157
F     2.04667  -0.15698   3.14858
F     4.08528  -0.78872   2.74770
F     2.53372  -2.26298   3.09024
C     1.09250  -1.32324   0.47051
O     1.41400  -1.84901  -0.82153
C     0.56021   0.11095   0.14391
C    -0.92277   0.22808  -0.30834
C    -1.74963  -0.88308   0.33887
C    -2.00972  -2.08911  -0.32243
C    -2.67924  -3.12895   0.33135
C    -3.08429  -2.98182   1.66003
C    -2.81363  -1.78505   2.33242
C    -2.15466  -0.74452   1.67522
C    -1.50920   1.61945   0.01213
C    -2.90027   1.81059  -0.05719
C    -3.46594   3.07286   0.12731
C    -2.64938   4.17823   0.38749
C    -1.26653   4.00348   0.46050
C    -0.70332   2.73670   0.27474
H    -1.80326  -0.15209  -3.61642
H    -2.85054  -0.29973  -2.19122
H    -2.28130   1.31170  -2.70598
H     2.03608   1.36593  -0.99633
H     2.80170  -1.01603  -2.16212
H     4.30402  -0.43636   0.01612
H     0.42136  -1.98248   1.02527
H     0.74134   0.76217   1.00175
H    -1.67130  -2.22303  -1.34909
H    -2.87905  -4.06096  -0.20290
H    -3.60501  -3.79494   2.17118
H    -3.11778  -1.66005   3.37441
H    -1.94560   0.18378   2.21012
H    -3.55258   0.95808  -0.24983
H    -4.55046   3.19252   0.07004
H    -3.08972   5.16719   0.53469
H    -0.61446   4.85605   0.66422
H     0.38089   2.64341   0.33297
