33
Generated by autodE on: 2022-07-27. E = -820.210121 Ha
C     0.14047  -1.98663  -1.89621
N     0.36870  -0.67721  -1.25936
C    -0.14304  -0.37058  -0.07448
C    -0.58772  -1.42297   0.85557
C     0.20242  -2.56216   1.10440
C    -0.21621  -3.51790   2.02915
C    -1.42787  -3.35625   2.70937
C    -2.21571  -2.22438   2.47289
C    -1.79425  -1.25627   1.56310
C    -0.27064   1.03248   0.36424
C    -0.80576   2.00935  -0.49823
C    -0.99663   3.31172  -0.04534
C    -0.63854   3.66453   1.26238
C    -0.10171   2.70211   2.12119
C     0.07142   1.38925   1.67983
C     1.19727   0.20777  -1.99133
C     2.03241   1.11730  -1.32739
N     2.74542   1.87616  -0.79017
C     1.19155   0.18743  -3.39383
N     1.21232   0.18754  -4.56611
H     1.05364  -2.59385  -1.85295
H    -0.69187  -2.50098  -1.41020
H    -0.11753  -1.80693  -2.94807
H     1.15781  -2.68694   0.59290
H     0.41032  -4.39082   2.22463
H    -1.75495  -4.10934   3.42982
H    -3.16122  -2.09337   3.00345
H    -2.40547  -0.37041   1.38343
H    -1.08271   1.74166  -1.51922
H    -1.42844   4.05849  -0.71522
H    -0.78126   4.69031   1.60967
H     0.17984   2.97173   3.14136
H     0.48453   0.63550   2.35205
