33
Generated by autodE on: 2022-06-06. E = -820.210127 Ha
C     2.08595  -1.77249  -0.26433
N     0.69746  -1.29491  -0.13597
C     0.40390  -0.00763  -0.00722
C     1.36730   1.03320  -0.40640
C     1.55496   2.15769   0.42076
C     2.43672   3.16895   0.04297
C     3.12096   3.08587  -1.17471
C     2.92219   1.98401  -2.01338
C     2.05540   0.96032  -1.63314
C    -0.90130   0.43158   0.52316
C    -1.44288  -0.15739   1.68279
C    -2.63566   0.32120   2.21745
C    -3.31601   1.37610   1.59514
C    -2.78763   1.96126   0.44178
C    -1.58055   1.50038  -0.08637
C    -0.29207  -2.30640  -0.19640
C    -1.54857  -2.04112  -0.75880
N    -2.60011  -1.84137  -1.23554
C    -0.02976  -3.58729   0.31163
N     0.16438  -4.66833   0.72200
H     2.78292  -0.98607   0.03437
H     2.20944  -2.63118   0.40839
H     2.28094  -2.09623  -1.29474
H     1.01663   2.22597   1.36739
H     2.58770   4.02852   0.69947
H     3.80377   3.88429  -1.47388
H     3.44072   1.92394  -2.97267
H     1.89118   0.11377  -2.30122
H    -0.92019  -0.98203   2.16989
H    -3.03933  -0.12996   3.12648
H    -4.25682   1.74122   2.01315
H    -3.31378   2.78339  -0.04806
H    -1.16422   1.96141  -0.98345
