49
Generated by autodE on: 2022-06-06. E = -1464.903437 Ha. Imaginary frequency = -329.6 cm-1
C    -1.62053  -1.10677  -2.44034
N    -1.15878   0.09619  -1.72697
C    -0.22058   0.86676  -2.42077
C    -0.09457   2.28267  -2.31127
N     0.12905   3.42739  -2.30338
C     0.28196   0.36260  -3.65109
N     0.76704  -0.03510  -4.63508
C     1.55446   0.57044  -0.94488
C     2.21690  -0.74133  -1.40816
C     3.38752  -0.97654  -0.43218
C     2.79247  -1.28814   0.72275
C     3.37966  -1.48767   2.06602
F     2.95095  -0.53537   2.92751
F     4.72194  -1.44447   2.05965
F     3.02040  -2.67257   2.60567
C     1.27275  -1.23967   0.44281
O     1.26608  -1.70490  -0.91722
C     0.90135   0.23695   0.23471
C    -1.38488   0.30591  -0.38837
C    -2.05831  -0.74833   0.42146
C    -1.69936  -2.11195   0.33498
C    -2.31943  -3.07185   1.13266
C    -3.31914  -2.70310   2.03799
C    -3.69405  -1.36064   2.13249
C    -3.07293  -0.39703   1.33754
C    -1.69589   1.71826   0.01785
C    -2.55114   2.46752  -0.80987
C    -2.96981   3.74613  -0.43944
C    -2.55283   4.29558   0.77496
C    -1.73443   3.54415   1.62545
C    -1.31983   2.26500   1.25577
H    -0.84060  -1.87730  -2.48706
H    -2.50936  -1.50495  -1.94535
H    -1.90071  -0.81259  -3.45903
H     1.97078   1.54464  -1.19308
H     2.41995  -0.86861  -2.47599
H     4.44429  -0.83079  -0.65103
H     0.64399  -1.84742   1.09879
H     0.77485   0.91328   1.07319
H    -0.92208  -2.43006  -0.35383
H    -2.01413  -4.11711   1.04690
H    -3.80311  -3.45727   2.66272
H    -4.48083  -1.05703   2.82672
H    -3.39361   0.64005   1.42180
H    -2.89201   2.04324  -1.75561
H    -3.62694   4.31212  -1.10360
H    -2.87384   5.29854   1.06550
H    -1.42084   3.95405   2.58817
H    -0.71591   1.68272   1.95068
