20
Generated by autodE on: 2022-06-05. E = -797.258551 Ha
C     3.83687   2.08166   0.02430
O     2.54205   1.44418   0.01426
C     2.53270   0.12794  -0.02208
O     3.48011  -0.61964  -0.04975
C     1.12955  -0.39492  -0.02506
O     0.85619  -1.64419  -0.05555
C    -0.67345  -1.77460  -0.04346
O    -1.16178  -2.86688  -0.06701
C    -1.04166  -0.42412  -0.00499
C    -2.36356   0.15951   0.02755
O    -3.38474  -0.50900   0.02331
O    -2.33325   1.49812   0.06266
C    -3.60388   2.16403   0.09874
O     0.09588   0.37418   0.00526
H     3.63621   3.15750   0.05395
H     4.39996   1.76576   0.91334
H     4.39072   1.81353  -0.88600
H    -4.16630   1.87407   0.99813
H    -3.37989   3.23663   0.12197
H    -4.19401   1.91856  -0.79608
