50
Generated by autodE on: 2022-06-05. E = -1597.549841 Ha. Imaginary frequency = -302.9 cm-1
C     2.46999   0.48971  -3.55538
N     1.77881  -0.39418  -2.63520
C     0.83161   0.07236  -1.80384
O     0.49414   1.25913  -1.78842
C     0.22440  -0.90559  -0.80938
C     0.55217  -2.39362  -1.04216
C     1.56344  -3.15368  -0.24844
O     0.02611  -2.85976  -2.04062
C     1.40269  -0.09808   0.93675
C     2.85138  -0.03933   0.55976
O     3.62423  -0.92446   0.84146
O     3.11497   1.05974  -0.11729
C     4.46352   1.21261  -0.60599
O     1.01239  -0.95697   1.88699
C    -0.23436  -0.51472   2.39172
O    -0.84998  -1.13442   3.21237
C    -0.45676   0.70754   1.64473
C    -1.44366   1.75429   1.96565
O    -2.45836   1.50789   2.58682
O    -1.05403   2.95195   1.55469
C    -1.99704   4.02253   1.72601
O     0.69508   1.02345   1.01480
C    -1.06748  -0.60082  -0.32758
C    -1.84339  -1.67874   0.37872
C    -3.26082  -1.39507   0.77145
O    -1.29307  -2.73895   0.64371
C    -1.91592   0.46136  -1.02282
O    -2.37937   1.46295  -0.48062
N    -2.21808   0.10470  -2.28635
C    -2.96037   0.99053  -3.16234
H     2.76478   1.41519  -3.04251
H     3.36718  -0.01922  -3.92815
H     1.83251   0.76087  -4.41319
H     1.98989  -1.38500  -2.67752
H     2.56305  -2.76974  -0.51107
H     1.43013  -3.01929   0.82993
H     1.50504  -4.21533  -0.52112
H     4.47751   2.16749  -1.14069
H     5.16581   1.22976   0.23846
H     4.70955   0.38365  -1.28325
H    -2.24029   4.15463   2.78954
H    -2.91290   3.80397   1.15846
H    -1.50684   4.91913   1.33123
H    -3.65962  -2.24523   1.33781
H    -3.87363  -1.22745  -0.12819
H    -3.30767  -0.47618   1.37480
H    -1.75138  -0.70407  -2.68777
H    -2.36205   1.87917  -3.42594
H    -3.22023   0.44934  -4.08028
H    -3.88395   1.32996  -2.67223
