41
Generated by autodE on: 2022-05-30. E = -1499.254952 Ha
C     4.44126  -0.65977  -2.00092
O     3.01110  -0.53186  -1.93445
C     2.52747   0.38160  -1.09642
O     3.20905   1.13745  -0.43800
C     1.01553   0.33563  -1.04836
N     0.46899   1.50297  -0.38492
C    -0.81881   1.13817   0.17890
C    -1.06353   2.01098   1.45182
C    -2.39174   1.94797   2.14759
O    -0.17566   2.75118   1.82242
C    -1.98081   1.47951  -0.79739
C    -1.64980   2.30612  -2.00391
O    -3.12149   1.14701  -0.53781
C    -0.72167  -0.41068   0.54560
Cl   -0.38224  -0.55535   2.33816
C    -1.83187  -1.37213   0.07270
C    -1.57183  -2.79804   0.60378
C    -0.30402  -3.25898  -0.17167
C    -0.01660  -2.06915  -1.11013
C    -1.43585  -1.55292  -1.41204
C     0.53429  -0.91467  -0.27032
F     1.57138  -1.33535   0.55691
H     4.63875  -1.45960  -2.72326
H     4.84470  -0.92761  -1.01393
H     4.89385   0.28240  -2.34105
H     0.64935   0.26536  -2.08361
H     1.08829   1.79437   0.37416
H    -2.24616   2.21215   3.20326
H    -3.05063   2.70429   1.68945
H    -2.88192   0.97368   2.05209
H    -1.21124   3.26309  -1.68176
H    -0.89587   1.80996  -2.63226
H    -2.56705   2.48384  -2.57969
H    -2.83889  -0.99641   0.26837
H    -1.44627  -2.82548   1.69260
H    -2.44007  -3.42371   0.35272
H    -0.50122  -4.16218  -0.76585
H     0.54670  -3.47110   0.48856
H     0.62348  -2.29845  -1.97144
H    -1.46225  -0.64047  -2.02227
H    -2.05896  -2.30848  -1.91078
