24
Generated by autodE on: 2022-05-30. E = -667.436063 Ha
C     4.46364  -1.46484  -0.18480
O     3.12965  -1.41973   0.34342
C     2.27244  -0.59794  -0.26390
O     2.54907   0.10554  -1.22232
C     0.94590  -0.64683   0.36714
N     0.03162   0.12229  -0.15942
C    -1.28600   0.38644   0.09289
C    -1.94627  -0.29465   1.19634
C    -3.39771  -0.04174   1.52184
O    -1.30925  -1.10258   1.88923
C    -1.79463   1.37362  -0.87112
C    -3.21371   1.86812  -0.84634
O    -1.01503   1.81010  -1.73291
H     4.93616  -0.47415  -0.11702
H     4.44903  -1.79234  -1.23444
H     5.00797  -2.18877   0.43200
H     0.72369  -1.27893   1.21954
H     0.34331   0.69043  -0.97486
H    -4.05012  -0.30455   0.67664
H    -3.57722   1.01496   1.76676
H    -3.66133  -0.66270   2.38746
H    -3.33963   2.58975  -1.66317
H    -3.92645   1.04143  -0.97789
H    -3.44681   2.35792   0.11018
