17
Generated by autodE on: 2022-05-30. E = -831.765983 Ha
F    -0.05787   1.32160  -1.78710
C    -0.33810   0.70464  -0.63753
C     0.52693   0.28192   0.29542
Cl    2.25423   0.37822   0.25147
C    -0.26455  -0.57560   1.27035
C    -0.62122  -1.88803   0.50069
C    -1.61290  -1.39092  -0.59275
C    -1.70370   0.14782  -0.31393
C    -1.62210   0.16022   1.22790
H     0.20628  -0.71955   2.25026
H     0.27739  -2.36406   0.08315
H    -1.10118  -2.60737   1.18065
H    -2.60565  -1.84935  -0.47382
H    -1.26612  -1.59549  -1.61552
H    -2.54526   0.66368  -0.79263
H    -2.43369  -0.41138   1.70271
H    -1.57587   1.17420   1.64972
