41
Generated by autodE on: 2022-05-30. E = -1499.190390 Ha. Imaginary frequency = -395.2 cm-1
C     4.28643  -0.71230  -2.07374
O     2.89113  -0.37467  -2.02804
C     2.50947   0.46726  -1.06836
O     3.26585   0.99081  -0.27129
C     1.03733   0.64500  -1.05513
N     0.59761   1.59340  -0.20320
C    -0.69642   1.77761   0.17398
C    -0.77586   2.39524   1.52255
C    -2.08607   2.72904   2.17225
O     0.28039   2.61692   2.11956
C    -1.76732   1.63784  -0.81839
C    -3.21534   1.55696  -0.40448
O    -1.48101   1.57856  -2.02088
C    -0.83144  -0.83161   0.56013
Cl   -0.90671  -0.70518   2.30387
C    -1.87947  -1.64054  -0.17907
C    -1.62775  -3.12417   0.24822
C    -0.24232  -3.44289  -0.38218
C     0.11257  -2.13214  -1.14703
C    -1.27996  -1.66310  -1.60189
C     0.40180  -1.09784  -0.06940
F     1.50447  -1.28279   0.71056
H     4.89315   0.18858  -2.24297
H     4.59170  -1.19083  -1.13199
H     4.39983  -1.41084  -2.91022
H     0.49354   0.48560  -1.98064
H     1.25540   1.85768   0.54290
H    -1.87885   3.22231   3.13017
H    -2.69338   3.39006   1.53887
H    -2.66690   1.81383   2.35936
H    -3.36752   0.99707   0.52509
H    -3.76867   1.07691  -1.22240
H    -3.62518   2.57029  -0.26878
H    -2.91524  -1.30053  -0.06729
H    -1.64522  -3.24347   1.33973
H    -2.42086  -3.75722  -0.17601
H    -0.30289  -4.27971  -1.09254
H     0.52327  -3.69011   0.36658
H     0.89350  -2.22630  -1.91037
H    -1.77536  -2.40728  -2.24121
H    -1.28964  -0.69285  -2.10740
