23
Generated by autodE on: 2022-06-17. E = -351.521386 Ha
C    -3.68091  -0.04200  -0.86393
C    -2.57694  -0.18999  -0.09902
C    -2.67153  -0.65746   1.33092
C    -1.25827   0.10448  -0.65627
C    -0.07789  -0.00674   0.00341
C     1.20440   0.29870  -0.59745
C     2.42371   0.21141  -0.00819
C     2.65131  -0.23174   1.40923
C     3.67133   0.56653  -0.76647
H    -4.67962  -0.25520  -0.47276
H    -3.60888   0.29734  -1.90189
H    -3.71557  -0.84053   1.62162
H    -2.10122  -1.58891   1.48306
H    -2.24502   0.08845   2.02204
H    -1.24406   0.44300  -1.69931
H    -0.08353  -0.34411   1.04337
H     1.17037   0.63575  -1.64056
H     1.72856  -0.48857   1.94527
H     3.17070   0.55968   1.97810
H     3.31835  -1.11164   1.43167
H     3.45555   0.88338  -1.79740
H     4.22001   1.37994  -0.25835
H     4.36535  -0.29246  -0.80269
