35
Generated by autodE on: 2022-06-17. E = -820.575385 Ha. Imaginary frequency = -390.1 cm-1
C     3.56219   2.65160   0.59290
C     3.20845   1.36143   0.39612
C     4.14513   0.37004  -0.24249
C     1.87833   0.91948   0.78969
C     1.40632  -0.35471   0.69292
C     0.06849  -0.70703   1.06778
C    -0.43633  -2.02900   1.17621
C    -1.62767  -2.22797   2.09033
C     0.51736  -3.20142   1.10258
N    -1.35903  -2.40679  -0.51575
N    -1.40525  -1.48759  -1.23652
C    -1.04894  -0.16218  -1.13346
C    -0.00971   0.32141  -1.94876
N     0.90635   0.72547  -2.54823
C    -2.00962   0.72275  -0.47051
O    -3.03940   0.35267   0.06511
O    -1.57149   1.98839  -0.48163
C    -2.36452   2.94966   0.23089
H     2.86823   3.36419   1.04853
H     4.54844   3.02338   0.30199
H     4.33338  -0.48888   0.42224
H     3.70514  -0.03352  -1.16958
H     5.10969   0.83552  -0.48837
H     1.20846   1.69108   1.18568
H     2.05191  -1.13817   0.29099
H    -0.53105   0.09098   1.51289
H    -2.16922  -3.15331   1.84115
H    -2.32631  -1.38176   2.02658
H    -1.28368  -2.31728   3.13500
H     1.09880  -3.27040   2.03737
H     1.22641  -3.11698   0.26722
H    -0.04125  -4.14145   0.98387
H    -1.84906   3.90933   0.11151
H    -2.42670   2.68091   1.29529
H    -3.37641   3.00511  -0.19510
