51
Generated by autodE on: 2022-06-22. E = -1133.599950 Ha
C     5.04717   0.71245  -2.18041
C     4.30245   0.58746  -1.06323
C     4.90529   0.71207   0.31105
C     2.86422   0.32177  -1.17634
C     2.01234   0.17363  -0.14450
C     0.55044  -0.07203  -0.32412
C    -0.02568  -1.31897   0.44361
C     0.78660  -1.81191   1.63748
C    -0.23142  -2.45570  -0.57327
C     0.99834  -3.15195  -1.08376
O    -1.35088  -2.75938  -0.94602
O    -1.31179  -0.90703   0.93174
C    -1.71453   0.31956   0.33280
C    -2.68427   1.06644   1.25203
O    -3.23611   2.09509   0.84359
N    -2.86118   0.54488   2.46750
C    -3.69983   1.17761   3.46597
C    -2.48849  -0.05443  -0.95312
O    -2.08236   0.01813  -2.09163
O    -3.67874  -0.55832  -0.62910
C    -4.46842  -1.09660  -1.70084
C    -0.37999   1.10154   0.12711
C     0.06530   1.70555   1.47110
C    -0.42998   2.22776  -0.90593
H     6.12160   0.91062  -2.13153
H     4.59708   0.61943  -3.17354
H     5.98497   0.91021   0.25661
H     4.75009  -0.20964   0.89624
H     4.42988   1.52861   0.87959
H     2.47124   0.23865  -2.19645
H     2.38373   0.24998   0.87919
H     0.36166  -0.21743  -1.39689
H     0.25853  -2.64948   2.11807
H     1.78142  -2.15843   1.33022
H     0.91230  -1.00833   2.37438
H     1.82549  -2.44611  -1.24925
H     1.33596  -3.87579  -0.32324
H     0.75980  -3.69552  -2.00734
H    -2.32461  -0.28699   2.69471
H    -3.24042   2.10224   3.85289
H    -4.67871   1.43749   3.03696
H    -3.84917   0.48189   4.30054
H    -4.68198  -0.31982  -2.44855
H    -5.39848  -1.45027  -1.24183
H    -3.93424  -1.93158  -2.17628
H     0.08073   0.96999   2.28533
H    -0.60692   2.52627   1.76058
H     1.07382   2.13027   1.37333
H    -0.67046   1.86340  -1.91045
H    -1.18222   2.97575  -0.61617
H     0.55045   2.72688  -0.94334
