28
Generated by autodE on: 2022-07-27. E = -781.978366 Ha
C     0.98134   2.01394   3.68716
N     0.85034   1.26592   2.45610
C    -0.29547   1.22167   1.73598
O    -1.32558   1.83737   2.05384
C    -0.25296   0.38623   0.51997
O     0.84803  -0.35059   0.39896
C     1.43510  -1.02907  -0.57015
C     2.60491  -1.83260  -0.12431
C     1.15486  -0.74743  -1.97773
C     2.04133  -1.42726  -2.98466
O     0.30879   0.08492  -2.31775
C    -1.47042   0.16382  -0.28305
O    -2.31330   1.01174  -0.53009
O    -1.60272  -1.13095  -0.61285
C    -2.69880  -1.46798  -1.47097
H     1.62806   2.89806   3.55814
H    -0.01057   2.35361   4.00757
H     1.41493   1.38377   4.47858
H     1.65797   0.76028   2.10870
H     2.49099  -2.88517  -0.43243
H     3.54345  -1.46669  -0.57384
H     2.69043  -1.79347   0.96937
H     3.09389  -1.13380  -2.84176
H     1.99073  -2.52082  -2.86168
H     1.71822  -1.14927  -3.99579
H    -3.65790  -1.23214  -0.98791
H    -2.62128  -2.54660  -1.65055
H    -2.62130  -0.91961  -2.42080
