51
Generated by autodE on: 2022-06-22. E = -1133.507220 Ha. Imaginary frequency = -253.3 cm-1
C     5.20662  -0.35103   0.54548
C     3.98417   0.11805   0.88033
C     3.64082   0.48077   2.30257
C     2.95581   0.26888  -0.14420
C     1.70469   0.75151   0.07781
C     0.67804   0.83885  -0.92702
C    -0.16768  -1.52042  -0.45938
C     0.98322  -2.31622   0.04045
C    -0.57564  -1.55626  -1.86449
C     0.42451  -2.14363  -2.83039
O    -1.66451  -1.12826  -2.26007
O    -0.91025  -1.00787   0.50697
C    -1.83483  -0.02560   0.45514
C    -1.97290   0.66947   1.76168
O    -2.91581   1.44412   1.98740
N    -1.00155   0.42904   2.66956
C    -0.92584   1.18275   3.90352
C    -3.10812  -0.25467  -0.27237
O    -3.84646   0.62123  -0.68198
O    -3.43266  -1.55769  -0.29376
C    -4.59946  -1.90944  -1.04525
C    -0.47916   1.62370  -0.79576
C    -0.56949   2.70768   0.25000
C    -1.29281   1.90857  -2.02874
H     5.99237  -0.48299   1.29439
H     5.44656  -0.61504  -0.48899
H     4.48900   0.29667   2.97661
H     2.77652  -0.10319   2.66154
H     3.35728   1.54310   2.38494
H     3.23177  -0.03526  -1.16031
H     1.43692   1.06740   1.08807
H     0.93509   0.48729  -1.92880
H     0.81546  -3.39659  -0.10954
H     1.90577  -2.05192  -0.49811
H     1.13798  -2.12224   1.10946
H     1.41899  -1.68582  -2.71987
H     0.54138  -3.22338  -2.64133
H     0.05807  -1.99482  -3.85412
H    -0.19902  -0.11781   2.37681
H    -0.70772   2.24894   3.71887
H    -1.87473   1.12371   4.45679
H    -0.12686   0.76380   4.52795
H    -5.49750  -1.44400  -0.61350
H    -4.67844  -3.00165  -0.98997
H    -4.49025  -1.59133  -2.09233
H    -0.07872   2.45605   1.19660
H    -1.61289   2.97631   0.45778
H    -0.07082   3.60867  -0.15069
H    -1.22835   1.10367  -2.76952
H    -2.34873   2.08031  -1.78242
H    -0.90981   2.83651  -2.49234
