19
Generated by autodE on: 2022-06-16. E = -361.538185 Ha
C     2.21477  -0.89262  -0.78433
C     1.22265  -0.08088   0.02410
N     0.71744  -0.82013   1.21089
N    -0.51122  -0.61725   1.34037
N    -1.02028   0.21212   0.39365
C    -2.43511   0.08520   0.11632
C    -0.05727   0.33008  -0.71315
C    -0.02547   1.70032  -1.36360
H     2.57628  -0.30652  -1.64361
H     3.08546  -1.17272  -0.17193
H     1.74651  -1.81347  -1.16654
H     1.72502   0.82204   0.41893
H    -2.80618   1.00570  -0.35537
H    -2.97487  -0.06650   1.06042
H    -2.64764  -0.76479  -0.55976
H    -0.31394  -0.43234  -1.47796
H     0.20936   2.48058  -0.62301
H     0.74520   1.72264  -2.14976
H    -0.99029   1.94277  -1.83517
