19
Generated by autodE on: 2022-06-16. E = -361.460657 Ha. Imaginary frequency = -438.9 cm-1
C     2.28555  -1.06521  -0.66168
C     1.47561   0.16091  -0.33184
N     0.60023  -0.51556   1.54383
N    -0.52522  -0.59242   1.21612
N    -1.19913  -0.46945   0.16175
C    -2.57898  -0.02091   0.23050
C     0.34386   0.51904  -1.05204
C    -0.19318   1.92283  -1.05165
H     3.06989  -0.83607  -1.40573
H     2.79336  -1.47186   0.22672
H     1.65104  -1.86081  -1.08409
H     1.99122   0.95444   0.21832
H    -2.94065   0.07708  -0.80127
H    -2.68079   0.95459   0.73552
H    -3.21955  -0.75660   0.74371
H     0.05135  -0.11506  -1.89423
H    -0.04810   2.40657  -0.07282
H     0.33455   2.53515  -1.80525
H    -1.26366   1.96039  -1.30186
