61
Generated by autodE on: 2022-06-09. E = -3913.638715 Ha
C    -3.40572 -12.90041  -3.12970
N    -4.61686 -12.85384  -2.33304
C    -4.57194 -12.58348  -1.01742
O    -3.51131 -12.35867  -0.43512
C    -5.93706 -12.50762  -0.29014
Br   -6.37013 -10.52397  -0.69666
C    -7.13875 -13.23506  -0.95471
C    -7.05126 -14.72927  -1.30438
C    -6.57894 -15.66513  -0.20048
C    -5.07554 -15.50987   0.09071
C    -4.73801 -15.07846   1.52913
C    -3.22100 -14.78887   1.62939
C    -5.03218 -16.30345   2.42272
C    -5.48604 -13.80091   1.94502
C    -5.86479 -12.71010   1.23372
C    -6.38017 -11.60966   2.17621
C    -7.91491 -11.38229   1.99338
O    -8.64255 -12.35579   1.75520
N    -8.40120 -10.15752   2.20126
C    -9.81976  -9.87933   2.10450
C    -5.50633 -10.33370   2.14323
O    -5.87090  -9.22363   2.49315
O    -4.25378 -10.61696   1.83151
C    -3.31865  -9.53275   1.77560
N    -6.10860 -12.15050   3.50760
C    -6.82003 -11.61115   4.65005
C    -5.87150 -13.58894   3.42686
C    -7.10860 -14.42055   3.84177
C    -4.76042 -13.87612   4.36982
N    -3.93141 -14.04129   5.16508
H    -2.88890 -11.92743  -3.12564
H    -2.70759 -13.65850  -2.74095
H    -3.67240 -13.15807  -4.16172
H    -5.50338 -13.03501  -2.78696
H    -7.38312 -12.70267  -1.88465
H    -7.98699 -13.07536  -0.27826
H    -8.06954 -15.00982  -1.61968
H    -6.41249 -14.87646  -2.19031
H    -6.79766 -16.70076  -0.50245
H    -7.17138 -15.48380   0.71154
H    -4.55359 -16.46281  -0.08415
H    -4.61911 -14.81857  -0.62705
H    -2.91969 -14.56748   2.66265
H    -2.66118 -15.67881   1.30027
H    -2.93972 -13.94151   0.99462
H    -4.80626 -16.13693   3.48332
H    -6.07164 -16.64642   2.33473
H    -4.38434 -17.12573   2.08449
H    -7.72966  -9.41198   2.38340
H    -9.99453  -8.82988   2.37143
H   -10.39594 -10.52287   2.78736
H   -10.19161 -10.05303   1.08131
H    -3.18700  -9.08527   2.77109
H    -2.37771  -9.97020   1.42398
H    -3.66917  -8.76646   1.06918
H    -6.70789 -10.51834   4.66535
H    -6.36527 -12.00026   5.57306
H    -7.89898 -11.85041   4.66737
H    -6.92010 -15.49582   3.79630
H    -7.93542 -14.16311   3.16911
H    -7.39335 -14.17214   4.87348
