33
Generated by autodE on: 2022-06-09. E = -3172.527175 Ha
C     1.22571  -4.07474  -0.46517
N     0.68382  -2.73213  -0.38685
C     1.40132  -1.71132   0.10493
O     2.54292  -1.83670   0.55017
C     0.70294  -0.34094   0.09412
Br    1.43544   0.55531  -1.59836
C    -0.73841  -0.34637  -0.00605
C    -1.86491   0.04160   0.23098
C    -2.97992   0.79405   0.81100
C    -3.66668  -0.04077   1.90837
C    -4.01034   1.21367  -0.24898
C    -2.29576   2.06153   1.42221
C    -1.00608   1.84502   2.24250
C     0.35611   1.84732   1.48900
C     1.09909   0.51026   1.31389
H     0.44995  -4.74886  -0.84727
H     1.54865  -4.42754   0.52650
H     2.09608  -4.11463  -1.13987
H    -0.25807  -2.55511  -0.72270
H    -4.48224   0.54511   2.36021
H    -4.09470  -0.96325   1.48745
H    -2.95943  -0.32221   2.70244
H    -4.77486   1.85931   0.21072
H    -4.51460   0.33388  -0.67737
H    -3.53171   1.77299  -1.06707
H    -3.05449   2.54722   2.05834
H    -2.08071   2.76393   0.59994
H    -1.09454   0.92745   2.84832
H    -0.96764   2.66828   2.97269
H     1.04171   2.49365   2.05801
H     0.24453   2.33383   0.50565
H     2.18451   0.67294   1.26418
H     0.92083  -0.12829   2.19680
