28
Generated by autodE on: 2022-06-09. E = -741.039543 Ha
C     3.18620  -2.07598  -0.16495
N     2.29952  -0.93548  -0.22643
C     1.00076  -1.03319   0.13658
O     0.49782  -2.13344   0.44809
C     0.22540   0.22000   0.16828
C     0.78102   1.51659  -0.10143
O     1.96653   1.76043  -0.35531
O    -0.14658   2.50554  -0.10390
C     0.33340   3.83612  -0.30781
N    -1.09865   0.12283   0.62195
C    -1.54344   0.91345   1.78581
C    -1.90820  -0.80983   0.15811
C    -3.17522  -1.20210   0.84076
C    -1.59213  -1.42650  -1.09026
N    -1.45485  -1.91629  -2.13712
H     3.43126  -2.36567   0.87231
H     2.73002  -2.94878  -0.65509
H     4.12146  -1.82934  -0.68427
H     2.66737   0.00644  -0.35667
H     0.81664   3.93307  -1.29125
H     1.05124   4.12090   0.47601
H    -0.54911   4.48565  -0.25998
H    -1.73338   0.22592   2.62215
H    -0.75186   1.60990   2.06501
H    -2.46530   1.45793   1.54509
H    -2.96792  -1.53377   1.87127
H    -3.86411  -0.34370   0.89822
H    -3.66734  -2.01444   0.29407
