28
Generated by autodE on: 2022-07-27. E = -741.031726 Ha
C    -3.56664   0.62760   0.91315
N    -2.12204   0.53423   0.85640
C    -1.44617   0.73850  -0.30086
O    -2.03053   1.14885  -1.31469
C     0.01441   0.49226  -0.25961
C     0.88178   1.31462  -1.08159
O     0.56282   2.36228  -1.63162
O     2.12097   0.78399  -1.22868
C     3.07671   1.57821  -1.93425
N     0.55617  -0.49627   0.54462
C     1.78375  -0.21482   1.33141
C    -0.01085  -1.69611   0.68563
C    -1.10823  -2.19114  -0.18915
C     0.47433  -2.55809   1.70561
N     0.83850  -3.31693   2.51266
H    -3.91542   1.67090   0.83338
H    -4.02687   0.05615   0.09234
H    -3.91223   0.21583   1.86968
H    -1.61986   0.26641   1.69537
H     3.21748   2.55300  -1.44333
H     4.01495   1.01055  -1.91606
H     2.75783   1.74200  -2.97428
H     2.06109   0.83232   1.20317
H     1.55614  -0.39458   2.39047
H     2.59895  -0.87266   1.00803
H    -2.10196  -1.93156   0.21244
H    -1.02258  -1.72812  -1.18512
H    -1.05011  -3.28520  -0.27205
