61
Generated by autodE on: 2022-06-09. E = -3913.537284 Ha. Imaginary frequency = -268.8 cm-1
C    -2.85032 -12.23620  -2.86680
N    -4.19362 -12.43469  -2.35732
C    -4.43496 -12.55591  -1.04145
O    -3.52546 -12.56647  -0.20947
C    -5.92793 -12.71988  -0.63331
Br   -6.73875 -10.88807  -1.15420
C    -6.72049 -13.71355  -1.51634
C    -6.13975 -15.11796  -1.72875
C    -6.06063 -16.07865  -0.53683
C    -4.83618 -15.90150   0.37967
C    -5.11097 -15.30848   1.78962
C    -3.75126 -15.10840   2.48726
C    -5.97155 -16.30010   2.59105
C    -5.76173 -13.97855   1.57563
C    -6.03834 -13.04055   0.79446
C    -6.61931 -11.19482   2.36031
C    -8.13362 -11.02966   2.36024
O    -8.85145 -11.22146   1.38178
N    -8.62028 -10.59536   3.54038
C   -10.04532 -10.43593   3.75329
C    -5.94050 -10.00259   1.77691
O    -6.49564  -8.92365   1.66331
O    -4.69617 -10.23479   1.36820
C    -3.99440  -9.15526   0.74525
N    -6.03567 -11.91600   3.34807
C    -4.64519 -11.62251   3.74419
C    -6.50791 -13.17109   3.65834
C    -7.93982 -13.61068   3.46310
C    -5.89037 -13.80464   4.78219
N    -5.45213 -14.38445   5.69403
H    -2.44891 -11.24987  -2.57899
H    -2.17109 -13.00786  -2.47568
H    -2.87300 -12.30285  -3.96149
H    -4.97382 -12.34355  -2.99791
H    -6.84539 -13.26436  -2.51218
H    -7.73021 -13.78423  -1.08447
H    -6.79065 -15.57529  -2.49215
H    -5.14466 -15.03729  -2.19661
H    -6.03801 -17.09992  -0.94837
H    -6.99521 -16.01705   0.04455
H    -4.34750 -16.87556   0.54402
H    -4.08917 -15.26554  -0.11990
H    -3.86503 -14.70345   3.50062
H    -3.23008 -16.07590   2.56563
H    -3.11911 -14.42103   1.90646
H    -6.08495 -15.99738   3.63844
H    -6.97392 -16.41764   2.15550
H    -5.48035 -17.28561   2.58587
H    -7.98504 -10.45408   4.31803
H   -10.21934 -10.16674   4.80223
H   -10.58227 -11.37174   3.52952
H   -10.46052  -9.64418   3.10955
H    -3.88036  -8.31250   1.44239
H    -3.01424  -9.55918   0.46768
H    -4.53477  -8.82198  -0.15211
H    -4.50236 -10.54106   3.81438
H    -3.95270 -12.04906   3.00739
H    -4.45569 -12.05936   4.72909
H    -7.99719 -14.69388   3.62130
H    -8.30463 -13.39915   2.45448
H    -8.60404 -13.12603   4.19638
