23
Generated by autodE on: 2022-06-27. E = -351.521383 Ha
C     3.68630   0.82369  -0.17758
C     2.57930   0.04879  -0.17403
C     2.67092  -1.44864  -0.32052
C     1.26031   0.66061  -0.02532
C     0.07761  -0.00404  -0.00638
C    -1.20523   0.65225   0.14298
C    -2.42598   0.06024   0.17309
C    -2.65339  -1.42007   0.05440
C    -3.67458   0.88018   0.33473
H     4.68513   0.39211  -0.28697
H     3.61654   1.91061  -0.07042
H     3.71519  -1.77541  -0.42411
H     2.23256  -1.96094   0.55206
H     2.10967  -1.79659  -1.20364
H     1.24796   1.75235   0.07807
H     0.08155  -1.09261  -0.10900
H    -1.17049   1.74407   0.24107
H    -3.18434  -1.79748   0.94620
H    -1.72912  -2.00008  -0.06430
H    -3.30949  -1.63816  -0.80675
H    -4.35903   0.72350  -0.51840
H    -3.45854   1.95566   0.41473
H    -4.23412   0.56818   1.23499
