42
Generated by autodE on: 2022-07-27. E = -1016.341479 Ha
C    -2.46012   2.36109   2.34756
O    -2.15724   1.12910   1.68468
C    -1.15086   1.15404   0.79084
O    -0.48155   2.16376   0.60061
C    -1.02412  -0.12597   0.07565
C    -2.14925  -1.06328  -0.04300
C    -3.47392  -0.61045  -0.21971
C    -4.52725  -1.51543  -0.33992
C    -4.28730  -2.89361  -0.29105
C    -2.97967  -3.35853  -0.11913
C    -1.92387  -2.45565   0.00714
N     0.16247  -0.37811  -0.55308
C     0.18229  -0.96227  -1.91112
C     1.31250   0.00710   0.04449
C     1.41977   0.02633   1.50959
C     0.58750  -0.89806   2.37647
O     2.27836   0.73376   2.04895
C     2.44281   0.48941  -0.76370
C     3.75883   0.06146  -0.50027
C     4.82183   0.52574  -1.27361
C     4.59243   1.43091  -2.31681
C     3.29210   1.87470  -2.57749
C     2.22579   1.41080  -1.80618
H    -3.28711   2.13947   3.03233
H    -1.58742   2.72248   2.91061
H    -2.76674   3.12793   1.62112
H    -3.67459   0.46011  -0.27591
H    -5.54430  -1.14201  -0.48115
H    -5.11506  -3.60015  -0.38566
H    -2.77997  -4.43170  -0.07323
H    -0.90930  -2.83254   0.15252
H     0.02548  -0.17200  -2.65625
H     1.14505  -1.45543  -2.08098
H    -0.62463  -1.69391  -2.00287
H    -0.13824  -0.31975   2.96875
H     1.28506  -1.37035   3.08576
H     0.04781  -1.67341   1.82213
H     3.94165  -0.64945   0.30727
H     5.83606   0.17757  -1.06472
H     5.42727   1.79371  -2.92094
H     3.10802   2.59367  -3.37920
H     1.21642   1.78294  -1.99015
