42
Generated by autodE on: 2022-06-27. E = -1016.338967 Ha
C     2.63704  -1.59560  -2.95800
O     2.36863  -1.05093  -1.66054
C     1.19103  -0.44015  -1.50179
O     0.38711  -0.30626  -2.40750
C     1.04896   0.14865  -0.14302
C     2.24578   0.59109   0.58592
C     3.29686   1.25584  -0.07848
C     4.43187   1.66329   0.62059
C     4.54492   1.41141   1.99280
C     3.51276   0.74525   2.66146
C     2.37454   0.33690   1.96668
N    -0.18475   0.34142   0.34555
C    -0.43149   1.44258   1.30299
C    -1.26109  -0.47258   0.04431
C    -1.04853  -1.86563  -0.22251
C    -2.26769  -2.76777  -0.26079
O     0.08276  -2.37534  -0.38787
C    -2.62643   0.10667   0.15022
C    -3.08445   0.96686  -0.86418
C    -4.36149   1.52911  -0.79959
C    -5.20345   1.23324   0.27763
C    -4.75932   0.37702   1.29058
C    -3.47885  -0.17834   1.22932
H     1.88614  -2.35754  -3.21255
H     3.63258  -2.04984  -2.89468
H     2.62864  -0.80399  -3.72127
H     3.21489   1.46712  -1.14630
H     5.23275   2.18536   0.09198
H     5.43671   1.72959   2.53759
H     3.59789   0.53371   3.72987
H     1.58296  -0.20043   2.49202
H    -1.26958   2.04046   0.92751
H     0.45430   2.07746   1.37323
H    -0.69505   1.03855   2.28828
H    -1.96121  -3.75398  -0.63395
H    -3.04784  -2.35308  -0.91647
H    -2.71296  -2.88830   0.73864
H    -2.42583   1.18563  -1.70826
H    -4.70297   2.19515  -1.59574
H    -6.20401   1.66937   0.32775
H    -5.41077   0.14584   2.13685
H    -3.12900  -0.83506   2.02879
