65
Generated by autodE on: 2022-06-27. E = -1367.821151 Ha. Imaginary frequency = -266.0 cm-1
C    -5.24301   1.73959   0.99613
C    -4.17256   1.59349   0.18040
C    -4.34567   1.32493  -1.29308
C    -2.82522   1.67906   0.72596
C    -1.67063   1.53644   0.01443
C    -0.36606   1.61652   0.60020
C    -0.21210  -1.04501   0.66304
C    -0.39521  -0.62467   2.03681
O     0.49336  -0.33167   2.84377
O    -1.69557  -0.58238   2.40426
C    -1.97500  -0.13280   3.72859
C    -1.31573  -1.72838  -0.04861
C    -2.11595  -2.70217   0.58194
C    -3.14567  -3.34165  -0.10855
C    -3.39836  -3.02899  -1.44858
C    -2.60634  -2.07312  -2.09251
C    -1.57970  -1.43109  -1.40006
N     1.02428  -1.03417   0.04370
C     1.31466  -2.20900  -0.81620
C     2.00859  -0.06896   0.28660
C     2.55757  -0.04524   1.72704
C     2.94429  -1.41753   2.24055
O     2.94790   0.95855   2.29773
C     3.12731   0.05943  -0.69485
C     4.40582   0.51564  -0.29580
C     5.43774   0.70148  -1.21706
C     5.23707   0.43960  -2.57355
C     3.97921  -0.00158  -2.99491
C     2.94592  -0.18038  -2.07799
C     0.83698   1.82903  -0.11126
C     1.78887   2.86963   0.43662
C     0.74952   1.85330  -1.61827
H    -5.11568   1.92765   2.06674
H    -6.26567   1.67080   0.61515
H    -5.40874   1.30362  -1.57169
H    -3.89411   0.35955  -1.57276
H    -3.84392   2.09647  -1.90027
H    -2.75427   1.87334   1.80081
H    -1.73556   1.36308  -1.06045
H    -0.33612   1.82979   1.67196
H    -1.60168   0.88976   3.88715
H    -1.51901  -0.80024   4.47521
H    -3.06710  -0.14974   3.82776
H    -1.92147  -2.96597   1.62179
H    -3.75096  -4.09469   0.40167
H    -4.20648  -3.52875  -1.98773
H    -2.79442  -1.81738  -3.13773
H    -0.97707  -0.68017  -1.90996
H     0.92982  -2.11776  -1.83723
H     0.85509  -3.08949  -0.35199
H     2.39723  -2.36366  -0.85137
H     3.90228  -1.68378   1.76049
H     2.21424  -2.19609   1.99255
H     3.09852  -1.36875   3.32671
H     4.60917   0.73703   0.74946
H     6.40963   1.05286  -0.86262
H     6.04601   0.58195  -3.29362
H     3.79211  -0.20003  -4.05288
H     1.97754  -0.49058  -2.45717
H     2.82319   2.70654   0.10003
H     1.77710   2.91711   1.53059
H     1.47266   3.85389   0.04416
H     0.11610   2.70239  -1.92806
H     1.73344   2.00159  -2.07874
H     0.30132   0.94197  -2.03458
