36
Generated by autodE on: 2022-06-17. E = -750.493960 Ha
C    -1.64704   3.00155   0.91524
O    -0.83549   1.93788   0.39639
C    -0.89556   0.76423   1.03076
O    -1.58553   0.58510   2.01671
C    -0.11387  -0.34875   0.30436
C     1.21641   0.15713  -0.23524
C     1.70580  -0.25105  -1.48200
C     2.96965   0.15893  -1.91962
C     3.76590   0.97492  -1.11189
C     3.28926   1.37725   0.14060
C     2.02530   0.97144   0.57299
C     0.09569  -1.54115   1.26514
C    -1.18831  -2.38336   1.15860
C    -1.97145  -1.79517  -0.03307
C    -2.58269  -2.84685  -0.94836
N    -0.99336  -0.93592  -0.72262
C    -1.57562  -0.03496  -1.70279
H    -1.45961   3.86719   0.26965
H    -1.36160   3.23091   1.95186
H    -2.71031   2.72393   0.88140
H     1.09389  -0.89676  -2.11163
H     3.33261  -0.16451  -2.89842
H     4.75279   1.29541  -1.45420
H     3.90431   2.01106   0.78408
H     1.66570   1.29179   1.55436
H     0.96357  -2.11029   0.90710
H     0.31668  -1.19540   2.28300
H    -0.94496  -3.44064   0.97733
H    -1.79243  -2.33480   2.07464
H    -2.79764  -1.16465   0.35800
H    -3.16381  -2.39513  -1.76679
H    -1.79813  -3.48413  -1.38779
H    -3.26695  -3.48931  -0.37215
H    -1.97741  -0.61345  -2.54768
H    -2.40440   0.57905  -1.29367
H    -0.81234   0.64692  -2.09962
