30
Generated by autodE on: 2022-06-17. E = -671.792715 Ha
C    -4.03329  -0.51261  -0.07670
C    -2.66774  -0.02527  -0.37919
N    -1.59845  -0.43763   0.23705
C    -1.71404  -1.51115   1.24260
C    -0.34576   0.23559   0.10526
C    -0.40603   1.65409   0.22326
O    -1.42081   2.34292   0.42501
O     0.81341   2.27036   0.10202
C     0.81961   3.68834   0.22838
C     0.82127  -0.60508  -0.14867
C     0.65128  -1.85842  -0.79203
C     1.72825  -2.70997  -1.03956
C     3.02592  -2.34337  -0.66916
C     3.21817  -1.10920  -0.03632
C     2.14413  -0.25987   0.22695
H    -4.12543  -1.58863  -0.30688
H    -4.77268   0.03723  -0.67164
H    -4.27068  -0.39669   0.99465
H    -2.51403   0.73353  -1.14723
H    -2.29512  -1.13357   2.09678
H    -0.71455  -1.79219   1.58338
H    -2.22362  -2.38571   0.81867
H     0.18470   4.16320  -0.53580
H     1.86238   4.00159   0.08762
H     0.47088   4.00696   1.22312
H    -0.34522  -2.16392  -1.11798
H     1.54989  -3.66584  -1.53965
H     3.87137  -3.00587  -0.86829
H     4.22269  -0.80569   0.27146
H     2.32416   0.68226   0.74016
