30
Generated by autodE on: 2022-07-27. E = -671.792694 Ha
C    -2.83234  -2.76508  -0.95265
C    -1.89851  -1.91155  -0.18238
N    -1.11825  -1.01981  -0.72127
C    -1.08398  -0.88669  -2.19059
C    -0.42668  -0.04807   0.06369
C    -1.20662   0.58579   1.07362
O    -2.40803   0.38755   1.32297
O    -0.50828   1.50748   1.81157
C    -1.23847   2.19131   2.82422
C     0.98524   0.15896  -0.25051
C     1.73576  -0.89984  -0.82350
C     3.07952  -0.74700  -1.16626
C     3.73908   0.46470  -0.93796
C     3.01938   1.52255  -0.36907
C     1.67221   1.38081  -0.03872
H    -3.50822  -2.15761  -1.57849
H    -2.28005  -3.43228  -1.63767
H    -3.43060  -3.38197  -0.27106
H    -1.84493  -1.99968   0.90314
H    -0.86888  -1.85399  -2.66222
H    -2.06476  -0.52758  -2.53537
H    -0.31691  -0.15945  -2.46742
H    -1.65116   1.48965   3.56585
H    -2.06603   2.78001   2.39845
H    -0.52267   2.86521   3.31286
H     1.25737  -1.86717  -0.99089
H     3.61872  -1.59077  -1.60537
H     4.79305   0.58432  -1.19916
H     3.51160   2.48276  -0.19127
H     1.13483   2.22925   0.37959
