60
Generated by autodE on: 2022-06-28. E = -1530.093014 Ha
C     1.91406   1.77958   3.02943
N     0.87957   1.73055   2.01415
C     1.10902   2.13705   0.76094
O     2.15456   2.71595   0.42912
C     0.01378   1.84122  -0.29531
C    -0.24229   3.16715  -1.02172
N    -1.21070   1.30120   0.25034
C    -1.37275  -0.13578   0.19373
C    -1.62025  -0.64824   1.64254
O    -1.50051   0.08000   2.61409
O    -2.08172  -1.88438   1.72352
C    -2.28978  -2.41490   3.04001
C    -2.62763  -0.51772  -0.64414
C    -3.00192  -1.84695  -0.90771
C    -4.14730  -2.13645  -1.65259
C    -4.95739  -1.10660  -2.14016
C    -4.60747   0.21738  -1.86901
C    -3.45587   0.50382  -1.12994
C     0.02724  -0.60721  -0.42760
C     0.00254  -1.88619  -1.28075
C     1.03129  -0.94976   0.68695
O     0.67310  -1.52891   1.70727
C     2.45650  -0.68124   0.48029
O     3.35643  -1.12799   1.38608
C     3.32755  -2.50211   1.79770
C     2.91104   0.15540  -0.50638
O     4.22686   0.37311  -0.57313
C     4.78870   1.54463  -1.18662
C     1.97877   0.69945  -1.51897
O     2.41551   1.14924  -2.56803
C     0.47256   0.65735  -1.24499
C    -0.23144   0.73740  -2.60528
H     2.32188   2.79606   3.12898
H     2.74255   1.09822   2.77549
H     1.48270   1.47103   3.98956
H     0.01149   1.23566   2.22912
H    -1.05933   3.06153  -1.74462
H    -0.53510   3.93073  -0.28442
H     0.66112   3.51899  -1.53712
H    -1.62073   1.77639   1.04557
H    -2.66040  -3.43621   2.89706
H    -1.34001  -2.42622   3.59379
H    -3.02922  -1.81249   3.58586
H    -2.40826  -2.67246  -0.52603
H    -4.40829  -3.17929  -1.84870
H    -5.85397  -1.33604  -2.72099
H    -5.23047   1.03757  -2.23428
H    -3.17967   1.53794  -0.92977
H     0.99727  -2.05174  -1.71953
H    -0.24084  -2.75633  -0.65746
H    -0.72590  -1.82067  -2.09481
H     4.36494  -2.77015   2.04178
H     2.69249  -2.63783   2.68284
H     2.97009  -3.14950   0.98291
H     5.77391   1.67039  -0.71819
H     4.16878   2.42683  -0.98553
H     4.90711   1.40268  -2.26819
H     0.06359  -0.11035  -3.23650
H    -1.32007   0.72911  -2.49710
H     0.06241   1.65001  -3.13388
