34
Generated by autodE on: 2022-06-28. E = -840.607447 Ha
C    -5.11926  -1.95735   0.19198
N    -3.68775  -1.91638  -0.02142
C    -2.90393  -0.89585   0.38408
O    -3.34856   0.10589   0.98071
C    -1.45492  -1.00011   0.08724
C    -0.78997  -2.20359  -0.48380
N    -0.80504   0.09311   0.45558
C     0.46792   0.54605   0.36694
C     0.67255   1.74913   1.14927
O    -0.19439   2.26668   1.85845
O     1.90560   2.27925   1.02292
C     2.17282   3.46622   1.77306
C     1.46814  -0.01366  -0.55853
C     1.14197  -0.22528  -1.91341
C     2.08734  -0.73432  -2.80540
C     3.38085  -1.03393  -2.36665
C     3.72150  -0.81567  -1.02688
C     2.77657  -0.31264  -0.13188
H    -5.66337  -1.96291  -0.76614
H    -5.40712  -2.85799   0.75684
H    -5.41932  -1.07101   0.76221
H    -3.26477  -2.68268  -0.53312
H    -0.70966  -2.16956  -1.58439
H     0.22842  -2.30748  -0.08628
H    -1.34500  -3.11324  -0.21384
H    -1.43115   0.74453   0.96250
H     3.21654   3.72892   1.56232
H     1.50901   4.28599   1.45991
H     2.04059   3.28774   2.85068
H     0.14073   0.02407  -2.27062
H     1.81345  -0.89011  -3.85171
H     4.12063  -1.43216  -3.06501
H     4.72952  -1.04737  -0.67418
H     3.04603  -0.15604   0.91378
