26
Generated by autodE on: 2022-06-28. E = -689.460849 Ha
C    -2.84883   1.55966  -0.19196
O    -2.17481   0.46070  -0.81424
C    -0.90292   0.21516  -0.38258
C    -0.57090  -0.87003   0.37235
O    -1.35689  -1.82713   0.86482
C    -2.78245  -1.79917   0.73800
C     0.86976  -1.11892   0.73182
O     1.14946  -2.10973   1.39278
C     1.91090  -0.15492   0.29262
C     3.32659  -0.42705   0.69800
C     1.56752   0.92871  -0.44701
C     2.58228   1.92673  -0.90785
C     0.14495   1.14893  -0.84786
O    -0.16462   2.09386  -1.57169
H    -3.84979   1.60745  -0.64092
H    -2.32169   2.50791  -0.37274
H    -2.94347   1.39230   0.89388
H    -3.13700  -2.68780   1.27551
H    -3.08748  -1.85397  -0.31479
H    -3.20096  -0.89653   1.20568
H     3.72330   0.40313   1.30562
H     3.97758  -0.50730  -0.18796
H     3.40339  -1.35437   1.27761
H     3.34894   1.44134  -1.53459
H     2.11434   2.73276  -1.48470
H     3.11390   2.36580  -0.04751
