41
Generated by autodE on: 2022-06-07. E = -3439.651722 Ha
C     4.25817   0.91436   0.19179
O     3.26986  -0.12317   0.12810
C     2.45402  -0.12469  -0.92721
O     2.59332   0.60973  -1.88594
C     1.37202  -1.18540  -0.79961
N     0.77502  -1.51506  -2.08931
C    -0.45583  -0.74143  -2.22378
C    -1.06888  -0.75437  -0.82249
Br   -2.29631   0.82128  -0.73586
C    -1.86142  -2.03850  -0.45358
C    -2.60623  -1.86235   0.88284
C    -1.44448  -1.71904   1.90419
C    -0.18312  -2.01668   1.05557
C    -0.74486  -2.99733   0.01125
C     0.17897  -0.78261   0.17804
C     0.53274   0.47452   0.95943
C     0.94504   0.39382   2.29916
C     1.38622   1.52508   2.99157
C     1.43039   2.76827   2.35629
C     1.03609   2.86351   1.01883
C     0.59684   1.73023   0.33117
H     4.77357   0.78340   1.15006
H     3.77504   1.90109   0.15227
H     4.97093   0.81977  -0.64002
H     1.87605  -2.06136  -0.36255
H     1.41971  -1.27651  -2.84131
H    -1.13493  -1.19074  -2.96422
H    -0.26681   0.30129  -2.53295
H    -2.49307  -2.37800  -1.28509
H    -3.29240  -1.00791   0.88773
H    -3.19864  -2.76871   1.07662
H    -1.41817  -0.72024   2.35834
H    -1.52939  -2.44903   2.72240
H     0.67462  -2.37888   1.63585
H    -0.03803  -3.28133  -0.77364
H    -1.15937  -3.90628   0.47164
H     0.94439  -0.56597   2.81473
H     1.70242   1.42883   4.03311
H     1.77664   3.65330   2.89530
H     1.07556   3.82478   0.50088
H     0.32275   1.82975  -0.71744
