14
Generated by autodE on: 2022-07-27. E = -361.971755 Ha
C    -2.38842  -0.15254  -1.15639
N    -1.43987  -1.05233  -1.07302
C    -0.19801  -1.04719  -0.49770
C     0.31259   0.08610   0.17709
O    -0.25262   1.17691   0.33829
O     1.57282  -0.13830   0.67127
C     2.17632   0.94557   1.37039
H    -2.24394   0.82398  -0.70262
H    -3.29799  -0.42992  -1.68695
H    -1.65868  -1.94289  -1.52674
H     0.37310  -1.96596  -0.59309
H     3.16547   0.59278   1.68973
H     1.58518   1.23355   2.25418
H     2.29210   1.82833   0.72169
