41
Generated by autodE on: 2022-06-07. E = -3439.582629 Ha. Imaginary frequency = -270.6 cm-1
C     4.18127   0.92290   0.47266
O     3.46774  -0.26183   0.12277
C     2.55918  -0.15243  -0.89002
O     2.32380   0.92981  -1.43386
C     1.98021  -1.41879  -1.19536
N     1.00882  -1.58468  -2.13498
C     0.02268  -0.73091  -2.42454
C    -1.17596  -0.65907  -0.55712
Br   -2.27517   0.85204  -1.11079
C    -1.95897  -1.96969  -0.44310
C    -2.82972  -1.85960   0.84535
C    -1.76735  -1.87200   1.98457
C    -0.42204  -1.98811   1.19778
C    -0.85704  -2.91791   0.05537
C    -0.25748  -0.62899   0.50599
C     0.38225   0.49930   1.17114
C     1.02738   0.30855   2.41893
C     1.63341   1.36486   3.09480
C     1.62652   2.65387   2.54867
C     1.01165   2.86246   1.31109
C     0.40597   1.80670   0.62996
H     4.83743   0.64749   1.30781
H     3.49995   1.72468   0.78883
H     4.78998   1.28036  -0.37286
H     2.46002  -2.32673  -0.83654
H     0.84353  -2.55405  -2.40207
H    -0.70292  -1.06446  -3.16700
H     0.24118   0.32922  -2.34263
H    -2.50726  -2.25528  -1.34934
H    -3.50515  -2.72548   0.91321
H    -3.44744  -0.95116   0.84235
H    -1.79733  -0.96952   2.61125
H    -1.89344  -2.74469   2.64361
H     0.43219  -2.32116   1.79709
H    -0.07176  -3.13878  -0.67139
H    -1.26630  -3.86916   0.42732
H     1.05060  -0.68372   2.86864
H     2.11725   1.18015   4.05711
H     2.10079   3.48276   3.07913
H     1.00887   3.85895   0.86236
H    -0.05450   2.00260  -0.33388
