25
Generated by autodE on: 2022-06-16. E = -739.574683 Ha
C    -2.67958   2.05132   0.22737
C    -1.60282   1.07999  -0.21045
N    -2.02439  -0.32293  -0.03459
C    -0.77866  -1.08592   0.02147
C    -0.97489  -2.41488   0.61665
N    -1.14619  -3.44995   1.10732
C    -0.25282  -1.26349  -1.35385
N     0.16674  -1.36375  -2.42877
C     0.21485  -0.20095   0.87241
C     1.66812  -0.56556   0.64711
O     2.05150  -1.70555   0.86688
C     2.58299   0.46609   0.13019
C     2.15569   1.68410  -0.25454
C     0.73840   2.10445  -0.18039
O     0.38192   3.15303  -0.70020
C    -0.24929   1.23243   0.55893
H    -2.33015   3.08100   0.06864
H    -2.90630   1.92279   1.29853
H    -3.60358   1.90167  -0.35081
H    -1.39770   1.22843  -1.28201
H    -2.47489  -0.42043   0.87980
H    -0.00276  -0.44121   1.92256
H     3.62979   0.16810   0.03045
H     2.84203   2.41614  -0.68813
H    -0.43557   1.75542   1.51076
