12
Generated by autodE on: 2022-06-16. E = -381.636092 Ha
O     2.40335   1.15552  -0.00360
C     1.29774   0.62400  -0.00330
C     0.05623   1.43479  -0.01549
C    -1.15556   0.85235  -0.01297
C    -1.29774  -0.62400   0.00298
O    -2.40335  -1.15552   0.00376
C    -0.05623  -1.43479   0.01552
C     1.15556  -0.85235   0.01300
H     0.18584   2.51953  -0.02647
H    -2.08332   1.42915  -0.02201
H    -0.18585  -2.51953   0.02670
H     2.08332  -1.42914   0.02224
