49
Generated by autodE on: 2022-06-21. E = -1112.294978 Ha
C     2.74518  -2.62666  -1.25430
C     1.95986  -2.02250  -0.34987
C     1.89917  -2.48087   1.08163
C     1.12876  -0.83241  -0.77954
C    -0.37649  -0.85891  -0.36605
C    -1.34467  -1.04912  -1.49239
C    -2.55415  -1.63453  -1.40744
C    -3.12801  -2.22615  -0.14848
C    -3.46040  -1.70857  -2.60655
C    -0.51516   0.51139   0.36729
C    -1.77677   0.72134   1.13690
C    -1.87955   0.21334   2.43918
C    -3.09013   0.29592   3.13011
C    -4.20663   0.88100   2.52391
C    -4.10497   1.38943   1.22542
C    -2.89515   1.30918   0.53126
N     0.73504   0.60409   1.06617
C     1.58175   0.54337  -0.12884
C     3.07232   0.69190   0.11516
O     3.57216   0.38745   1.20165
N     3.78800   1.11071  -0.93892
C     5.22814   1.26367  -0.86684
C     0.89858   1.56682  -1.05213
O     1.35166   2.23082  -1.95774
O    -0.39685   1.54960  -0.71680
H     2.78777  -2.28419  -2.29242
H     3.36843  -3.48390  -0.98266
H     2.19573  -1.67113   1.76324
H     0.87868  -2.78401   1.36751
H     2.56692  -3.33904   1.24428
H     1.22339  -0.73507  -1.86878
H    -0.53582  -1.61441   0.41027
H    -1.04375  -0.62163  -2.45512
H    -3.97829  -1.61517   0.20194
H    -3.52723  -3.23577  -0.34471
H    -2.40681  -2.29069   0.67629
H    -4.41969  -1.20285  -2.39758
H    -3.70980  -2.75727  -2.84586
H    -3.01006  -1.24446  -3.49634
H    -1.01312  -0.25673   2.90652
H    -3.16246  -0.10181   4.14494
H    -5.15454   0.94118   3.06369
H    -4.97301   1.84857   0.74689
H    -2.82001   1.69715  -0.48434
H     0.82775   1.50249   1.54688
H     3.28005   1.47987  -1.74060
H     5.61643   1.45715  -1.87417
H     5.51846   2.09875  -0.20784
H     5.69103   0.34594  -0.47590
