23
Generated by autodE on: 2022-06-21. E = -351.521385 Ha
C     3.58179  -1.20850   0.10217
C     2.56512  -0.32003   0.04928
C     2.82373   1.16411  -0.00358
C     1.18210  -0.79261   0.04385
C     0.07818  -0.00516  -0.00099
C    -1.27422  -0.52422  -0.00257
C    -2.42425   0.19524  -0.04248
C    -2.48503   1.69552  -0.09396
C    -3.76139  -0.49025  -0.03794
H     3.39057  -2.28538   0.14065
H     4.62558  -0.88248   0.10805
H     2.35929   1.67939   0.85361
H     3.90117   1.38117   0.00582
H     2.38831   1.61142  -0.91260
H     1.04739  -1.88037   0.08099
H     0.20548   1.08010  -0.03732
H    -1.36218  -1.61687   0.03345
H    -3.03200   2.02463  -0.99517
H    -1.49917   2.17795  -0.09728
H    -3.05531   2.08427   0.76821
H    -3.66770  -1.58549   0.00018
H    -4.36716  -0.16112   0.82551
H    -4.34253  -0.22048  -0.93813
