49
Generated by autodE on: 2022-06-21. E = -1112.258291 Ha. Imaginary frequency = -487.2 cm-1
C     3.19973  -2.12339  -1.16894
C     2.08929  -1.91483  -0.42486
C     1.95532  -2.50197   0.95738
C     0.98904  -1.12531  -0.97309
C    -0.33723  -1.10278  -0.43497
C    -1.46326  -1.14044  -1.39060
C    -2.70229  -1.62463  -1.16690
C    -3.14709  -2.27517   0.11319
C    -3.77066  -1.51759  -2.22050
C    -0.49815   0.69108   0.34228
C    -1.79242   0.76851   1.03917
C    -1.91625   0.26890   2.34557
C    -3.15966   0.26236   2.97642
C    -4.29196   0.73943   2.30572
C    -4.17205   1.23081   1.00250
C    -2.92821   1.24513   0.36801
N     0.70990   0.84348   1.00236
C     1.65261   0.96075   0.01084
C     3.09115   0.84618   0.26599
O     3.51284   0.44731   1.36258
N     3.88312   1.13794  -0.78264
C     5.31602   0.93149  -0.74624
C     0.97954   1.52512  -1.12968
O     1.37992   1.97761  -2.19007
O    -0.37134   1.45410  -0.82203
H     3.29274  -1.70955  -2.17662
H     4.03279  -2.72093  -0.78973
H     1.72729  -1.73275   1.71010
H     1.13467  -3.23737   0.99661
H     2.88386  -3.00552   1.26000
H     1.10331  -0.84563  -2.02422
H    -0.47941  -1.68382   0.47929
H    -1.25866  -0.68286  -2.36459
H    -3.93850  -1.67315   0.59223
H    -3.59103  -3.26456  -0.09438
H    -2.33812  -2.40698   0.84253
H    -4.62320  -0.92538  -1.84117
H    -4.17651  -2.51102  -2.48171
H    -3.40104  -1.03875  -3.13940
H    -1.04397  -0.12715   2.87023
H    -3.24740  -0.12461   3.99397
H    -5.26637   0.72615   2.79925
H    -5.05205   1.60296   0.47323
H    -2.83529   1.62450  -0.64920
H     0.91995   0.32332   1.85151
H     3.43844   1.47290  -1.63497
H     5.69383   0.85448  -1.77362
H     5.84082   1.76076  -0.24191
H     5.55047   0.00189  -0.20872
