14
Generated by autodE on: 2022-06-17. E = -270.683216 Ha
C    -0.85319   1.33768  -0.07798
C    -0.85757  -0.16325  -0.02355
C    -2.20147  -0.82043  -0.04529
C     0.27598  -0.91436   0.04197
C     1.63756  -0.40136   0.06944
O     1.97921   0.77884   0.04119
H    -0.28266   1.69818  -0.94858
H    -1.87585   1.73635  -0.13217
H    -0.35159   1.76160   0.80650
H    -2.13943  -1.91647  -0.00205
H    -2.74866  -0.52456  -0.95774
H    -2.80948  -0.45838   0.80248
H     0.18625  -2.00404   0.07797
H     2.42135  -1.19570   0.12182
