21
Generated by autodE on: 2022-07-27. E = -570.106309 Ha
C    -4.27737  -1.64077  -0.68271
N    -3.15790  -1.61482   0.23322
C    -2.02340  -0.92854  -0.05184
O    -1.88971  -0.30226  -1.12204
C    -0.99367  -0.98846   0.97632
N     0.17740  -0.37457   0.85979
C     0.73404   0.39481  -0.08729
C     2.06129   0.86724   0.19423
O     2.69844   0.61509   1.21878
O     2.55426   1.63550  -0.80227
C     3.87272   2.15472  -0.61383
H    -4.69916  -0.63368  -0.83905
H    -5.06076  -2.28763  -0.26925
H    -3.97952  -2.03359  -1.66828
H    -3.23366  -2.09669   1.12251
H    -1.14680  -1.55123   1.89609
H     0.81085  -0.50543   1.66007
H     0.18711   0.62533  -0.99343
H     3.91788   2.79927   0.27715
H     4.60463   1.34002  -0.50495
H     4.09979   2.74267  -1.51145
