21
Generated by autodE on: 2022-06-17. E = -570.110090 Ha
C    -4.72399   0.73243   0.01293
N    -3.59948  -0.10123  -0.35709
C    -2.32947   0.24524  -0.05920
O    -2.04541   1.30369   0.53775
C    -1.28799  -0.69076  -0.47649
N    -0.05017  -0.33820  -0.18504
C     1.13401  -0.92070  -0.40039
C     2.29125  -0.21526   0.07139
O     2.26820   0.87273   0.64959
O     3.44050  -0.87970  -0.18879
C     4.64920  -0.25086   0.24328
H    -4.81496   0.82835   1.10760
H    -4.62295   1.74660  -0.40517
H    -5.64441   0.28143  -0.37711
H    -3.76865  -0.98130  -0.83271
H    -1.47921  -1.62871  -0.99740
H     0.00119   0.57146   0.30678
H     1.18243  -1.88010  -0.91109
H     4.65238  -0.11198   1.33508
H     4.77940   0.72796  -0.24279
H     5.46442  -0.92377  -0.04938
