20
Generated by autodE on: 2022-06-22. E = -457.715328 Ha
C    -3.04021  -0.88156  -0.27275
N    -1.82275  -0.09799  -0.14178
C    -1.90997   1.26629   0.16329
C    -0.82857   2.02964   0.38629
C     0.58208   1.49718   0.33135
C     0.57622   0.00889   0.02300
C     1.82900  -0.75743  -0.07150
N     2.97387  -0.05592   0.12489
O     1.87070  -1.98078  -0.31454
C    -0.58720  -0.67094  -0.18206
H    -2.78790  -1.88715  -0.63195
H    -3.72484  -0.41328  -0.99664
H    -3.56735  -0.97454   0.69202
H    -2.92589   1.66337   0.20330
H    -0.97714   3.08810   0.61211
H     1.10294   1.70114   1.28927
H     1.16974   2.05627  -0.42578
H     2.98240   0.93748   0.31790
H     3.85951  -0.54643   0.06599
H    -0.56201  -1.74020  -0.39855
