46
Generated by autodE on: 2022-06-22. E = -1052.774777 Ha. Imaginary frequency = -425.7 cm-1
C     3.75003  -1.41550   1.71670
N     2.68247  -0.43247   1.63767
C     2.82534   0.64878   0.82489
C     1.82714   1.53051   0.53123
C     2.13464   2.60764  -0.41551
N     1.13628   3.50145  -0.66191
O     3.24396   2.73925  -0.97365
C     0.46249   1.38800   1.17079
C     0.29370   0.00972   1.76221
C     1.36661  -0.83187   1.99730
C     1.01774  -2.51562   0.58152
N     0.05372  -2.17104  -0.08466
C    -0.80211  -1.15221  -0.23164
C    -2.13214  -1.32821   0.39506
C    -2.63176  -2.61902   0.65648
C    -3.85864  -2.79901   1.29895
C    -4.61926  -1.69460   1.69266
C    -4.13078  -0.40607   1.44668
C    -2.90393  -0.22212   0.80940
C    -0.53737  -0.22151  -1.34585
C    -1.53455   0.61675  -1.88749
C    -1.23498   1.52784  -2.90228
C     0.06268   1.62127  -3.41370
C     1.05638   0.77607  -2.90875
C     0.76316  -0.12826  -1.89057
H     3.73346  -2.11652   0.86375
H     3.64951  -1.99707   2.64386
H     4.72236  -0.90489   1.73068
H     3.81577   0.78613   0.38720
H     1.26593   4.12603  -1.45130
H     0.18017   3.29080  -0.40112
H    -0.33514   1.58938   0.43374
H     0.32019   2.15988   1.95738
H    -0.63027  -0.20048   2.29934
H     1.33118  -1.56328   2.80584
H     1.55630  -3.47144   0.51592
H    -2.05331  -3.48982   0.34272
H    -4.22457  -3.81182   1.48510
H    -5.58130  -1.83468   2.19085
H    -4.70575   0.46722   1.76439
H    -2.52391   0.78906   0.66396
H    -2.55929   0.55165  -1.52518
H    -2.02800   2.16688  -3.29827
H     0.29594   2.33925  -4.20318
H     2.07713   0.83835  -3.29214
H     1.55457  -0.77159  -1.50725
