49
Generated by autodE on: 2022-06-02. E = -1335.818325 Ha
C    -4.21685   2.25072   1.83198
O    -3.49080   1.19947   1.16967
C    -2.16647   1.21929   1.27920
O    -1.55051   2.03513   1.92684
C    -1.53067   0.01681   0.57689
C    -1.95703  -1.18802   1.49717
C    -3.10370  -2.04081   1.05549
O    -1.35860  -1.36597   2.53808
C     0.01774   0.03815   0.52357
C     0.78228   1.36169   0.18202
O     0.68343   1.45001  -1.23757
C     1.26345   0.17644  -1.53324
C     2.55756   0.22644  -0.72706
C     3.75154  -0.61579  -0.96143
C     3.73154  -1.47581  -2.19362
O     4.69521  -0.60990  -0.17860
C     2.26015   0.98220   0.35395
C     3.00529   1.21885   1.62007
C     4.25066   2.04718   1.56298
O     2.52763   0.78978   2.66141
C     0.32646  -0.79084  -0.74947
N    -0.97962  -0.97949  -1.37038
C    -1.20401  -1.97877  -2.26687
C    -2.61780  -2.19211  -2.73460
O    -0.25160  -2.64247  -2.69497
N    -2.00798  -0.19786  -0.79828
C    -2.34423   0.99703  -1.58706
H    -5.27506   2.05915   1.62403
H    -4.02417   2.21888   2.91336
H    -3.91639   3.22814   1.42953
H    -2.77972  -2.66483   0.20747
H    -3.93985  -1.42362   0.70238
H    -3.41267  -2.68894   1.88557
H     0.41416  -0.38813   1.44820
H     0.43863   2.26956   0.68001
H     1.32637  -0.00312  -2.61010
H     2.81106  -2.08157  -2.22846
H     4.61631  -2.12425  -2.21985
H     3.71512  -0.82963  -3.08771
H     4.91383   1.68869   0.76415
H     4.76161   2.03414   2.53524
H     3.96057   3.08286   1.31348
H     0.79482  -1.76464  -0.57159
H    -3.34675  -2.03376  -1.93071
H    -2.84741  -1.47589  -3.54050
H    -2.69880  -3.20784  -3.14228
H    -1.59291   1.79780  -1.51448
H    -2.43298   0.69626  -2.63833
H    -3.32141   1.37289  -1.26118
