26
Generated by autodE on: 2022-07-27. E = -722.768515 Ha
C    -1.77864   2.75133   2.21671
O    -1.40659   1.57977   1.46466
C    -0.11065   1.32165   1.36560
O     0.77473   2.00144   1.83462
C     0.14081   0.04339   0.60352
C     0.11136  -1.16170   1.46963
C     0.25614  -2.54815   0.92931
O    -0.07389  -0.94702   2.66667
N     0.35323   0.08942  -0.69889
C     0.19048   1.40714  -1.38168
N     0.79410  -0.96868  -1.36012
C     0.38898  -1.14671  -2.65827
C     1.15478  -2.24463  -3.35327
O    -0.54782  -0.55412  -3.20290
H    -2.87291   2.79053   2.18669
H    -1.42425   2.66092   3.25303
H    -1.34822   3.65004   1.75315
H     0.04280  -3.25804   1.73955
H    -0.41740  -2.71064   0.07525
H     1.27711  -2.69891   0.54836
H     0.71502   1.37771  -2.33784
H     0.63537   2.17857  -0.74435
H    -0.87673   1.60207  -1.53357
H     0.82098  -3.22137  -2.96553
H     2.23332  -2.16290  -3.15457
H     0.96023  -2.20741  -4.43283
