49
Generated by autodE on: 2022-06-02. E = -1335.727447 Ha. Imaginary frequency = -174.3 cm-1
C    -4.40383   2.49654   1.60701
O    -3.83387   1.28527   1.07730
C    -2.52715   1.10984   1.25803
O    -1.81314   1.88564   1.85289
C    -2.06617  -0.19397   0.65307
C    -2.14438  -1.32710   1.60089
C    -2.06510  -2.75588   1.14417
O    -2.33679  -1.04950   2.78591
C     0.47315  -0.39851   0.89749
C     0.93725   1.02892   0.55626
O     0.58390   1.10504  -0.83295
C     1.28924  -0.07175  -1.23148
C     2.70993   0.27794  -0.70582
C     3.94515  -0.26143  -1.32307
C     3.81555  -1.62651  -1.94147
O     4.99377   0.36860  -1.33899
C     2.47919   0.97290   0.43455
C     3.31709   1.41421   1.57103
C     4.80646   1.52006   1.43872
O     2.74236   1.68181   2.62375
C     0.70093  -1.11029  -0.25430
N    -1.31600  -1.30524  -1.17117
C    -1.46403  -1.79333  -2.44093
C    -2.83101  -1.75898  -3.08846
O    -0.50460  -2.33510  -2.99516
N    -1.99657  -0.29472  -0.68524
C    -2.32533   0.87802  -1.52790
H    -5.47058   2.45817   1.36063
H    -4.26133   2.53727   2.69588
H    -3.93215   3.37209   1.13876
H    -1.03917  -3.01394   0.84747
H    -2.70587  -2.93159   0.26833
H    -2.37559  -3.39417   1.98208
H     0.39325  -0.77754   1.91367
H     0.52151   1.85104   1.14124
H     1.19384  -0.27835  -2.30112
H     3.38541  -2.33387  -1.21337
H     4.79770  -1.97934  -2.28142
H     3.11942  -1.58761  -2.79557
H     5.23674   0.52853   1.22752
H     5.22661   1.91771   2.37161
H     5.07221   2.16355   0.58804
H     0.84595  -2.18095  -0.36754
H    -3.64708  -1.66108  -2.36087
H    -2.87739  -0.90778  -3.78634
H    -2.95693  -2.67966  -3.67481
H    -2.01769   1.80004  -1.02293
H    -1.77137   0.79791  -2.46642
H    -3.40577   0.89486  -1.71670
