49
Generated by autodE on: 2022-10-22. E = -3760.079420 Ha
C     1.31590   0.94582  -5.24715
O     0.55000   0.87905  -4.02956
C     1.23566   0.81458  -2.89971
O     2.44273   0.87672  -2.80511
C     0.34845   0.73914  -1.68650
N    -0.29066   1.79009  -1.30457
C    -0.79356   1.46951   0.03717
C    -2.22069   1.77060   0.12596
N    -3.35596   2.00469   0.15939
C     0.11251   2.44222   0.92885
C    -0.50661   3.73583   1.34612
O     1.26601   2.14015   1.10144
C    -0.47652   0.00026   0.29503
C     0.22959  -0.42508  -0.78294
C     0.89649  -1.75011  -1.13018
O     1.05450  -1.81502  -2.54510
C    -0.14221  -2.01728  -3.29490
O     0.05716  -2.78955  -0.69994
C     0.54024  -4.11618  -0.89413
C     2.32430  -1.78325  -0.55054
C     2.48859  -2.06539   0.95088
C     1.64925  -1.26846   1.96215
C     0.18135  -1.72925   2.06490
C    -0.88589  -0.76372   1.53190
C    -2.23335  -1.45446   1.33487
Br   -1.18217   0.60050   3.04026
H     1.91034   1.86974  -5.27043
H     0.58372   0.93967  -6.06185
H     1.98147   0.07438  -5.31989
H    -1.40704   3.56558   1.95246
H     0.22534   4.33109   1.90567
H    -0.82210   4.27789   0.43906
H    -0.52578  -3.04177  -3.17622
H     0.11955  -1.85038  -4.34749
H    -0.93858  -1.31028  -3.00967
H    -0.32536  -4.78160  -0.77674
H     1.30191  -4.38764  -0.14734
H     0.96179  -4.24986  -1.90169
H     2.78357  -0.81712  -0.80608
H     2.87972  -2.54627  -1.11720
H     3.55355  -1.88997   1.17320
H     2.32076  -3.13720   1.14317
H     1.70836  -0.19070   1.74582
H     2.12092  -1.40020   2.94754
H     0.04987  -2.66516   1.50839
H    -0.08539  -1.96043   3.10488
H    -2.52208  -1.99624   2.24678
H    -3.02636  -0.74227   1.07283
H    -2.12451  -2.17556   0.51148
