18
Generated by autodE on: 2022-10-22. E = -605.729069 Ha
C     4.10316   1.46530  -0.71653
O     2.69327   1.18840  -0.56500
C     2.37445  -0.00669  -0.10439
O     3.11930  -0.90803   0.20998
C     0.93558  -0.15477  -0.00042
N    -0.19565  -0.39767   0.15285
C    -1.51649  -0.48775   0.25117
C    -2.08995  -1.68269   0.74273
N    -2.59096  -2.65652   1.14549
C    -2.29216   0.69143  -0.17143
C    -3.78846   0.58193  -0.06197
O    -1.71825   1.69303  -0.58683
H     4.60648   1.38562   0.25669
H     4.16058   2.48923  -1.09980
H     4.54819   0.75770  -1.42944
H    -4.24925   1.51787  -0.40176
H    -4.08181   0.37827   0.98034
H    -4.15558  -0.25802  -0.67333
