31
Generated by autodE on: 2022-10-22. E = -3154.227881 Ha
C     0.38404  -3.05138  -2.58324
O    -0.54155  -1.97300  -2.57810
C    -1.01654  -1.58284  -1.30803
O    -1.67148  -2.64974  -0.65446
C    -2.84700  -3.14441  -1.28645
C     0.08647  -1.12878  -0.43401
C     0.80768  -0.30637   0.08958
C     1.38175   0.97569   0.44343
C     2.90104   1.01930   0.49044
Br    0.71486   1.40358   2.32945
C     0.77762   2.01775  -0.52280
C    -0.73134   1.91556  -0.81341
C    -1.20101   0.95014  -1.93928
C    -1.92269  -0.35273  -1.53622
H     1.28308  -2.80945  -1.98959
H     0.67832  -3.21357  -3.62883
H    -0.06560  -3.97490  -2.18472
H    -3.08140  -4.10383  -0.80474
H    -3.70391  -2.46351  -1.15307
H    -2.68757  -3.31641  -2.36276
H     3.24871   2.02731   0.75683
H     3.30105   0.29690   1.21472
H     3.29142   0.76641  -0.50857
H     1.33936   1.91218  -1.46746
H     1.02105   3.01436  -0.12402
H    -1.26862   1.69511   0.12402
H    -1.05015   2.92911  -1.10071
H    -0.35765   0.70321  -2.60504
H    -1.91167   1.50911  -2.56670
H    -2.50275  -0.19911  -0.61311
H    -2.63210  -0.63143  -2.32981
