49
Generated by autodE on: 2022-10-22. E = -3759.958162 Ha. Imaginary frequency = -241.6 cm-1
C     0.07466   0.13278  -5.49089
O    -0.48212   0.45720  -4.19990
C     0.38141   0.72103  -3.23665
O     1.58046   0.83270  -3.33322
C    -0.30985   0.87666  -1.94115
N    -0.98731   1.64820  -1.33319
C    -1.40640   2.14679  -0.18459
C    -2.79716   2.17125   0.09418
N    -3.93404   2.19075   0.35073
C    -0.39946   2.88340   0.63066
C    -0.91761   3.58064   1.85655
O     0.76295   2.93328   0.25918
C    -0.37150  -0.41231   0.72083
C     0.03745  -0.76211  -0.38835
C     0.65817  -1.84635  -1.21972
O     2.01226  -1.49737  -1.35498
C     2.80554  -2.33071  -2.19395
O     0.12305  -1.88931  -2.53066
C    -1.25143  -2.21377  -2.66947
C     0.44328  -3.19223  -0.48796
C     1.29290  -3.44819   0.76419
C     1.23556  -2.45313   1.93621
C    -0.16531  -2.08675   2.46463
C    -0.63290  -0.65181   2.13612
C    -2.06391  -0.38498   2.57190
Br    0.56906   0.61409   3.20723
H     0.65619   0.98069  -5.87724
H    -0.78372  -0.07335  -6.13876
H     0.71539  -0.75575  -5.40248
H    -1.53681   4.43665   1.53817
H    -0.07484   3.94233   2.45747
H    -1.55505   2.91969   2.46002
H     2.47378  -2.28264  -3.24198
H     2.79908  -3.38169  -1.86318
H     3.83150  -1.94486  -2.12396
H    -1.88478  -1.58582  -2.01855
H    -1.44938  -3.27410  -2.44539
H    -1.51618  -2.01709  -3.71647
H    -0.62514  -3.26855  -0.24077
H     0.64984  -3.99216  -1.21644
H     0.99124  -4.44256   1.13530
H     2.34874  -3.54762   0.46506
H     1.77319  -1.53325   1.66292
H     1.81792  -2.89560   2.75907
H    -0.92899  -2.75508   2.03096
H    -0.22820  -2.21379   3.55539
H    -2.19201  -0.62777   3.63607
H    -2.35284   0.65996   2.40465
H    -2.73671  -1.02790   1.98174
