40
Generated by autodE on: 2022-05-29. E = -1159.802293 Ha
C    -1.43543  -2.88468   1.80722
N    -0.88901  -1.88693   0.91222
N    -1.65706  -1.53933  -0.24068
C    -1.80962  -2.64340  -1.20367
C    -0.91657  -0.35940  -0.73357
C    -1.10241  -0.17396  -2.17883
N    -1.24452   0.02771  -3.31116
C    -1.35698   0.93088  -0.03138
C    -2.14920   0.89585   1.12065
C    -2.49544   2.08469   1.76912
C    -2.06294   3.31567   1.26836
C    -1.28896   3.35432   0.10489
C    -0.93902   2.16830  -0.54123
C     0.62779  -0.74684  -0.47715
F     1.07352  -1.38279  -1.62518
C     1.55452   0.39666  -0.15398
C     1.48359   1.07654   1.07271
C     2.29827   2.18326   1.30964
C     3.18683   2.62942   0.32620
C     3.25852   1.95767  -0.89637
C     2.44586   0.84660  -1.13719
C     0.47884  -1.85357   0.62582
F     0.99692  -3.04545   0.15424
F     1.19927  -1.61742   1.75379
H    -0.80665  -2.92027   2.70722
H    -2.44960  -2.58125   2.10170
H    -1.47390  -3.89497   1.36480
H    -2.48396  -2.31655  -2.00543
H    -2.29649  -3.48192  -0.68957
H    -0.86305  -2.99532  -1.64590
H    -2.49233  -0.05845   1.51502
H    -3.10963   2.04522   2.67163
H    -2.33382   4.24252   1.77929
H    -0.95165   4.31022  -0.30163
H    -0.32494   2.20993  -1.44236
H     0.78151   0.75574   1.84026
H     2.23092   2.70474   2.26686
H     3.82035   3.49957   0.51312
H     3.94794   2.29904  -1.67183
H     2.49987   0.33188  -2.09596
