24
Generated by autodE on: 2022-07-26. E = -552.115831 Ha
C    -0.70167  -3.31458   1.40481
N    -0.42131  -1.95460   1.01193
N    -0.30492  -1.70943  -0.24379
C    -0.46298  -2.80713  -1.23039
C    -0.03797  -0.44239  -0.70560
C     0.08078  -0.28825  -2.10728
N     0.19106  -0.09050  -3.25470
C     0.13684   0.76228   0.11964
C     0.01947   0.80678   1.52919
C     0.19672   2.00531   2.22706
C     0.49619   3.19287   1.55951
C     0.61731   3.16845   0.16440
C     0.44159   1.98253  -0.54014
H    -0.76866  -3.32956   2.50014
H    -1.65729  -3.69531   1.00140
H     0.08944  -4.02485   1.10362
H    -1.46646  -3.23479  -1.11890
H    -0.33419  -2.43458  -2.24688
H     0.28891  -3.57725  -1.02243
H    -0.21105  -0.10498   2.06718
H     0.09690   2.00024   3.31555
H     0.63442   4.12464   2.11262
H     0.85199   4.08441  -0.38338
H     0.54339   2.00091  -1.62581
