24
Generated by autodE on: 2022-05-29. E = -552.115674 Ha
C     3.29977   0.61862  -0.79279
N     2.87505  -0.56586  -0.10175
N     1.62595  -0.66507   0.19053
C     1.25804  -2.01857   0.67187
C     0.65311   0.30607   0.13118
C     0.99993   1.64992   0.38099
N     1.21758   2.76898   0.64524
C    -0.77600  -0.02275  -0.01887
C    -1.20583  -1.04913  -0.88492
C    -2.56345  -1.33666  -1.02899
C    -3.52297  -0.59235  -0.33490
C    -3.11033   0.44617   0.50693
C    -1.75357   0.72716   0.66662
H     4.25813   0.39137  -1.27938
H     3.46528   1.48458  -0.12828
H     2.55974   0.93536  -1.55349
H     1.17438  -2.70423  -0.17968
H     0.31853  -1.98176   1.22943
H     2.07500  -2.34915   1.32234
H    -0.47410  -1.61439  -1.46414
H    -2.87421  -2.13861  -1.70289
H    -4.58564  -0.81466  -0.45549
H    -3.85055   1.03745   1.05123
H    -1.44240   1.53230   1.33569
