16
Generated by autodE on: 2022-05-29. E = -607.623909 Ha
F     3.05390   0.74470   0.50863
C     1.76072   0.82858   0.27532
F     1.36954   2.07955   0.14654
C     0.95697  -0.24215   0.18494
F     1.57751  -1.43265   0.34925
C    -0.48364  -0.30710  -0.07010
C    -1.28641   0.83930  -0.24331
C    -2.65362   0.70849  -0.48329
C    -3.24761  -0.55622  -0.55561
C    -2.45806  -1.69632  -0.38484
C    -1.08875  -1.57683  -0.14407
H    -0.84842   1.83468  -0.18994
H    -3.26092   1.60703  -0.61451
H    -4.31938  -0.65080  -0.74398
H    -2.90900  -2.68988  -0.43914
H    -0.48106  -2.47212  -0.01220
