40
Generated by autodE on: 2022-05-29. E = -1159.734448 Ha. Imaginary frequency = -416.0 cm-1
C    -1.74492  -3.15647   1.36726
N    -1.29440  -1.87516   0.85626
N    -1.73388  -1.51712  -0.33911
C    -2.16389  -2.52417  -1.32441
C    -1.37711  -0.25886  -0.73656
C    -1.25294  -0.06774  -2.14168
N    -1.08987   0.12012  -3.28036
C    -1.32608   0.94505   0.10803
C    -1.53043   0.94441   1.50455
C    -1.50212   2.13608   2.22862
C    -1.23266   3.35372   1.59713
C    -1.00341   3.36664   0.21859
C    -1.05474   2.18425  -0.51569
C     1.08648  -1.03484  -0.30909
F     1.15812  -1.67004  -1.51517
C     1.65664   0.29200  -0.24481
C     1.77438   1.02282   0.96037
C     2.30478   2.31154   0.95616
C     2.73240   2.90793  -0.23463
C     2.61837   2.19473  -1.43268
C     2.08512   0.90694  -1.44400
C     0.66693  -1.88757   0.72027
F     0.92600  -1.57415   1.99024
F     0.84430  -3.20418   0.52526
H    -1.49257  -4.01847   0.72903
H    -2.83644  -3.13841   1.52147
H    -1.26947  -3.29810   2.34668
H    -1.31287  -3.16060  -1.60739
H    -2.95845  -3.13970  -0.88689
H    -2.56614  -2.02095  -2.20790
H    -1.69021   0.00149   2.01889
H    -1.67264   2.10546   3.30741
H    -1.19075   4.27989   2.17454
H    -0.77991   4.30465  -0.29443
H    -0.87972   2.22604  -1.59066
H     1.44298   0.58863   1.90009
H     2.37804   2.85841   1.89909
H     3.14542   3.91899  -0.22986
H     2.94356   2.64740  -2.37264
H     1.98962   0.36693  -2.38593
