38
Generated by autodE on: 2022-06-01. E = -3566.630564 Ha
C     1.91074  -2.29244   1.68041
C     0.53199  -1.69747   1.58535
O    -0.33909  -1.98170   2.39262
C     0.23590  -0.74185   0.47656
C    -0.97532  -0.29278   0.09011
Br   -2.63872  -0.62964   0.88789
C    -0.88692   0.62071  -1.11512
C    -1.32751  -0.04932  -2.46472
C    -2.60563  -0.82189  -2.54067
O    -0.58155   0.08103  -3.41320
C    -1.72608   1.91995  -0.92393
C    -1.33393   2.81980   0.20934
O    -2.62417   2.17888  -1.69921
N     0.53193   0.94582  -1.13287
C     1.29665  -0.11550  -0.45109
C     1.72871  -1.15171  -1.42372
N     2.00950  -1.95122  -2.21633
C     2.48743   0.47760   0.30357
C     2.21546   1.37478   1.34625
C     3.26105   1.93629   2.07817
C     4.58797   1.61087   1.77077
C     4.86011   0.72434   0.72696
C     3.81162   0.15647  -0.00500
H     1.87502  -3.15494   2.35826
H     2.30212  -2.59735   0.69926
H     2.60513  -1.54343   2.09297
H    -3.43037  -0.29017  -2.04958
H    -2.84733  -1.02158  -3.59272
H    -2.46633  -1.78393  -2.01908
H    -1.01108   2.25585   1.09521
H    -0.47653   3.43185  -0.11305
H    -2.17267   3.48436   0.45420
H     0.85026   1.09480  -2.09112
H     1.18143   1.63070   1.58333
H     3.04095   2.63010   2.89259
H     5.40695   2.05009   2.34494
H     5.89229   0.46804   0.47806
H     4.03515  -0.54285  -0.81250
