53
Generated by autodE on: 2022-06-23. E = -1073.035464 Ha
C     3.67017   3.02013  -0.41408
N     3.09806   1.80297   0.12877
C     1.77064   1.61270   0.19277
O     0.98705   2.53281  -0.09387
C     1.25596   0.22132   0.68566
C     2.12787  -0.20578   1.88298
N    -0.13150   0.37835   1.06794
C    -0.48500   0.88005   2.37359
C    -1.10460  -0.28663   0.25114
C    -1.72973  -1.48319   1.04358
O    -1.07085  -2.06118   1.91968
N    -2.98143  -1.85019   0.74683
C    -3.62171  -2.96988   1.40359
C    -2.19262   0.70933  -0.24132
O    -3.27916   0.33562  -0.72523
N    -1.84701   1.99732  -0.17470
C    -2.64225   3.02201  -0.81724
C    -0.27174  -0.77621  -1.02480
C    -0.80538  -2.10393  -1.57528
C    -0.37292   0.23569  -2.18651
C     1.21766  -0.86319  -0.47747
C     1.53241  -2.26905   0.06793
C     2.26052  -0.60555  -1.57626
H     4.75944   2.99006  -0.28707
H     3.27512   3.90250   0.11037
H     3.44024   3.13158  -1.48731
H     3.71278   1.01364   0.28919
H     2.21600   0.61041   2.61347
H     1.68037  -1.06964   2.38772
H     3.14272  -0.48549   1.56860
H    -1.56524   1.07959   2.41115
H    -0.25397   0.18322   3.19944
H     0.02691   1.83597   2.57878
H    -3.46487  -1.28093   0.04734
H    -4.64634  -3.06884   1.02369
H    -3.66072  -2.82766   2.49573
H    -3.08080  -3.91085   1.20929
H    -0.85917   2.18955   0.04566
H    -3.69639   2.94267  -0.51476
H    -2.26235   4.00907  -0.52337
H    -2.59868   2.94108  -1.91789
H    -0.82502  -2.91147  -0.83388
H    -0.18399  -2.43542  -2.42099
H    -1.83053  -1.96423  -1.94873
H     0.02392   1.22418  -1.93303
H     0.18590  -0.14525  -3.05127
H    -1.41575   0.34970  -2.51173
H     2.55801  -2.31032   0.45854
H     0.84300  -2.58063   0.85891
H     1.47739  -3.00205  -0.74839
H     2.19950   0.39162  -2.02783
H     2.14264  -1.34766  -2.38049
H     3.27542  -0.72761  -1.16852
