18
Generated by autodE on: 2022-06-23. E = -235.968071 Ha
C    -1.67434   0.33577   0.98483
C    -0.66194   0.09248  -0.10862
C    -1.30646   0.08067  -1.47398
C     0.66194  -0.09237   0.10860
C     1.67434  -0.33576  -0.98481
C     1.30646  -0.08074   1.47398
H    -2.45967  -0.44103   0.96027
H    -2.19421   1.29654   0.81920
H    -1.25238   0.35376   1.99674
H    -1.82619   1.03755  -1.66101
H    -2.08552  -0.70124  -1.52375
H    -0.60858  -0.08870  -2.30263
H     2.19284  -1.29744  -0.82015
H     2.46074   0.43991  -0.95905
H     1.25273  -0.35192  -1.99689
H     1.82673  -1.03742   1.66056
H     0.60850   0.08780   2.30271
H     2.08510   0.70156   1.52404
