35
Generated by autodE on: 2022-07-27. E = -837.014403 Ha
C     1.84937   1.22089  -2.68780
N     1.73130   1.11417  -1.24413
C     1.84361  -0.06284  -0.62394
O     2.18588  -1.12942  -1.13828
C     1.65610  -0.09451   0.88007
C     2.87050  -0.05870   1.73338
N     0.46246  -0.28786   1.34536
C     0.22842  -0.58545   2.76695
C    -0.68149  -0.18746   0.47099
C    -1.26891  -1.46511   0.13292
O    -0.79838  -2.54064   0.58096
N    -2.35406  -1.46030  -0.68685
C    -2.93071  -2.68563  -1.18709
C    -1.12104   1.09601   0.03151
O    -2.05322   1.25852  -0.79869
N    -0.45494   2.22145   0.51128
C    -0.98089   3.54068   0.20606
H     2.02147   2.27029  -2.95788
H     0.93472   0.86857  -3.19300
H     2.69575   0.61610  -3.03931
H     1.22936   1.84856  -0.73617
H     2.70316   0.56067   2.62705
H     3.10625  -1.08183   2.07514
H     3.72824   0.32724   1.16914
H    -0.73103  -1.10514   2.84507
H     1.02818  -1.21795   3.17035
H     0.18078   0.35876   3.33095
H    -2.60999  -0.55127  -1.07222
H    -3.83289  -2.44623  -1.76565
H    -3.21813  -3.36109  -0.36537
H    -2.23957  -3.24507  -1.84383
H    -0.00778   2.13229   1.41908
H    -1.04833   3.68205  -0.88169
H    -1.98567   3.71322   0.63210
H    -0.29434   4.29607   0.61167
