53
Generated by autodE on: 2022-06-23. E = -1072.943553 Ha. Imaginary frequency = -312.2 cm-1
C     2.78047   3.18659  -1.20285
N     2.47281   2.22906  -0.16092
C     1.29219   1.56608  -0.16329
O     0.42729   1.86790  -0.99490
C     1.13384   0.49393   0.88739
C     2.28361   0.36499   1.85315
N    -0.10910   0.17281   1.38719
C    -0.20484  -0.12014   2.83424
C    -1.23577  -0.03700   0.57801
C    -2.11824  -1.16230   0.93651
O    -1.80483  -2.04788   1.76053
N    -3.30789  -1.23671   0.27961
C    -4.13361  -2.41938   0.36826
C    -1.88184   1.13606  -0.06209
O    -2.62820   1.04920  -1.06034
N    -1.76390   2.31374   0.60388
C    -2.13889   3.56404  -0.02316
C     0.13887  -1.37437  -1.20466
C    -0.60811  -2.66618  -1.00551
C    -0.21672  -0.69352  -2.49784
C     1.41648  -1.21463  -0.61816
C     1.87313  -2.27997   0.35678
C     2.54239  -0.66900  -1.47435
H     3.76729   3.62190  -1.00229
H     2.03488   3.99601  -1.23114
H     2.79767   2.71044  -2.19772
H     3.21497   1.95920   0.47024
H     2.36623   1.24406   2.51591
H     2.19059  -0.52417   2.48230
H     3.23008   0.26643   1.30618
H    -1.25787  -0.11007   3.12307
H     0.22618  -1.08915   3.11357
H     0.30864   0.67639   3.38915
H    -3.44794  -0.57297  -0.48038
H    -5.06132  -2.24833  -0.19363
H    -4.39674  -2.64390   1.41334
H    -3.63485  -3.31316  -0.04758
H    -1.04993   2.35448   1.32283
H    -3.17922   3.52134  -0.37486
H    -2.05141   4.37532   0.71127
H    -1.49401   3.79867  -0.88786
H    -0.59044  -3.04166   0.02090
H    -0.13053  -3.43557  -1.64427
H    -1.65426  -2.58277  -1.32799
H     0.19020   0.31814  -2.57870
H     0.17721  -1.29399  -3.34126
H    -1.30731  -0.63728  -2.62094
H     2.84771  -2.03148   0.79787
H     1.15233  -2.43412   1.17183
H     1.99431  -3.24902  -0.16146
H     2.24166   0.16419  -2.12014
H     2.90577  -1.47643  -2.13771
H     3.40097  -0.34552  -0.86772
