36
Generated by autodE on: 2022-06-17. E = -692.431748 Ha
C    -2.60909   1.44590   1.95828
C    -1.79321   1.51894   0.68795
O    -1.28801   2.57462   0.33389
C    -1.60549   0.31188  -0.08092
N    -2.13182  -0.83192   0.29418
N    -1.80430  -1.78400  -0.54050
C    -2.22655  -3.14963  -0.36741
C    -0.94309  -1.33724  -1.63840
C    -0.77417   0.19070  -1.36491
C    -1.37146   1.02677  -2.50607
C     0.66958   0.59213  -1.11554
C     1.45668   0.04763  -0.16725
C     2.83287   0.44059   0.07941
C     3.64083  -0.08698   1.02955
C     5.05355   0.39095   1.20372
C     3.18495  -1.18240   1.96655
H    -2.06201   0.86838   2.72115
H    -3.56930   0.93691   1.79287
H    -2.78240   2.46267   2.33511
H    -1.35379  -3.81907  -0.28087
H    -2.82796  -3.22057   0.54711
H    -2.83140  -3.48555  -1.22689
H     0.00982  -1.88873  -1.61924
H    -1.43182  -1.53883  -2.60523
H    -2.42552   0.75971  -2.67446
H    -1.31665   2.09794  -2.26759
H    -0.81508   0.84858  -3.44038
H     1.07231   1.39016  -1.74954
H     1.03746  -0.73992   0.46921
H     3.23372   1.23228  -0.56466
H     5.31696   1.18211   0.48610
H     5.21235   0.77898   2.22617
H     5.76751  -0.44377   1.08193
H     2.28478  -0.89075   2.53200
H     2.93207  -2.10621   1.41934
H     3.96970  -1.43377   2.69474
