13
Generated by autodE on: 2022-06-17. E = -340.827194 Ha
C     3.03712   0.26039  -0.20419
N     1.83502   0.88236  -0.76809
N     0.78637   0.28722  -0.54544
C    -0.26273  -0.28288  -0.45182
C    -1.43141  -0.40836   0.40731
C    -2.55736   0.53931   0.09733
O    -1.48119  -1.27226   1.27309
H     3.02873  -0.83291  -0.34112
H     3.91255   0.68675  -0.70739
H     3.11371   0.47875   0.87369
H    -2.19092   1.57796   0.07631
H    -2.96086   0.31298  -0.90326
H    -3.34894   0.42621   0.85040
