36
Generated by autodE on: 2022-06-17. E = -692.328272 Ha. Imaginary frequency = -360.3 cm-1
C    -3.05441   1.74945   1.75925
C    -1.89720   1.60816   0.79914
O    -1.12388   2.52895   0.55283
C    -1.80057   0.32573   0.12666
N    -1.98977  -0.85465   0.40681
N    -1.66455  -1.99884   0.05026
C    -2.66833  -3.05120   0.11996
C    -0.70797  -1.30746  -1.99848
C    -0.53360   0.05113  -1.81936
C    -1.36534   1.03479  -2.62274
C     0.70390   0.58387  -1.21209
C     1.57410  -0.09521  -0.42699
C     2.76905   0.50008   0.13710
C     3.68599  -0.09826   0.93831
C     4.87803   0.66243   1.44838
C     3.61360  -1.53122   1.38623
H    -2.95571   1.01433   2.57387
H    -4.00405   1.54156   1.24175
H    -3.06450   2.76878   2.16773
H    -2.25644  -3.94070  -0.37314
H    -2.89839  -3.31033   1.16705
H    -3.60438  -2.75647  -0.38432
H     0.08575  -2.01813  -1.77136
H    -1.54896  -1.68237  -2.58692
H    -2.35617   0.62016  -2.85805
H    -1.50386   1.98758  -2.09213
H    -0.86027   1.26395  -3.57831
H     0.90622   1.64329  -1.40589
H     1.36052  -1.14084  -0.18591
H     2.93587   1.55361  -0.11983
H     4.88760   1.70454   1.09606
H     4.89766   0.66843   2.55338
H     5.81949   0.17881   1.13029
H     2.73943  -2.07052   0.99896
H     4.52033  -2.07823   1.07186
H     3.59056  -1.58831   2.48918
