38
Generated by autodE on: 2022-10-06. E = -1067.721661 Ha
C     3.64367   0.35193   2.17322
N     2.58118   0.70211   1.25833
C     2.72591   0.64899  -0.07191
O     3.80792   0.43866  -0.64027
C     1.44856   0.86336  -0.88217
C     0.86122  -0.46408  -1.46035
C     1.82235  -1.67200  -1.46770
O     2.08866  -2.20071  -0.35353
O     2.26502  -2.04655  -2.58407
C    -0.40233  -0.68894  -0.62208
C    -1.46472  -1.56410  -1.31142
O    -1.90715  -1.15836  -2.42275
O    -1.82366  -2.61282  -0.71602
C    -0.87618   0.74871  -0.35975
C    -1.90441   0.83732   0.74496
C    -3.25774   0.62733   0.43621
C    -4.22859   0.62576   1.44082
C    -3.86019   0.84163   2.77318
C    -2.51475   1.05470   3.08969
C    -1.54416   1.04935   2.08303
N     0.37094   1.45516  -0.08742
C     0.29735   2.89989  -0.14218
H     4.57779   0.86158   1.89412
H     3.83560  -0.73517   2.16697
H     3.36610   0.65462   3.19104
H     1.62427   0.84882   1.57531
H     1.74582   1.51432  -1.72414
H     0.55326  -0.26945  -2.49587
H    -0.12441  -1.15261   0.33443
H    -1.34552   1.11909  -1.29455
H    -3.54550   0.46021  -0.60497
H    -5.27743   0.45929   1.18251
H    -4.61854   0.84688   3.55997
H    -2.21800   1.22717   4.12743
H    -0.49490   1.21597   2.33349
H     1.26013   3.34078   0.15899
H     0.04897   3.27684  -1.15766
H    -0.47155   3.26866   0.55366
