28
Generated by autodE on: 2022-10-06. E = -612.593135 Ha
C     5.01887   1.01495  -0.43589
N     4.07941  -0.08372  -0.45343
C     2.72533   0.14259  -0.35068
O     2.28642   1.31877  -0.43175
C     1.92981  -1.03373  -0.16758
N     0.56524  -1.05132  -0.01500
C     0.02134  -2.37916   0.33585
C    -0.24394  -0.00513  -0.17926
C    -1.66241   0.10798   0.09499
C    -2.41636  -0.66064   1.01635
C    -3.77718  -0.41706   1.20507
C    -4.43112   0.59713   0.49818
C    -3.69750   1.38690  -0.39598
C    -2.33931   1.15225  -0.58748
H     6.02656   0.62886  -0.63944
H     5.04232   1.54855   0.53286
H     4.76867   1.75374  -1.21171
H     4.42500  -1.00046  -0.19130
H     2.41274  -2.00461  -0.09718
H     0.68663  -3.14471  -0.07663
H    -0.02347  -2.49425   1.42671
H    -0.97682  -2.50073  -0.09526
H     0.25834   0.87764  -0.56822
H    -1.94009  -1.42993   1.62033
H    -4.33092  -1.02356   1.92609
H    -5.49709   0.77942   0.65181
H    -4.18907   2.19283  -0.94644
H    -1.77433   1.77588  -1.28468
