38
Generated by autodE on: 2022-10-06. E = -1067.649640 Ha. Imaginary frequency = -295.7 cm-1
C     5.01508   0.56020  -1.20842
N     3.60198   0.72502  -1.48347
C     2.74162   1.08693  -0.48423
O     3.17171   1.56074   0.58400
C     1.34502   0.79008  -0.78398
C     1.06933  -1.41987  -0.27547
C     1.88230  -1.42134   0.99210
O     3.11707  -1.67945   0.88646
O     1.29258  -1.15970   2.08346
C    -0.31824  -1.49605  -0.25896
C    -1.12711  -1.88473  -1.45865
O    -0.57731  -1.80470  -2.60063
O    -2.33267  -2.21895  -1.26056
C    -0.93303   0.71794  -0.46943
C    -2.20895   0.83401   0.22826
C    -3.37965   0.94204  -0.55310
C    -4.64263   0.96340   0.03876
C    -4.77052   0.86362   1.42805
C    -3.62130   0.72167   2.21504
C    -2.35711   0.69687   1.62717
N     0.25943   1.25011  -0.08746
C     0.41916   1.96274   1.18619
H     5.42582   1.46913  -0.74726
H     5.20218  -0.28517  -0.52306
H     5.54739   0.37560  -2.15060
H     3.21467   0.18285  -2.24900
H     1.11927   0.49756  -1.80850
H     1.60262  -1.71057  -1.18329
H    -0.81967  -1.56314   0.70827
H    -0.99769   0.53952  -1.54264
H    -3.28566   1.01115  -1.63932
H    -5.53268   1.05596  -0.58849
H    -5.75863   0.87980   1.89379
H    -3.71170   0.61110   3.29850
H    -1.48147   0.52277   2.25186
H    -0.52405   2.45929   1.43308
H     0.70521   1.27208   1.98838
H     1.20346   2.71502   1.07255
