45
Generated by autodE on: 2022-06-02. E = -1697.865509 Ha
C    -1.47077   3.54928  -1.26141
O    -1.26735   2.45058  -0.35387
C    -1.03239   1.26593  -0.88873
O    -1.04287   1.02000  -2.07605
C    -0.84270   0.17828   0.19239
C    -2.19198  -0.52745   0.38957
C    -3.09279  -0.71233  -0.67140
C    -4.31259  -1.35981  -0.46103
C    -4.65588  -1.82442   0.81055
C    -3.76833  -1.63498   1.87296
C    -2.54622  -0.99290   1.66592
N    -0.37455   0.69590   1.47568
N     1.02014   1.00650   1.27126
C     1.47718   2.20780   1.57063
N     1.89919   3.24608   1.90736
C     1.62968   0.12801   0.26875
C     2.22266   1.05897  -0.88258
C     3.63749   0.88280  -1.33559
O     1.54796   2.01027  -1.21409
C     2.74216  -0.78103   0.85850
C     3.14232  -0.55575   2.28136
O     3.25035  -1.61402   0.13828
C     0.39272  -0.72293  -0.20724
Cl    0.29474  -2.26060   0.77531
C     0.50591  -1.17967  -1.67833
C    -0.44822  -2.21018  -2.20268
O     1.41433  -0.74336  -2.35477
H    -2.34544   3.35612  -1.89763
H    -1.63838   4.42981  -0.63212
H    -0.57561   3.68356  -1.88362
H    -2.84927  -0.35764  -1.67137
H    -4.99750  -1.49666  -1.30072
H    -5.61143  -2.32814   0.97365
H    -4.02502  -1.98969   2.87377
H    -1.85855  -0.85290   2.49710
H    -0.86582   1.56159   1.71166
H     4.29851   1.13820  -0.48889
H     3.85779  -0.14739  -1.63031
H     3.82780   1.57924  -2.16169
H     3.49188   0.48090   2.41715
H     3.93918  -1.25985   2.55080
H     2.27222  -0.68874   2.94234
H     0.08514  -3.17456  -2.23291
H    -1.34588  -2.33234  -1.58917
H    -0.71564  -1.94028  -3.23340
