24
Generated by autodE on: 2022-06-02. E = -701.448722 Ha
C     2.93506  -2.36822   1.26966
O     1.83701  -1.59882   0.75054
C     1.67126  -0.38180   1.24786
O     2.37149   0.11558   2.11383
C     0.50945   0.32997   0.64673
N     0.32115   1.51312   1.19737
N    -0.49679   2.52133   0.97013
C    -1.26969   2.52665  -0.09662
N    -2.00376   2.72720  -0.99159
C    -0.36131  -0.25987  -0.37913
C    -1.73832  -0.40464  -0.13038
C    -2.56447  -0.98594  -1.09248
C    -2.02768  -1.42113  -2.30746
C    -0.65715  -1.28459  -2.55700
C     0.17663  -0.71438  -1.59635
H     3.88451  -1.84465   1.08923
H     2.80384  -2.53542   2.34815
H     2.91368  -3.32061   0.72886
H     0.97223   1.70316   1.97370
H    -2.15585  -0.06857   0.82056
H    -3.63212  -1.09785  -0.89177
H    -2.67741  -1.87128  -3.06153
H    -0.23639  -1.62463  -3.50576
H     1.24576  -0.60761  -1.78649
