11
Generated by autodE on: 2022-05-30. E = -384.740219 Ha
C    -2.26484  -0.15745   0.76154
N    -1.61085   0.91588   0.03938
C    -0.33065   0.97222  -0.37643
O     0.13597   1.93811  -0.99217
C     0.50939  -0.18011  -0.06484
C     1.28020  -1.08543   0.14536
F     2.08526  -2.04387   0.37089
H    -2.65822   0.20302   1.72465
H    -1.54942  -0.96437   0.95996
H    -3.10208  -0.57037   0.17740
H    -2.16506   1.73583  -0.19933
