39
Generated by autodE on: 2022-05-30. E = -1109.504740 Ha. Imaginary frequency = -327.2 cm-1
C     1.32943  -3.17177  -1.42634
N     0.10678  -2.43081  -1.17793
C    -0.23132  -1.40172  -1.98956
O     0.37731  -1.16447  -3.04700
C    -1.35729  -0.58421  -1.59733
C    -2.12052   0.34286  -1.32035
F    -3.26797   0.95288  -1.42018
C    -1.24895   1.79206   0.09829
C    -1.86871   3.10037   0.36764
C    -2.99154   3.05865   1.36212
O    -1.50720   4.08903  -0.25027
N    -0.32080   1.18871   0.60097
C     0.40111   0.16576   0.92187
C    -0.25437  -0.82304   1.85286
O    -0.02998  -2.03653   1.74005
N    -1.12531  -0.32350   2.74078
C    -1.89908  -1.19225   3.60891
C     1.74249  -0.03732   0.36813
C     2.12315   0.63560  -0.81005
C     3.38526   0.43052  -1.36113
C     4.28927  -0.44279  -0.74439
C     3.92209  -1.10718   0.43006
C     2.65835  -0.91055   0.98558
H     1.51292  -3.83702  -0.57362
H     1.24631  -3.78383  -2.33803
H     2.19675  -2.50326  -1.54577
H    -0.22079  -2.40609  -0.21113
H    -3.80398   2.42879   0.96428
H    -3.36111   4.07671   1.54399
H    -2.64765   2.59451   2.30134
H    -1.24091   0.68214   2.82353
H    -1.24857  -1.73340   4.31414
H    -2.45626  -1.93531   3.01885
H    -2.60865  -0.57988   4.17740
H     1.41610   1.30579  -1.30236
H     3.66363   0.94889  -2.28123
H     5.27796  -0.60454  -1.17966
H     4.62446  -1.78704   0.91722
H     2.37830  -1.43941   1.89581
