51
Generated by autodE on: 2022-06-07. E = -3778.349854 Ha
C   -12.63281   3.28724  -1.86470
N   -11.29863   3.03965  -1.35278
C   -10.97625   1.87986  -0.77864
O   -11.77288   0.96942  -0.53668
C    -9.53912   1.75584  -0.28928
O    -8.67146   2.75222  -0.93580
C    -7.61542   2.88503  -0.11177
O    -6.65976   3.57785  -0.31390
C    -7.93344   1.94869   1.08571
C    -7.28458   2.39364   2.30793
N    -6.82637   2.85191   3.26877
C    -7.74270   0.49456   0.47384
C    -8.76370   0.40475  -0.41442
C    -9.20822  -0.60190  -1.44541
Br   -9.58401   0.46586  -3.15031
C   -10.46946  -1.36591  -0.95752
C   -11.52589  -1.78459  -1.93240
O   -10.46430  -1.72201   0.20555
C    -8.22308  -1.68297  -1.92197
C    -6.78581  -1.19524  -2.14646
C    -5.83559  -1.78422  -1.10367
C    -6.35887  -1.72441   0.32909
C    -6.57911  -0.34490   0.98640
C    -6.88395  -0.66433   2.47377
C    -5.27632   0.47609   0.86113
N    -9.39485   2.14844   1.10848
C   -10.11472   1.35320   2.10261
H   -12.82614   2.69703  -2.77589
H   -12.73085   4.35278  -2.10387
H   -13.38678   3.01558  -1.11276
H   -10.55369   3.69858  -1.55696
H   -11.07255  -2.26853  -2.81103
H   -12.07626  -0.90295  -2.28825
H   -12.21525  -2.47834  -1.43429
H    -8.24151  -2.49187  -1.17927
H    -8.64599  -2.12135  -2.83441
H    -6.44834  -1.47978  -3.15416
H    -6.75200  -0.09539  -2.11638
H    -5.66559  -2.84833  -1.34192
H    -4.85145  -1.29537  -1.17516
H    -7.28880  -2.30339   0.42697
H    -5.62890  -2.24047   0.97194
H    -7.10485   0.21916   3.08315
H    -7.74551  -1.34524   2.54205
H    -6.01137  -1.16382   2.92107
H    -4.42613  -0.14519   1.18105
H    -5.27457   1.37630   1.48931
H    -5.10233   0.79158  -0.17761
H    -9.91937   0.27164   2.02118
H    -9.81414   1.69905   3.10066
H   -11.19096   1.52937   1.98962
