31
Generated by autodE on: 2022-06-07. E = -3117.123759 Ha
C     2.20038   1.67201   0.92618
C     1.62878   1.26250  -0.39990
O     1.86352   1.85736  -1.43253
C     0.66934   0.04840  -0.41644
Br    1.99224  -1.51222  -0.43442
C    -0.19154  -0.01642   0.73803
C    -1.24474   0.14339   1.32294
C    -2.66098   0.41606   1.57852
C    -2.86907   1.32809   2.79724
C    -3.42792  -0.90527   1.77466
C    -3.13412   1.14857   0.27917
C    -2.72663   0.53430  -1.07763
C    -1.37476   0.96599  -1.71429
C    -0.19412  -0.03277  -1.68394
H     3.09849   2.28411   0.77208
H     1.44131   2.28083   1.44601
H     2.42130   0.80714   1.56603
H    -2.55354   0.82399   3.72360
H    -2.29484   2.26151   2.69621
H    -3.93539   1.58619   2.89189
H    -4.49709  -0.69054   1.92741
H    -3.05401  -1.44655   2.65695
H    -3.32670  -1.56443   0.90006
H    -4.23420   1.19904   0.33778
H    -2.77049   2.18858   0.32269
H    -2.77626  -0.56632  -1.02507
H    -3.51586   0.82334  -1.78905
H    -1.05458   1.93634  -1.29937
H    -1.56469   1.15634  -2.78192
H     0.46759   0.14964  -2.54200
H    -0.57948  -1.05855  -1.77400
