20
Generated by autodE on: 2022-07-27. E = -661.188468 Ha
C    -2.71201  -0.18400  -3.28225
N    -1.63419   0.07257  -2.34818
C    -1.58660  -0.46515  -1.11916
O    -2.43019  -1.22529  -0.63826
C    -0.37954  -0.05428  -0.34262
O     0.49041   0.81405  -0.85414
C     1.56115   1.03315   0.08250
O     2.46562   1.79212  -0.18484
C     1.20335   0.20075   1.17246
C     1.89405   0.01476   2.37546
N     2.48363  -0.12790   3.37342
N     0.00386  -0.44355   0.85588
C    -0.64816  -1.39042   1.76282
H    -3.43642  -0.86037  -2.81502
H    -3.21978   0.75390  -3.55467
H    -2.32469  -0.65108  -4.20063
H    -0.87626   0.68436  -2.63843
H     0.06255  -2.19511   1.99160
H    -1.54068  -1.78632   1.27620
H    -0.91224  -0.86062   2.68772
