20
Generated by autodE on: 2022-06-07. E = -661.182755 Ha
C     3.25637   0.09587  -1.04493
N     2.64083  -1.21585  -0.88755
C     1.37873  -1.52912  -0.55773
O     0.93040  -2.67994  -0.56447
C     0.47783  -0.41560  -0.13504
O     0.92200   0.69201   0.44985
C    -0.19472   1.50828   0.84601
O    -0.01360   2.56935   1.40113
C    -1.31224   0.74714   0.42147
C    -2.66591   1.08184   0.53963
N    -3.78960   1.38071   0.64931
N    -0.83978  -0.42605  -0.17440
C    -1.71641  -1.46528  -0.71870
H     3.56270   0.52770  -0.08089
H     4.14825  -0.02715  -1.67145
H     2.57659   0.79589  -1.54781
H     3.21396  -2.02939  -1.10247
H    -2.62563  -0.97980  -1.09150
H    -1.20584  -1.98525  -1.53255
H    -1.97330  -2.17713   0.07669
