44
Generated by autodE on: 2022-10-21. E = -1510.414679 Ha
C     0.28830  -3.07124  -0.98170
O     0.71235  -1.71683  -1.03387
C     0.42688  -0.88657   0.04821
C     1.09273  -1.35123   1.38753
C     2.54212  -1.78734   1.08461
C     3.26527  -0.44253   0.80196
C     2.15348   0.60700   0.99377
C     1.33560  -0.02571   2.13382
C     1.13843   0.52495  -0.16919
Cl    1.95254   0.69349  -1.76466
C    -0.02272   1.59425  -0.06209
C    -0.33266   2.26396  -1.36378
N    -0.67915   2.88750  -2.27764
C     0.32937   2.71808   0.84717
N     0.56261   3.60320   1.55734
N    -1.15441   0.88230   0.49862
C    -2.42750   1.59449   0.47164
C    -1.12712  -0.54526   0.18998
C    -1.86973  -0.74420  -1.17735
C    -3.20898  -1.41775  -1.22714
O    -1.38038  -0.21738  -2.15662
C    -1.75046  -1.40501   1.31633
C    -2.15749  -0.79180   2.62525
O    -1.89341  -2.59681   1.11102
H     0.82870  -3.59097  -1.78486
H     0.52514  -3.55071  -0.01971
H    -0.79330  -3.16702  -1.16147
H     0.51795  -2.10992   1.92714
H     2.61137  -2.48909   0.24602
H     2.95528  -2.28536   1.97292
H     3.71552  -0.39613  -0.19664
H     4.06003  -0.24872   1.53577
H     2.53032   1.62410   1.14831
H     1.93932  -0.16797   3.04102
H     0.42755   0.52398   2.40332
H    -2.79576   1.77872  -0.55369
H    -2.31321   2.56358   0.97876
H    -3.18667   1.02119   1.01426
H    -3.64528  -1.27246  -2.22343
H    -3.86961  -0.98864  -0.45671
H    -3.11758  -2.48963  -1.00456
H    -3.22846  -0.53396   2.55819
H    -1.60568   0.12175   2.86939
H    -2.04685  -1.54545   3.41652
