23
Generated by autodE on: 2022-10-26. E = -663.302080 Ha
C    -1.49263  -2.08916  -1.74433
C    -0.75912  -0.85722  -1.28430
O    -0.34472  -0.04808  -2.11349
C    -0.59472  -0.60403   0.16868
C    -1.14728  -1.51831   1.20132
C    -0.42866  -1.63265   2.52992
O    -2.10626  -2.24418   0.96758
N    -0.02710   0.56790   0.56588
C    -0.55220   1.28419   1.75013
C     0.96355   1.19084  -0.11409
C     1.85197   0.48950  -0.96665
N     2.64512  -0.05622  -1.62174
C     1.25362   2.55957   0.12058
N     1.52708   3.68043   0.28422
H    -2.55683  -2.03165  -1.47677
H    -1.38547  -2.15447  -2.83461
H    -1.08895  -2.99328  -1.26654
H     0.52695  -1.09743   2.57660
H    -1.08732  -1.27796   3.33787
H    -0.25011  -2.70464   2.70469
H     0.22850   1.36171   2.51642
H    -0.85766   2.28955   1.42909
H    -1.43574   0.76744   2.12968
