21
Generated by autodE on: 2022-10-21. E = -847.063631 Ha
C     2.44597  -0.81267  -1.20499
O     1.28083  -1.48687  -0.73007
C     0.35432  -0.79782  -0.03926
C     0.21316   0.48587   0.36486
Cl    1.20087   1.89462   0.06017
C    -1.19178   0.63471   0.93323
C    -2.17403   0.53827  -0.27591
C    -2.00277  -0.94130  -0.73171
C    -0.95467  -1.50010   0.28526
C    -1.37278  -0.75802   1.56834
H     3.05667  -1.57382  -1.70793
H     2.18143  -0.02157  -1.92251
H     3.01818  -0.37568  -0.37254
H    -1.33304   1.51070   1.57870
H    -1.91416   1.26394  -1.05998
H    -3.20632   0.74311   0.04649
H    -2.94596  -1.50128  -0.64573
H    -1.64749  -1.03724  -1.76779
H    -0.87800  -2.59446   0.31926
H    -2.41113  -0.96763   1.86848
H    -0.69236  -0.93707   2.41323
