44
Generated by autodE on: 2022-06-01. E = -1265.751760 Ha
C    -3.54046  -0.61822   3.16766
N    -2.75480  -0.40898   1.96688
C    -1.48316  -0.79918   1.88516
O    -0.87128  -1.37031   2.79099
C    -0.74511  -0.46596   0.55928
C    -1.66557  -0.71398  -0.65242
O    -2.72435  -0.08197  -0.78583
N    -1.26474  -1.65607  -1.50706
C    -2.00844  -1.94917  -2.71623
N     0.44728  -1.30746   0.49229
N     1.43882  -0.52283  -0.13371
C     2.17704  -1.03070  -1.17851
O     3.07642  -0.42914  -1.73610
O     1.79518  -2.27373  -1.49980
C     2.49991  -2.88747  -2.58849
C     1.33392   0.86366   0.23141
F     2.14813   1.10867   1.32689
C     1.49990   1.91483  -0.87400
C     1.39228   3.30785  -0.21559
C    -0.12036   3.43682   0.12547
C    -0.70561   2.08084  -0.32317
C     0.13798   1.79112  -1.58440
C    -0.18510   1.00642   0.63991
F    -0.26543   1.42156   1.96225
H    -4.52885  -0.16476   3.02686
H    -3.66816  -1.69133   3.38241
H    -3.05488  -0.15220   4.03877
H    -3.17557  -0.01399   1.12514
H    -0.37089  -2.11169  -1.32895
H    -3.03601  -2.26558  -2.48010
H    -1.50084  -2.75716  -3.25635
H    -2.06612  -1.06335  -3.36899
H     0.73233  -1.51384   1.45468
H     2.35081  -2.31544  -3.51536
H     3.57363  -2.95368  -2.36347
H     2.07156  -3.89118  -2.69035
H     2.39416   1.76656  -1.48246
H     2.03930   3.39414   0.66643
H     1.70907   4.07184  -0.93867
H    -0.30648   3.63680   1.18771
H    -0.59553   4.23900  -0.45595
H    -1.79193   2.06501  -0.44121
H    -0.03401   0.80980  -2.04742
H    -0.00031   2.56264  -2.35420
