27
Generated by autodE on: 2022-06-01. E = -794.271011 Ha
C    -3.42124   2.53614   1.64246
N    -2.73356   1.39071   1.08374
C    -1.42759   1.42156   0.81645
O    -0.69638   2.40589   1.01510
C    -0.82287   0.17170   0.23916
N     0.46239   0.32110   0.01958
N     1.32269  -0.53346  -0.46969
C     2.58549   0.03019  -0.54176
O     2.88271   1.16759  -0.20069
O     3.44624  -0.85639  -1.04475
C     4.80324  -0.41691  -1.18634
C    -1.58214  -1.07976  -0.04974
O    -2.80520  -1.14686   0.17786
N    -0.88578  -2.10459  -0.55759
C    -1.53039  -3.36237  -0.87540
H    -4.47850   2.28127   1.78148
H    -2.99201   2.82159   2.61605
H    -3.34968   3.40863   0.97363
H    -3.21614   0.51267   0.86876
H     0.81347   1.27068   0.28389
H     5.35194  -1.26600  -1.61007
H     5.22504  -0.14344  -0.20807
H     4.86054   0.44746  -1.86405
H     0.11603  -1.96454  -0.71807
H    -2.32417  -3.22358  -1.62646
H    -0.77830  -4.05292  -1.27477
H    -1.98950  -3.81071   0.01986
