17
Generated by autodE on: 2022-06-01. E = -471.410361 Ha
F     2.08383  -0.22410  -0.84388
C     0.96263  -0.11177  -0.12008
C     0.17334   0.96078   0.01488
F     0.32278   2.16930  -0.54257
C    -1.09454   0.51555   0.70746
C    -1.87342  -0.36489  -0.32660
C    -0.95455  -1.61358  -0.48404
C     0.23789  -1.29532   0.47940
C    -0.51143  -0.58103   1.62589
H    -1.67731   1.31948   1.17440
H    -2.03572   0.17241  -1.27171
H    -2.85806  -0.64008   0.07941
H    -1.46622  -2.53164  -0.15938
H    -0.60847  -1.76631  -1.51612
H     0.87532  -2.15037   0.73737
H    -1.28808  -1.21038   2.08601
H     0.16107  -0.18360   2.39906
