44
Generated by autodE on: 2022-06-01. E = -1265.662129 Ha. Imaginary frequency = -325.0 cm-1
C    -2.86779  -1.30658   3.53758
N    -2.46766  -1.05425   2.16915
C    -1.24143  -1.34847   1.73400
O    -0.36927  -1.88985   2.43031
C    -0.90544  -0.95466   0.31631
C    -1.97947  -0.66313  -0.68731
O    -3.07663  -0.20241  -0.32691
N    -1.71745  -0.96866  -1.96860
C    -2.65658  -0.63118  -3.02123
N     0.30499  -1.41709  -0.03869
N     0.94719  -0.82988  -1.04539
C     2.27045  -1.20413  -1.21368
O     3.00196  -0.62549  -1.99822
O     2.66077  -2.22493  -0.43697
C     4.03652  -2.61978  -0.53413
C     1.05151   1.19102  -0.07570
F     2.19024   0.93107   0.58933
C     1.00842   2.22009  -1.16374
C     1.07452   3.59049  -0.40778
C    -0.29118   3.65586   0.33943
C    -0.98232   2.31293  -0.05947
C    -0.48968   2.16319  -1.51662
C    -0.16569   1.22967   0.61372
F    -0.15194   1.15969   1.97285
H    -2.25149  -0.72820   4.24507
H    -3.91726  -1.01337   3.66007
H    -2.76367  -2.37285   3.79218
H    -3.09115  -0.60384   1.49458
H    -0.74154  -1.13210  -2.21322
H    -3.64322  -1.06918  -2.81416
H    -2.77959   0.46116  -3.11633
H    -2.28086  -1.03065  -3.97086
H     0.84289  -1.80406   0.75252
H     4.27248  -2.93571  -1.56032
H     4.69416  -1.78763  -0.24440
H     4.15849  -3.45984   0.15924
H     1.73710   2.08660  -1.97181
H     1.93849   3.63773   0.26991
H     1.17543   4.40307  -1.14139
H    -0.17888   3.74097   1.42918
H    -0.90068   4.50309  -0.00614
H    -2.06353   2.26418   0.11331
H    -0.79801   3.01304  -2.14076
H    -0.78134   1.22883  -2.00195
