43
Generated by autodE on: 2022-06-20. E = -1053.681655 Ha
C     4.70041  -1.26626   0.04308
C     3.62957  -0.69933   0.63408
C     3.53535  -0.53727   2.12822
C     2.50869  -0.23343  -0.18968
C     1.39481   0.34971   0.28525
C     0.24082   0.74473  -0.59046
C    -1.01659  -0.18434  -0.39606
C    -1.70585  -0.55703  -1.72118
O    -2.90516  -0.51804  -1.87955
O    -0.83539  -0.93714  -2.64584
C    -1.37308  -1.36649  -3.90846
C    -0.60643  -1.49111   0.30662
O    -0.23443  -2.48202  -0.28292
O    -0.66642  -1.37394   1.62385
C    -0.15813  -2.47481   2.39745
O    -1.95179   0.53459   0.39101
C    -1.44167   1.81025   0.75419
C    -0.94758   1.77852   2.14715
N    -0.58419   1.75505   3.24844
C    -0.35955   2.15546  -0.30161
C     0.67220   3.17616   0.17457
C    -1.07318   2.68839  -1.55318
H     5.54964  -1.63007   0.62828
H     4.75153  -1.38105  -1.04397
H     3.41775   0.52326   2.40635
H     4.43123  -0.92975   2.62935
H     2.65261  -1.06567   2.52582
H     2.60245  -0.39494  -1.26989
H     1.28336   0.50274   1.36038
H     0.56317   0.68299  -1.63530
H    -0.50957  -1.64302  -4.52338
H    -2.03438  -2.23231  -3.76343
H    -1.93355  -0.54732  -4.38037
H    -0.76452  -3.37430   2.22182
H    -0.23059  -2.16097   3.44444
H     0.88804  -2.67356   2.12593
H    -2.27162   2.53311   0.72951
H     0.18024   4.13430   0.40248
H     1.21357   2.84639   1.07133
H     1.41177   3.35270  -0.62058
H    -1.49823   3.68340  -1.35199
H    -0.35783   2.77839  -2.38359
H    -1.89700   2.03583  -1.87558
