23
Generated by autodE on: 2022-06-20. E = -351.521382 Ha
C     2.43249  -0.50046  -2.85129
C     2.02177  -0.36445  -1.57117
C     3.00003  -0.41287  -0.42535
C     0.60394  -0.16599  -1.27701
C     0.06582  -0.01314  -0.04089
C    -1.35038   0.18209   0.19384
C    -1.96539   0.34561   1.39244
C    -3.45337   0.53848   1.47302
C    -1.25625   0.35102   2.71689
H     1.71980  -0.46500  -3.68110
H     3.48689  -0.64980  -3.09994
H     2.97230   0.52063   0.16096
H     4.02749  -0.56425  -0.78517
H     2.75367  -1.22995   0.27304
H    -0.06573  -0.14069  -2.14513
H     0.72693  -0.03684   0.82968
H    -1.98094   0.19776  -0.70341
H    -3.69784   1.49617   1.96690
H    -3.91735  -0.25028   2.09228
H    -3.92883   0.52695   0.48125
H    -0.17014   0.21450   2.63729
H    -1.44543   1.30094   3.24743
H    -1.65633  -0.44681   3.36740
