20
Generated by autodE on: 2022-07-27. E = -702.054600 Ha
C    -1.07123   0.74781  -3.73613
O    -0.88616   0.87029  -2.32021
C    -0.23856  -0.13863  -1.71648
O     0.19161  -1.11008  -2.31313
C    -0.10477   0.07903  -0.26989
O    -0.69423   1.18457   0.15786
C    -0.81680   1.88362   1.22746
C    -0.13895   1.71984   2.45622
N     0.38276   1.80498   3.49680
C     0.41754  -0.87597   0.70139
O     0.18814  -0.77135   1.89884
O     1.12233  -1.87281   0.16887
C     1.58572  -2.88248   1.07878
H    -1.60941   1.65053  -4.04782
H    -1.66380  -0.14780  -3.97402
H    -0.10065   0.68839  -4.25005
H    -1.44859   2.76658   1.10203
H     2.12626  -3.61141   0.46448
H     0.73649  -3.36487   1.58383
H     2.25761  -2.44331   1.83027
