43
Generated by autodE on: 2022-06-20. E = -1053.593721 Ha. Imaginary frequency = -227.8 cm-1
C     3.55249  -2.52401   1.60268
C     3.11217  -1.24862   1.69583
C     3.31319  -0.42486   2.94055
C     2.39038  -0.66352   0.57581
C     1.88094   0.59935   0.55136
C     1.11515   1.10833  -0.54855
C    -1.37733  -0.37983  -0.59163
C    -1.59433  -0.78053  -1.97668
O    -1.16299  -1.80225  -2.49132
O    -2.30853   0.13000  -2.67088
C    -2.51111  -0.15229  -4.05889
C    -0.91152  -1.24134   0.47337
O    -1.05547  -0.97510   1.66216
O    -0.31229  -2.36481   0.05368
C     0.04498  -3.31319   1.06757
O    -1.87414   0.83998  -0.29900
C    -1.47174   1.77670   0.51313
C    -0.91690   1.62645   1.81551
N    -0.43277   1.73750   2.87022
C     0.57334   2.38557  -0.63506
C     0.98366   3.51194   0.27706
C    -0.08803   2.80403  -1.92115
H     4.08312  -3.00689   2.42773
H     3.38639  -3.11214   0.69547
H     3.89433   0.48680   2.72475
H     2.34413  -0.09285   3.34889
H     3.84168  -0.99720   3.71546
H     2.23238  -1.30981  -0.29355
H     2.03131   1.24848   1.41483
H     0.98361   0.44219  -1.40482
H    -3.06244  -1.09499  -4.19036
H    -1.54849  -0.21926  -4.58706
H    -3.09883   0.68494  -4.45379
H     0.54854  -4.13399   0.54387
H    -0.85620  -3.68643   1.57650
H     0.72405  -2.86579   1.80499
H    -1.96220   2.73538   0.32436
H     1.82861   4.04979  -0.18868
H     1.30864   3.18009   1.27049
H     0.16795   4.24016   0.39862
H    -0.89130   3.53537  -1.74560
H     0.65894   3.29918  -2.56769
H    -0.50027   1.94700  -2.46970
