60
Generated by autodE on: 2022-06-25. E = -1273.194422 Ha
C    -3.36883   1.07832   0.27236
C    -2.84943   0.53960  -0.83953
C    -3.66842   0.39661  -2.09376
C    -1.42532   0.01856  -0.91755
C    -0.42717   0.59769   0.10408
C    -0.05880   2.00802  -0.24311
C    -0.24366   3.11781   0.49555
C     0.14022   4.46784  -0.05004
C    -0.82282   3.15266   1.88391
C     0.72046  -0.46785   0.11105
C     1.80602  -0.20346  -0.93925
C     2.74209   0.82506  -0.73785
C     3.72250   1.09686  -1.69280
C     3.79385   0.33770  -2.86642
C     2.87820  -0.69632  -3.06811
C     1.89318  -0.96491  -2.11041
C     1.37405  -0.65286   1.47971
C     1.87588  -1.91477   1.83437
C     2.50007  -2.11246   3.06776
C     2.64143  -1.04837   3.96494
C     2.15562   0.21327   3.61408
C     1.52634   0.40969   2.38019
O     0.04138  -1.70346  -0.19376
C    -1.25588  -1.51587  -0.74538
C    -1.28183  -2.29609  -2.08937
C    -0.97729  -3.76439  -2.00417
O    -1.51230  -1.73531  -3.14149
C    -2.33612  -2.10895   0.17643
C    -2.03031  -2.23913   1.63529
O    -3.39592  -2.45772  -0.31702
H    -4.40422   1.43138   0.28415
H    -2.80596   1.18639   1.19997
H    -4.66250   0.85161  -1.97615
H    -3.80069  -0.66523  -2.35434
H    -3.16052   0.87010  -2.95040
H    -1.04553   0.23848  -1.92746
H    -0.87616   0.55692   1.10180
H     0.36030   2.13512  -1.24631
H    -0.73226   5.14463  -0.06940
H     0.89186   4.95140   0.59862
H     0.55130   4.40094  -1.06808
H    -0.12717   3.66122   2.57355
H    -1.75501   3.74385   1.89149
H    -1.04482   2.16086   2.29640
H     2.70750   1.42021   0.17473
H     4.43782   1.90393  -1.51703
H     4.56318   0.54786  -3.61317
H     2.92668  -1.30513  -3.97417
H     1.20077  -1.78660  -2.27868
H     1.77320  -2.74887   1.13956
H     2.87870  -3.10367   3.32913
H     3.12931  -1.20271   4.93027
H     2.26176   1.05445   4.30327
H     1.16096   1.40182   2.12298
H    -0.66102  -4.14043  -2.98583
H    -0.21627  -3.97095  -1.23961
H    -1.90040  -4.28810  -1.70460
H    -1.66411  -1.28663   2.04680
H    -2.92728  -2.57100   2.17331
H    -1.21672  -2.96962   1.76959
