37
Generated by autodE on: 2022-06-25. E = -921.615015 Ha
C    -1.52819  -1.17922  -1.89215
C    -2.39784  -0.47990  -0.85944
O    -3.56545  -0.88988  -0.70399
C    -1.89026   0.65327  -0.14765
O    -0.53006   1.01699  -0.28841
C     0.48909   0.24296  -0.08995
C     1.74304   0.76511  -0.59685
C     2.98093   0.33507  -0.06670
C     4.16827   0.87674  -0.54906
C     4.13925   1.84157  -1.56272
C     2.91704   2.27562  -2.09359
C     1.72446   1.74747  -1.61455
C     0.38854  -1.03382   0.61512
C    -0.40661  -1.14670   1.77563
C    -0.44789  -2.35015   2.47000
C     0.26767  -3.46104   2.00121
C     1.04649  -3.35952   0.84577
C     1.11905  -2.14825   0.15878
C    -2.63920   1.59260   0.63318
C    -1.86258   2.75238   1.23301
O    -3.86183   1.49052   0.84620
H    -0.65519  -0.60692  -2.23335
H    -2.17038  -1.39857  -2.75807
H    -1.17789  -2.14333  -1.49086
H     3.00647  -0.39354   0.74322
H     5.12180   0.55154  -0.12894
H     5.07467   2.25900  -1.94201
H     2.90035   3.02301  -2.88921
H     0.76992   2.06473  -2.03491
H    -0.96502  -0.28588   2.14216
H    -1.04409  -2.42762   3.38123
H     0.21548  -4.40851   2.54214
H     1.60029  -4.22504   0.47711
H     1.71507  -2.07022  -0.75086
H    -2.56677   3.42685   1.73794
H    -1.12251   2.38572   1.96369
H    -1.30412   3.30718   0.46277
