37
Generated by autodE on: 2022-07-27. E = -921.621252 Ha
C    -0.68057  -2.86633  -2.22004
C    -1.78262  -2.25060  -1.37818
O    -2.86739  -2.85063  -1.23133
C    -1.49873  -0.99324  -0.77066
O    -0.26106  -0.40548  -1.13579
C     0.44256   0.23135  -0.24542
C     1.27664   1.29472  -0.77349
C     2.45111   1.70952  -0.10745
C     3.24033   2.71741  -0.65402
C     2.86933   3.32319  -1.85978
C     1.70611   2.91775  -2.52833
C     0.91391   1.90889  -1.99406
C     0.51479  -0.22985   1.14234
C     0.54167  -1.61270   1.40943
C     0.65517  -2.06274   2.72229
C     0.71863  -1.14437   3.77757
C     0.68303   0.22949   3.51748
C     0.58680   0.68890   2.20533
C    -2.32834  -0.12466  -0.00828
C    -3.74496  -0.54445   0.30533
O    -1.89942   0.98103   0.39871
H    -0.34452  -2.17349  -3.00757
H     0.20036  -3.09797  -1.59879
H    -1.05461  -3.79231  -2.67640
H     2.75829   1.22083   0.81672
H     4.15324   3.02811  -0.14243
H     3.48971   4.11684  -2.28234
H     1.41712   3.39935  -3.46453
H    -0.00502   1.60149  -2.49367
H     0.50371  -2.32650   0.58620
H     0.69546  -3.13485   2.92506
H     0.79710  -1.50234   4.80662
H     0.72626   0.94558   4.34060
H     0.53399   1.75849   1.99993
H    -4.24434   0.27755   0.83584
H    -4.30201  -0.80218  -0.60652
H    -3.74276  -1.44478   0.93918
