56
Generated by autodE on: 2022-06-10. E = -4017.818605 Ha
C     0.24631 -15.99461   9.41188
O    -1.09365 -15.57909   9.74184
C    -2.09204 -16.26301   9.21294
O    -1.98529 -17.19789   8.45564
C    -3.46368 -15.80698   9.77257
C    -3.29464 -14.86148  10.99889
C    -3.03942 -15.53284  12.31531
O    -3.41146 -13.66110  10.87772
O    -4.02695 -17.05096  10.21617
O    -5.44671 -16.98000   9.96393
C    -5.58713 -16.02992   8.97930
C    -4.48212 -15.30496   8.73743
C    -4.25641 -14.26848   7.63508
C    -4.99458 -12.94035   7.92268
C    -5.80032 -12.72350   9.04517
C    -6.46119 -11.50361   9.23173
C    -6.33074 -10.47726   8.29511
C    -5.52911 -10.68257   7.16641
C    -4.86893 -11.89824   6.98675
C    -2.74560 -13.96295   7.47824
C    -2.13956 -12.93030   8.21125
C    -0.78505 -12.62979   8.05426
C    -0.00266 -13.35319   7.15087
C    -0.59075 -14.38337   6.41397
C    -1.94605 -14.68337   6.57683
C    -4.82125 -14.80285   6.25876
C    -4.81956 -16.32492   5.98682
C    -6.22173 -16.95482   5.94553
C    -6.92311 -17.28838   7.27440
C    -6.92318 -16.15626   8.29449
F    -7.29380 -14.97667   7.72234
Br   -8.32117 -16.50616   9.69612
H     0.35408 -16.10725   8.32724
H     0.90485 -15.20316   9.78420
H     0.46318 -16.94759   9.91535
H    -2.32328 -16.36117  12.21695
H    -3.98865 -15.96372  12.67510
H    -2.68203 -14.79105  13.04128
H    -5.91984 -13.50583   9.79254
H    -7.08154 -11.36075  10.12002
H    -6.84635  -9.52518   8.44151
H    -5.41384  -9.89013   6.42275
H    -4.23644 -12.03489   6.10778
H    -2.73242 -12.35177   8.91593
H    -0.34205 -11.82010   8.63914
H     1.05665 -13.11815   7.02394
H     0.00576 -14.96292   5.70559
H    -2.36945 -15.49993   5.99448
H    -5.84599 -14.43306   6.15813
H    -4.25427 -14.28961   5.47266
H    -4.17785 -16.86437   6.70024
H    -4.36839 -16.48952   4.99627
H    -6.88073 -16.29707   5.35576
H    -6.16976 -17.90683   5.39405
H    -7.96521 -17.56627   7.06103
H    -6.44655 -18.15174   7.76163
