16
Generated by autodE on: 2022-06-10. E = -570.375636 Ha
C     3.07708   0.36705  -0.41050
O     1.69680  -0.01159  -0.61504
C     0.86535   0.21186   0.37836
O     1.11436   0.72243   1.44382
C    -0.53983  -0.22713   0.04248
O    -0.91972  -1.39245   0.35391
O    -0.03618  -2.23947   0.90026
C    -1.52449   0.72030  -0.56383
C    -2.90759   0.22732  -0.82996
O    -1.11326   1.84243  -0.80506
H     3.49754  -0.20357   0.42880
H     3.59295   0.11958  -1.34405
H     3.14164   1.44405  -0.20431
H    -3.50846   1.04084  -1.25437
H    -3.36305  -0.13917   0.10395
H    -2.87131  -0.62395  -1.52910
