25
Generated by autodE on: 2022-05-28. E = -1256.371889 Ha
C     3.55581   2.24402  -0.39604
O     2.45714   1.62438   0.30054
C     2.12111   0.41456  -0.10269
O     2.65453  -0.24485  -0.96258
N     1.05772  -0.09862   0.68085
O     0.22130   0.85191   1.33975
N    -1.02706   0.75446   0.66035
C    -1.32197   1.80637  -0.23489
C    -0.62213   3.10375   0.01758
O    -2.15266   1.60830  -1.10248
C    -1.10281  -0.61276   0.22339
C    -2.36923  -1.35295   0.02112
C    -3.63035  -0.70779   0.51881
O    -2.34803  -2.45621  -0.50582
C     0.16671  -1.08199   0.18662
Cl    0.74464  -2.62636  -0.20263
H     3.67459   3.23170   0.06209
H     4.46865   1.64658  -0.26569
H     3.31874   2.34141  -1.46433
H    -1.10890   3.88582  -0.57734
H     0.43257   3.00881  -0.28566
H    -0.63569   3.36279   1.08573
H    -4.46283  -1.41593   0.42213
H    -3.51318  -0.39418   1.56808
H    -3.83726   0.19818  -0.07091
