9
Generated by autodE on: 2022-05-28. E = -689.705311 Ha
C    -2.71932   0.44724   0.11230
C    -1.64217  -0.56283   0.38024
O    -1.86044  -1.68106   0.82297
C    -0.28088  -0.14029   0.08054
C     0.85034   0.22412  -0.17232
Cl    2.37792   0.70895  -0.51063
H    -3.70053   0.02724   0.37015
H    -2.52640   1.35853   0.70205
H    -2.69587   0.74028  -0.95018
