25
Generated by autodE on: 2022-05-28. E = -1256.210629 Ha. Imaginary frequency = -248.1 cm-1
C     3.72589   0.84527  -0.71649
O     2.93199   0.20145   0.29274
C     1.74061   0.74196   0.54372
O     1.31531   1.74664  -0.00338
N     1.14684  -0.02654   1.53921
O    -0.15371   0.16069   1.80715
N    -1.08377   0.57671   1.01690
C    -1.04646   1.76958   0.19815
C    -0.91242   3.01135   1.04247
O    -1.43239   1.73906  -0.94421
C    -1.13784  -1.08887  -0.42535
C    -2.60620  -1.21463  -0.27501
C    -3.03869  -2.10901   0.84779
O    -3.36281  -0.64860  -1.03683
C     0.00088  -1.44488  -0.73349
Cl    1.40949  -2.00247  -1.34397
H     4.63842   0.24529  -0.80410
H     3.18691   0.86478  -1.67419
H     3.97043   1.87247  -0.40998
H    -0.28589   2.85116   1.92785
H    -0.49525   3.80705   0.41120
H    -1.92470   3.30355   1.36634
H    -4.12958  -2.06351   0.96331
H    -2.72753  -3.14128   0.61568
H    -2.53349  -1.81942   1.78175
