46
Generated by autodE on: 2022-06-22. E = -1052.781043 Ha. Imaginary frequency = -389.7 cm-1
C     0.92809  -3.02375   1.33091
N    -0.25957  -2.20037   1.17832
C    -1.22572  -2.57363   0.29446
C    -2.31361  -1.81166  -0.02059
C    -3.27665  -2.36018  -0.98363
N    -4.38423  -1.61010  -1.22123
O    -3.11772  -3.45043  -1.57250
C    -2.53436  -0.48756   0.67983
C    -1.23118   0.01632   1.26113
C    -0.45843   1.05979  -0.73177
C    -0.90542   2.42785  -0.49433
C    -2.18132   2.82597  -0.94394
C    -2.67229   4.10022  -0.65518
C    -1.89815   5.00623   0.07817
C    -0.62473   4.62383   0.52093
C    -0.13096   3.35079   0.24027
N     0.80452   0.69684  -0.56666
C     1.53118   0.02862   0.16783
C     2.93955  -0.32371   0.07368
C     3.63857  -0.66407   1.24669
C     4.98492  -1.02383   1.18332
C     5.63840  -1.07380  -0.05278
C     4.94649  -0.75150  -1.22726
C     3.60729  -0.37015  -1.16796
C    -0.20579  -0.84734   1.58986
H     1.67533  -2.81501   0.54665
H     0.65080  -4.08523   1.28164
H     1.39166  -2.82999   2.30807
H    -1.09686  -3.55625  -0.16305
H    -5.07765  -1.96308  -1.87116
H    -4.57131  -0.74280  -0.73509
H    -3.29407  -0.59704   1.48403
H    -2.95976   0.26278  -0.00830
H    -1.24942   0.97720   1.77790
H    -1.03932   0.45776  -1.43807
H    -2.78406   2.12411  -1.52576
H    -3.66397   4.39090  -1.01091
H    -2.28055   6.00539   0.29915
H    -0.01148   5.32742   1.08970
H     0.86225   3.05923   0.58947
H     3.11425  -0.64133   2.20385
H     5.52471  -1.27640   2.09868
H     6.68937  -1.36796  -0.10310
H     5.45779  -0.79281  -2.19187
H     3.06212  -0.11047  -2.07768
H     0.48841  -0.64759   2.40239
