49
Generated by autodE on: 2022-06-24. E = -1298.752980 Ha
C     1.90469   2.36452   3.06418
O     1.93062   1.31094   2.08799
C     1.15737   1.45484   1.01942
O     0.49884   2.44026   0.77219
C     1.22720   0.20736   0.12879
C     2.69981  -0.07846  -0.22228
O     3.22038  -1.17089  -0.20247
O     3.30700   1.03902  -0.60507
C     4.67775   0.92925  -1.02826
O     0.55955   0.47144  -1.08876
C    -0.54254  -0.43260  -1.29180
C    -1.65251   0.25647  -2.04480
C    -2.63813  -0.52337  -2.66982
C    -3.70449   0.08474  -3.33556
C    -3.79339   1.48007  -3.39391
C    -2.80890   2.26057  -2.78170
C    -1.74425   1.65316  -2.10816
C    -0.90404  -0.93776   0.12263
C    -1.51761  -2.34373   0.06933
N    -2.25457  -2.70635   1.12998
O    -1.31156  -3.10446  -0.88306
C    -1.75545   0.08313   0.90990
C    -1.47528   0.04890   2.38683
C    -0.38877  -0.56690   2.90297
N     0.54545  -1.24518   2.14751
C     1.75345  -1.77302   2.75497
C     0.52239  -1.05895   0.72885
H     2.59055   2.05401   3.85993
H     0.88521   2.47879   3.45958
H     2.23935   3.30969   2.61461
H     4.75302   0.25895  -1.89601
H     5.29690   0.54330  -0.20626
H     4.99016   1.94366  -1.29948
H    -0.19212  -1.29586  -1.87586
H    -2.56513  -1.61208  -2.63028
H    -4.46653  -0.53361  -3.81614
H    -4.62526   1.95608  -3.91854
H    -2.86844   3.35085  -2.82578
H    -0.97818   2.26202  -1.62798
H    -2.34998  -2.10304   1.94251
H    -2.63036  -3.64919   1.16545
H    -2.82085  -0.10577   0.70484
H    -1.56389   1.09189   0.51276
H    -2.16959   0.54631   3.06612
H    -0.20860  -0.58719   3.98040
H     1.54066  -2.06491   3.79273
H     2.08637  -2.66740   2.20747
H     2.58144  -1.04343   2.75994
H     1.02607  -1.91524   0.26105
