29
Generated by autodE on: 2022-07-27. E = -840.970187 Ha
C     0.81995   2.47177   2.97878
O     0.57620   1.57034   1.89723
C     1.65880   0.90357   1.41860
O     2.77685   1.07015   1.89186
C     1.32326   0.01449   0.32803
O    -0.01102   0.02084   0.01739
C    -0.70772  -0.59548  -0.85869
C    -2.11959  -0.35368  -0.90978
C    -2.87623  -1.04327  -1.88258
C    -4.25109  -0.83976  -1.96679
C    -4.87993   0.04820  -1.08641
C    -4.13405   0.73686  -0.11690
C    -2.76206   0.54207  -0.02310
C     2.21268  -0.83354  -0.41585
O     1.85278  -1.57967  -1.33001
O     3.50376  -0.75205  -0.03444
C     4.42732  -1.58046  -0.74605
H    -0.15271   2.91159   3.23083
H     1.52296   3.26440   2.68118
H     1.22815   1.94045   3.85174
H    -0.20870  -1.28760  -1.53915
H    -2.37260  -1.73348  -2.56304
H    -4.83650  -1.37256  -2.71879
H    -5.95858   0.20719  -1.15370
H    -4.63363   1.42757   0.56554
H    -2.17075   1.07087   0.72614
H     4.17368  -2.64481  -0.62919
H     5.41097  -1.38018  -0.30420
H     4.43882  -1.32899  -1.81716
