49
Generated by autodE on: 2022-06-24. E = -1298.699695 Ha. Imaginary frequency = -204.3 cm-1
C     1.26801   3.21644   2.57954
O     0.94934   2.32607   1.51203
C     1.99212   1.64367   0.95801
O     3.12999   1.74611   1.41465
C     1.57506   0.83285  -0.15272
C     2.43269   0.04812  -0.99472
O     2.14820  -0.33667  -2.13205
O     3.60749  -0.30013  -0.41072
C     4.47320  -1.12632  -1.19140
O     0.26481   1.05736  -0.54629
C    -0.48577   0.14523  -1.14177
C    -1.85767   0.55924  -1.41952
C    -2.59729  -0.13561  -2.39330
C    -3.92765   0.20704  -2.64174
C    -4.52785   1.24542  -1.92353
C    -3.79321   1.94521  -0.95583
C    -2.46760   1.60526  -0.70083
C    -0.66585  -1.52359   0.28676
C    -0.34389  -2.59051  -0.70720
N    -1.39752  -3.19795  -1.29149
O     0.82347  -2.89556  -0.99658
C    -2.08128  -1.42818   0.84254
C    -2.15291  -0.40631   1.94347
C    -1.06592  -0.06115   2.64252
N     0.19708  -0.62162   2.34901
C     1.28494  -0.44730   3.30567
C     0.38785  -1.26802   1.19914
H     0.31271   3.63082   2.92454
H     1.76686   2.69039   3.40666
H     1.92363   4.02961   2.23144
H     3.98350  -2.08137  -1.43494
H     5.35900  -1.30761  -0.57015
H     4.76864  -0.62527  -2.12556
H     0.01122  -0.49909  -1.86587
H    -2.12289  -0.94703  -2.94797
H    -4.49629  -0.33617  -3.39964
H    -5.56923   1.51305  -2.11672
H    -4.26290   2.75716  -0.39613
H    -1.89382   2.13532   0.06022
H    -2.35362  -2.90952  -1.12323
H    -1.22009  -3.88173  -2.02041
H    -2.40767  -2.41531   1.22904
H    -2.80228  -1.17355   0.05095
H    -3.11412   0.04565   2.19297
H    -1.06994   0.65079   3.46819
H     1.24344   0.56278   3.73036
H     1.19397  -1.17656   4.12618
H     2.24552  -0.58717   2.79785
H     1.37953  -1.68084   1.02317
