45
Generated by autodE on: 2022-06-22. E = -1254.639426 Ha
C     0.68509   5.49408  -0.14792
N     0.27880   4.11575  -0.32078
C     1.14111   3.10048  -0.46445
O     2.37243   3.20842  -0.49414
C     0.50889   1.73970  -0.59558
N    -0.74975   1.55053  -0.45869
C    -1.01595   0.10766  -0.57699
C    -2.29844  -0.08679  -1.39273
O    -2.33069  -0.46602  -2.54159
O    -3.36723   0.25400  -0.68237
C    -4.64594   0.15379  -1.33443
C    -1.19312  -0.48976   0.82494
O    -0.92709   0.08283   1.85720
O    -1.63247  -1.74079   0.74597
C    -1.66799  -2.50384   1.96474
C     0.26411  -0.45797  -1.30338
C     1.35302   0.51350  -0.80714
C     2.03105   0.10097   0.52929
C     1.96655  -1.38416   0.78540
C     2.60823  -1.97733   1.96914
N     3.34975  -1.14378   2.73972
O     2.47725  -3.17861   2.28446
C     1.28688  -2.22849  -0.04043
N     0.57957  -1.85038  -1.13636
C    -0.18575  -2.82807  -1.89433
H     0.64030   5.79982   0.91067
H     0.02733   6.15609  -0.72854
H     1.71692   5.61330  -0.50077
H    -0.70724   3.87344  -0.27097
H    -4.67381   0.80934  -2.21613
H    -4.83390  -0.88548  -1.63867
H    -5.38622   0.47610  -0.59400
H    -0.64454  -2.63712   2.34527
H    -2.28741  -1.99714   2.71713
H    -2.10334  -3.47298   1.69773
H     0.08865  -0.26937  -2.37073
H     2.11644   0.66943  -1.57877
H     1.56263   0.64040   1.36942
H     3.07599   0.44811   0.49557
H     3.49817  -0.16996   2.50772
H     3.79549  -1.51918   3.56957
H     1.30249  -3.30014   0.16503
H    -0.19716  -2.55141  -2.95833
H    -1.22760  -2.90122  -1.54279
H     0.28840  -3.81303  -1.79407
