20
Generated by autodE on: 2022-06-22. E = -457.715339 Ha
C     3.13749  -0.25014  -0.44764
N     1.81890   0.20888  -0.04301
C     1.67457   1.48666   0.51185
C     0.47966   2.00526   0.83599
C    -0.82122   1.26810   0.63395
C    -0.56784  -0.09635   0.01352
C    -1.67804  -1.01317  -0.29039
N    -2.91997  -0.56771   0.02674
O    -1.52272  -2.13741  -0.80963
C     0.69341  -0.52119  -0.28086
H     3.53042   0.34402  -1.28999
H     3.07674  -1.30050  -0.75882
H     3.84827  -0.17410   0.38989
H     2.60957   2.02880   0.66429
H     0.44845   3.00715   1.27030
H    -1.35698   1.17027   1.60058
H    -1.50483   1.86999   0.00071
H    -3.71449  -1.16879  -0.16237
H    -3.08481   0.33212   0.45930
H     0.84767  -1.50308  -0.73121
