25
Generated by autodE on: 2022-06-22. E = -796.838604 Ha
C     2.29609   0.91296   2.92868
N     2.02658  -0.50015   3.12834
C     1.26778  -1.27784   2.34828
O     1.02732  -2.47488   2.50148
C     0.66316  -0.61979   1.18873
N     0.10171  -0.24680   0.23796
C    -0.52023   0.22432  -0.84059
C    -1.34283  -0.69406  -1.62167
O    -1.97048  -0.40621  -2.62709
O    -1.33245  -1.93497  -1.09318
C    -2.10559  -2.92725  -1.77617
C    -0.34245   1.63280  -1.17913
O    -0.84744   2.20319  -2.13153
O     0.46723   2.25723  -0.29808
C     0.71843   3.64716  -0.53324
H     3.37361   1.08658   2.79209
H     1.94770   1.49840   3.79209
H     1.77372   1.27784   2.03370
H     2.44308  -0.96879   3.93175
H    -3.16936  -2.64772  -1.79538
H    -1.74702  -3.05940  -2.80767
H    -1.97146  -3.85645  -1.20982
H     1.20879   3.79443  -1.50673
H    -0.21904   4.22181  -0.50834
H     1.38204   3.97424   0.27576
