45
Generated by autodE on: 2022-06-22. E = -1254.558184 Ha. Imaginary frequency = -338.4 cm-1
C     1.43159   5.07052   0.17308
N     0.77515   3.82649  -0.19235
C     0.87743   2.73139   0.56130
O     1.52916   2.63903   1.60551
C     0.16555   1.52669   0.04466
N    -0.81134   0.90615   0.35250
C    -1.67367  -0.09203   0.01831
C    -2.44233   0.14014  -1.18960
O    -2.33060   1.14136  -1.89522
O    -3.32077  -0.84303  -1.47926
C    -4.08041  -0.67874  -2.67907
C    -1.76075  -1.22608   0.91538
O    -2.44608  -2.23244   0.77077
O    -0.91955  -1.08272   1.97275
C    -0.82305  -2.19117   2.86858
C     0.72557  -0.26726  -2.11414
C     1.46170   0.73500  -1.51290
C     2.60478   0.31416  -0.61221
C     2.16316  -0.90770   0.17038
C     2.48182  -1.14748   1.60165
N     2.72861  -0.04751   2.35091
O     2.49967  -2.28949   2.08859
C     1.36771  -1.81047  -0.44631
N     0.80365  -1.56839  -1.69413
C    -0.16904  -2.53399  -2.19812
H     0.92932   5.55290   1.02646
H     1.40322   5.74879  -0.68751
H     2.47797   4.87848   0.44983
H     0.19094   3.79033  -1.02441
H    -3.42041  -0.64254  -3.55894
H    -4.73711  -1.55505  -2.74124
H    -4.68341   0.24055  -2.64254
H    -0.49429  -3.09677   2.33810
H    -1.78964  -2.38929   3.35587
H    -0.07528  -1.90874   3.61886
H     0.03200  -0.07019  -2.93203
H     1.50938   1.69841  -2.02360
H     3.49331   0.05879  -1.22280
H     2.92749   1.13421   0.04029
H     2.42725   0.87954   2.04593
H     2.82677  -0.19502   3.35138
H     1.05950  -2.73753   0.03807
H    -0.39355  -2.31294  -3.24856
H    -1.09978  -2.48391  -1.61128
H     0.24746  -3.54684  -2.12739
