37
Generated by autodE on: 2022-06-17. E = -688.838016 Ha
C     3.88934   0.53491   0.92150
N     2.55852   0.63173   0.36582
C     1.75979  -0.45843   0.24850
O     2.14758  -1.60418   0.53501
N     0.50436  -0.22445  -0.28129
N     0.17426   1.12278  -0.62483
C     0.40138   1.39547  -2.04283
N    -1.13890   1.36086  -0.16327
C    -1.07072   2.04688   1.12654
C    -1.85417   0.04710  -0.21164
C    -3.00479  -0.01984   0.79384
C    -2.48517  -0.12260  -1.60472
C    -0.70542  -1.02099   0.07497
C    -0.80009  -2.27816  -0.79550
C    -0.66546  -1.45514   1.54916
H     3.88374   0.34960   2.01047
H     4.42573   1.47445   0.73368
H     4.44718  -0.28527   0.44595
H     2.10476   1.53305   0.24544
H     0.05754   2.41666  -2.25585
H    -0.09549   0.69247  -2.73030
H     1.48459   1.35295  -2.23024
H    -0.55088   1.47497   1.91726
H    -0.52839   2.99097   0.97975
H    -2.07969   2.29707   1.47811
H    -2.69694   0.12922   1.83408
H    -3.48936  -1.00436   0.72256
H    -3.75980   0.74139   0.54587
H    -3.14239   0.73612  -1.80355
H    -3.09582  -1.03594  -1.64494
H    -1.74985  -0.18001  -2.41384
H     0.02360  -2.96050  -0.54123
H    -0.72801  -2.04535  -1.86518
H    -1.74965  -2.80426  -0.61296
H     0.18774  -2.12095   1.72166
H    -0.57209  -0.59863   2.22951
H    -1.58049  -2.00552   1.80578
