19
Generated by autodE on: 2022-07-27. E = -452.832999 Ha
C    -3.02666   1.26774  -1.21060
N    -2.13418   0.98255  -0.11054
N    -1.08813   0.30994  -0.36138
C    -0.79531  -0.16487  -1.74467
N    -0.34365  -0.05074   0.66313
C     1.00294  -0.28103   0.44551
O     1.68570   0.14549  -0.50283
N     1.55971  -1.00221   1.45517
C     2.99292  -1.15974   1.56688
H    -3.48609   0.35370  -1.62667
H    -3.83100   1.90421  -0.82325
H    -2.53126   1.79911  -2.04021
H    -0.54794   0.69710  -2.37612
H     0.03692  -0.86650  -1.72429
H    -1.70051  -0.65223  -2.12462
H     0.97408  -1.21538   2.25464
H     3.21285  -1.84759   2.39328
H     3.41442  -1.58159   0.64208
H     3.50835  -0.20256   1.76334
