19
Generated by autodE on: 2022-06-17. E = -452.841576 Ha
C    -2.48632  -1.55518   0.69357
N    -2.47854  -0.28664   0.01241
N    -1.32160   0.21593  -0.15943
C    -1.32632   1.52346  -0.86639
N    -0.24220  -0.35326   0.31203
C     1.01074   0.09609  -0.09787
O     1.28188   0.70753  -1.14218
N     1.97414  -0.28083   0.77885
C     3.37840  -0.08812   0.49114
H    -1.86578  -2.30403   0.17090
H    -2.06915  -1.46733   1.71253
H    -3.52377  -1.90622   0.75171
H    -2.36522   1.86129  -0.89078
H    -0.92875   1.38529  -1.87574
H    -0.69263   2.22917  -0.31853
H     1.69637  -0.84554   1.57341
H     3.59463   0.96786   0.26747
H     3.71209  -0.68880  -0.37298
H     3.96539  -0.38533   1.36921
