67
Generated by autodE on: 2022-10-23. E = -1721.798449 Ha
C    11.35804 -10.09454  16.12821
O    10.71151  -9.36683  15.07064
C     9.56066  -9.85620  14.62865
O     9.03739 -10.85474  15.08006
C     8.94299  -9.01623  13.47394
O     9.76326  -7.88959  13.20030
C     9.63644  -6.75024  14.03810
C     7.49819  -8.64565  13.86379
C     6.46242  -9.78796  13.81150
C     5.44303  -9.67278  12.67625
C     5.83557 -10.11790  11.26288
C     7.05656  -9.45793  10.54655
C     7.03833  -7.92096  10.66816
C     8.21307  -7.16309  10.75437
C     8.16698  -5.76677  10.80513
C     6.94166  -5.09898  10.75178
C     5.76416  -5.84348  10.62776
C     5.81441  -7.23800  10.57911
C     7.00537  -9.73198   9.01551
C     6.03819 -10.54846   8.41197
C     6.04873 -10.77318   7.03130
C     7.02832 -10.19165   6.22494
C     7.99175  -9.36666   6.81209
C     7.97038  -9.13427   8.18639
C     8.32205 -10.09699  11.11976
C     9.03322  -9.88992  12.24335
N    10.24818 -10.74477  12.20493
O    11.08698 -10.11819  11.13348
C    10.45064 -10.41117   9.96324
O    10.87764 -10.08942   8.89102
C     9.17769 -11.18592  10.38404
C     8.58533 -12.11193   9.33692
O     9.05958 -12.30251   8.24120
O     7.54044 -12.76319   9.83246
C     6.94159 -13.77135   9.00112
N     9.83835 -11.91705  11.49434
C     9.05281 -12.81868  12.32923
H    11.60869 -11.10999  15.78952
H    10.70423 -10.15109  17.00978
H    12.27012  -9.53483  16.36388
H    10.47921  -6.09075  13.78767
H     9.69877  -7.01026  15.10714
H     8.69770  -6.20432  13.85175
H     7.53514  -8.22618  14.87888
H     7.18416  -7.82537  13.20637
H     6.95731 -10.76760  13.78078
H     5.90089  -9.77299  14.75755
H     5.06628  -8.63837  12.64914
H     4.57287 -10.29639  12.94069
H     4.95170  -9.94591  10.63500
H     6.00491 -11.20436  11.25502
H     9.17973  -7.65846  10.80254
H     9.09885  -5.20259  10.88853
H     6.90327  -4.00807  10.79683
H     4.79787  -5.33700  10.56704
H     4.88450  -7.79531  10.46288
H     5.27542 -11.04514   9.00775
H     5.28645 -11.41943   6.58979
H     7.03911 -10.37631   5.14832
H     8.76639  -8.90010   6.19924
H     8.72518  -8.47921   8.61900
H     7.66324 -14.57967   8.81727
H     6.07917 -14.14670   9.56228
H     6.62016 -13.33556   8.04628
H     9.63844 -13.02296  13.23468
H     8.90796 -13.75833  11.78430
H     8.07121 -12.40990  12.61746
