50
Generated by autodE on: 2022-10-23. E = -1117.019023 Ha
C     1.92657  -5.25602  -1.93911
O     2.30445  -4.03017  -1.28926
C     1.35070  -3.12253  -1.12256
O     0.20112  -3.26397  -1.48539
C     1.89210  -1.82671  -0.48834
O     2.99097  -2.06771   0.36621
C     2.68399  -2.76510   1.56317
C     0.81126  -1.07399   0.16536
C     0.13120  -0.10051   0.40275
C    -0.38112   1.27067   0.37513
C    -1.55188   1.40337  -0.62167
C    -2.22127   2.63360  -0.72170
C    -3.26085   2.80891  -1.63603
C    -3.65460   1.75266  -2.46598
C    -2.99650   0.52513  -2.37094
C    -1.95099   0.35159  -1.45606
C    -0.86021   1.70334   1.77004
C    -0.53427   2.94422   2.33111
C    -1.03206   3.30843   3.58828
C    -1.85906   2.43796   4.30078
C    -2.18881   1.19539   3.74704
C    -1.69319   0.83504   2.49367
C     0.84142   2.10483  -0.14070
C     1.53154   1.57646  -1.41498
C     2.68436   0.54345  -1.26405
C     2.40612  -0.92332  -1.64613
H     1.14468  -5.76747  -1.36017
H     2.83436  -5.86834  -1.97808
H     1.55850  -5.05046  -2.95429
H     2.27126  -3.76870   1.35914
H     1.96229  -2.20381   2.18225
H     3.62438  -2.87495   2.12012
H    -1.92962   3.46314  -0.07435
H    -3.76873   3.77441  -1.69860
H    -4.47019   1.88782  -3.18027
H    -3.29366  -0.30833  -3.01217
H    -1.44284  -0.61189  -1.39629
H     0.10660   3.64335   1.79429
H    -0.76712   4.28107   4.01001
H    -2.24470   2.72357   5.28230
H    -2.83421   0.50410   4.29446
H    -1.95705  -0.13475   2.06426
H     0.48454   3.12803  -0.32804
H     1.57946   2.16804   0.67409
H     1.96001   2.46093  -1.91090
H     0.77335   1.18985  -2.11668
H     3.10082   0.58016  -0.24413
H     3.50116   0.87219  -1.92491
H     3.32820  -1.40515  -2.00657
H     1.67141  -0.96644  -2.46490
