31
Generated by autodE on: 2022-06-17. E = -859.152502 Ha
C    -0.22700  -1.47072   1.73963
C    -0.85701  -0.77324   0.53408
C    -1.24238  -1.80082  -0.52975
C    -2.02254   0.17342   1.00307
C    -3.41924  -0.09040   0.49426
O    -3.96603  -1.15958   0.64766
N    -1.56046   1.55334   0.67865
O    -1.62765   1.63042  -0.80439
C    -0.56503   0.91001  -1.27074
O    -0.32370   0.78949  -2.43871
C     0.11007   0.35181  -0.01334
C     1.56988   0.04547  -0.09590
C     2.44072   0.49374   0.90690
C     3.79752   0.16652   0.85260
C     4.29232  -0.61239  -0.19751
C     3.42453  -1.06022  -1.19798
C     2.06736  -0.73302  -1.15152
O    -0.17839   1.45538   0.87876
H    -0.98540  -2.10327   2.22539
H     0.60935  -2.11162   1.42606
H     0.14161  -0.74439   2.47819
H    -1.92027  -2.54736  -0.09527
H    -1.75037  -1.35675  -1.39802
H    -0.34201  -2.32365  -0.88366
H    -2.09649   0.15211   2.10119
H    -3.93763   0.76354   0.00259
H     2.05722   1.09878   1.72920
H     4.46981   0.52139   1.63703
H     5.35348  -0.86889  -0.23712
H     3.80446  -1.66690  -2.02303
H     1.39747  -1.07715  -1.93933
