14
Generated by autodE on: 2022-06-17. E = -270.683214 Ha
C    -0.75369  -1.36927   0.28225
C    -0.84396   0.04336  -0.21943
C    -2.18782   0.48692  -0.70465
C     0.21536   0.89788  -0.24816
C     1.56860   0.59164   0.19051
O     1.97168  -0.48021   0.63669
H    -0.35327  -1.40163   1.30729
H    -1.73662  -1.86040   0.26397
H    -0.05341  -1.95738  -0.33295
H    -2.53356  -0.18084  -1.51337
H    -2.93068   0.38895   0.10656
H    -2.18695   1.52347  -1.06885
H     0.06527   1.91271  -0.62804
H     2.28205   1.44584   0.09416
