31
Generated by autodE on: 2022-06-17. E = -859.099336 Ha. Imaginary frequency = -388.4 cm-1
C    -0.09995  -1.47741   1.80787
C    -1.06949  -1.00110   0.75391
C    -1.26928  -1.96487  -0.38702
C    -2.09922  -0.12674   1.21727
C    -3.46652  -0.04735   0.67867
O    -3.82420  -0.39331  -0.43564
N    -1.49502   1.77312   0.54549
O    -1.64157   1.55593  -0.81247
C    -0.59871   0.76271  -1.28216
O    -0.55997   0.35432  -2.41699
C     0.24848   0.59925  -0.11142
C     1.63545   0.17113  -0.07760
C     2.46262   0.51562   1.00860
C     3.77706   0.05653   1.05462
C     4.27720  -0.75601   0.03021
C     3.45735  -1.10242  -1.04846
C     2.14228  -0.64152  -1.11028
O    -0.18417   1.52827   0.78733
H    -0.59576  -2.26081   2.40773
H     0.79966  -1.92397   1.36292
H     0.19584  -0.66991   2.49279
H    -1.72687  -2.88725   0.01216
H    -1.92265  -1.57974  -1.17420
H    -0.29792  -2.25023  -0.81852
H    -2.03054   0.18878   2.26075
H    -4.19836   0.40813   1.38581
H     2.07155   1.14515   1.80898
H     4.41573   0.33174   1.89671
H     5.30726  -1.11689   0.07260
H     3.84480  -1.73359  -1.85107
H     1.50604  -0.90334  -1.95508
