51
Generated by autodE on: 2022-06-21. E = -1133.601441 Ha
C    -2.14767  -3.02859  -0.15959
C    -1.44821  -2.01887  -0.69834
C    -1.13838  -1.96566  -2.17069
C    -0.94541  -0.90166   0.19006
C     0.40381  -0.27974  -0.21484
C     1.57159  -1.17067   0.07789
C     2.55202  -1.53010  -0.76990
C     3.65319  -2.45307  -0.32097
C     2.67039  -1.06226  -2.19468
C     0.37500   1.08602   0.54295
C     1.26492   1.08906   1.80241
O     2.48158   1.27186   1.69326
N     0.61991   0.86604   2.95217
C     1.27841   0.83298   4.24179
C     0.89260   2.22498  -0.34715
O     1.60568   2.07625  -1.31506
O     0.49064   3.40869   0.10781
C     0.90615   4.56116  -0.64137
O    -0.97485   1.32309   0.91464
C    -1.86091   0.35232   0.34394
C    -3.00777   0.13794   1.31808
C    -2.33283   0.88195  -1.02367
C    -3.62673   0.36802  -1.58387
O    -1.65402   1.70630  -1.61420
H    -2.54782  -3.83710  -0.77857
H    -2.33706  -3.07880   0.91665
H    -1.69446  -2.73936  -2.71859
H    -0.06208  -2.12991  -2.34384
H    -1.37428  -0.98793  -2.61899
H    -0.85144  -1.29406   1.21402
H     0.38192  -0.03669  -1.28101
H     1.60194  -1.57337   1.09701
H     3.68511  -3.35990  -0.95034
H     3.53375  -2.76122   0.72821
H     4.63808  -1.96581  -0.43124
H     2.73328  -1.92730  -2.87701
H     1.84131  -0.42299  -2.51919
H     3.60720  -0.49322  -2.32774
H    -0.39360   0.81092   2.89595
H     0.81890   0.06202   4.87556
H     2.34024   0.59522   4.10030
H     1.20388   1.80278   4.76125
H     0.50913   4.50964  -1.66545
H     0.49131   5.42904  -0.11630
H     2.00325   4.62294  -0.67480
H    -3.67176  -0.66376   0.96901
H    -3.59809   1.05834   1.43856
H    -2.59717  -0.15218   2.29612
H    -3.70768   0.63773  -2.64463
H    -4.45670   0.83706  -1.02882
H    -3.72643  -0.71825  -1.44651
