23
Generated by autodE on: 2022-06-21. E = -351.521385 Ha
C     3.31973   0.09005   1.80844
C     2.45347   0.23864   0.78213
C     2.91169   0.74062  -0.56331
C     1.04140  -0.09088   0.96536
C     0.07569   0.01227   0.01793
C    -1.31236  -0.32954   0.25276
C    -2.33353  -0.25879  -0.63824
C    -2.18836   0.19854  -2.06194
C    -3.72855  -0.65143  -0.24132
H     2.98401  -0.27463   2.78414
H     4.38130   0.32865   1.69887
H     2.37966   1.66451  -0.84504
H     2.70110   0.00307  -1.35555
H     3.99075   0.94955  -0.56404
H     0.75908  -0.45084   1.96208
H     0.34970   0.36984  -0.97830
H    -1.54831  -0.68206   1.26419
H    -1.16358   0.48305  -2.33304
H    -2.51853  -0.59679  -2.75342
H    -2.84780   1.06320  -2.25454
H    -3.78622  -0.98009   0.80672
H    -4.42794   0.19228  -0.38210
H    -4.10334  -1.46783  -0.88466
