28
Generated by autodE on: 2022-06-21. E = -781.993068 Ha
C     3.76167  -1.76519  -0.22475
N     2.44863  -1.36150  -0.68542
C     1.57078  -0.77452   0.15994
O     1.76699  -0.70437   1.38663
C     0.38213  -0.15620  -0.44571
O    -0.62186   0.27294   0.33857
C    -1.13931  -0.24070   1.40543
C    -0.84285  -1.59052   1.89879
C    -2.20028   0.61497   2.00119
C    -2.47632   1.94262   1.35510
O    -2.79126   0.21593   2.99761
C     0.33768   0.38142  -1.79312
O     1.15204   0.10396  -2.67208
O    -0.71210   1.19193  -2.01264
C    -0.82407   1.74827  -3.32809
H     4.38214  -0.90340   0.07758
H     4.27395  -2.29815  -1.03548
H     3.67796  -2.43829   0.64083
H     2.29237  -1.20193  -1.67943
H     0.09751  -1.62017   2.47349
H    -0.69404  -2.26342   1.03462
H    -1.67424  -1.93136   2.52759
H    -2.60731   1.83291   0.26826
H    -3.37103   2.38618   1.80933
H    -1.61539   2.61469   1.50636
H     0.05410   2.36625  -3.56614
H    -0.92154   0.95116  -4.07968
H    -1.72842   2.36774  -3.31615
