28
Generated by autodE on: 2022-07-27. E = -781.981401 Ha
C     3.05196  -0.82050   2.83762
N     1.84641  -0.73211   2.04077
C     1.80362   0.02391   0.92054
O     2.76695   0.71544   0.55328
C     0.53782  -0.01256   0.16140
O    -0.29932  -0.96348   0.54568
C    -1.56031  -1.20967   0.28125
C    -2.05190  -2.51404   0.80155
C    -2.43921  -0.15195  -0.20668
C    -3.90453  -0.48145  -0.30250
O    -2.01128   0.98459  -0.43731
C     0.38128   0.61014  -1.16397
O    -0.11131   0.02459  -2.11355
O     0.89046   1.83871  -1.23667
C     0.85677   2.46698  -2.52683
H     3.37043   0.17375   3.18906
H     3.88736  -1.25649   2.26512
H     2.85403  -1.45531   3.70978
H     1.03800  -1.28687   2.29818
H    -2.86772  -2.38048   1.53078
H    -1.22731  -3.06022   1.27804
H    -2.45351  -3.13105  -0.01998
H    -4.44032   0.38057  -0.71959
H    -4.31728  -0.72322   0.69031
H    -4.05986  -1.36491  -0.94184
H    -0.18175   2.56975  -2.87302
H     1.31268   3.45451  -2.39221
H     1.43039   1.87980  -3.25850
