51
Generated by autodE on: 2022-06-21. E = -1133.505191 Ha. Imaginary frequency = -253.5 cm-1
C    -2.87974  -2.29644  -1.73806
C    -1.71882  -1.60514  -1.75063
C    -1.18486  -0.99999  -3.02406
C    -0.91954  -1.50706  -0.52703
C     0.42058  -1.12868  -0.50838
C     1.32495  -1.64536   0.50831
C     2.67476  -1.70294   0.42293
C     3.49049  -2.31050   1.52842
C     3.46679  -1.20876  -0.75668
C     0.33488   1.14703   0.32946
C     1.59344   1.23816   1.10894
O     2.63871   1.59521   0.54080
N     1.51690   0.90930   2.41203
C     2.67437   0.80124   3.27349
C     0.33571   2.01830  -0.89946
O     0.81782   1.71681  -1.97133
O    -0.10499   3.24417  -0.59841
C    -0.17038   4.18366  -1.68161
O    -0.73580   0.90164   1.07397
C    -1.95484   0.46639   0.79730
C    -2.64623  -0.14608   1.97048
C    -2.65884   0.89919  -0.40221
C    -4.11494   0.54073  -0.50629
O    -2.09425   1.54382  -1.29307
H    -3.47992  -2.41803  -2.64372
H    -3.25168  -2.76277  -0.82112
H    -1.92730  -1.06828  -3.83170
H    -0.27280  -1.52711  -3.35202
H    -0.91013   0.05453  -2.88847
H    -1.29877  -2.06569   0.33315
H     0.85942  -0.75332  -1.43161
H     0.84848  -2.05086   1.40793
H     4.10913  -3.14364   1.14870
H     2.86271  -2.68910   2.34835
H     4.19576  -1.56910   1.94325
H     3.85832  -2.06184  -1.34046
H     2.88961  -0.56446  -1.43150
H     4.34391  -0.63703  -0.41308
H     0.62203   0.57708   2.75658
H     2.77869  -0.22361   3.66118
H     3.57155   1.05601   2.69759
H     2.59848   1.48953   4.13054
H    -0.84827   3.81183  -2.46340
H    -0.56088   5.11362  -1.25250
H     0.82854   4.35133  -2.10892
H    -3.28325  -0.98311   1.65084
H    -3.29496   0.57950   2.49222
H    -1.90180  -0.52577   2.68353
H    -4.50114   0.88852  -1.47287
H    -4.68218   1.01336   0.31223
H    -4.25987  -0.54641  -0.42333
