54
Generated by autodE on: 2022-06-24. E = -1298.388875 Ha
C     3.65894  -3.05614   0.68374
N     2.76801  -2.13122   0.00859
C     2.54247  -0.89013   0.47371
O     3.16502  -0.41021   1.42546
C     1.45412  -0.09554  -0.28905
C     1.95850   0.26509  -1.68078
O     0.29248  -0.94678  -0.43068
C    -0.75257  -0.50099   0.43834
C    -0.54443  -1.07495   1.86763
O    -0.99189  -0.49700   2.86208
N     0.12723  -2.23473   1.91476
C     0.58127  -2.82744   3.15715
C    -2.09490  -0.98200  -0.08359
C    -3.26626  -0.64777   0.61374
C    -4.51175  -1.06437   0.14054
C    -4.60210  -1.82101  -1.03311
C    -3.43765  -2.15684  -1.72805
C    -2.18824  -1.73957  -1.25684
C    -0.57689   1.02902   0.45568
C    -1.15876   1.69441  -0.79857
C    -0.48238   3.00793  -1.09297
C    -1.09092   4.02966  -1.95064
N    -2.29849   3.72584  -2.49733
O    -0.55853   5.13494  -2.18905
C     0.77068   3.25586  -0.60645
N     1.48773   2.41630   0.17403
C     2.81562   2.76291   0.64834
C     0.95466   1.12452   0.55110
H     3.86512  -3.90536   0.02036
H     4.60693  -2.55896   0.93217
H     3.21389  -3.43668   1.61889
H     2.15846  -2.48682  -0.72158
H     2.91382   0.80479  -1.61752
H     1.23114   0.89702  -2.20700
H     2.11731  -0.65015  -2.26871
H     0.52803  -2.56727   1.04388
H     1.50306  -2.34005   3.51727
H     0.78406  -3.89449   2.99992
H    -0.19265  -2.72053   3.92880
H    -3.19968  -0.06131   1.53131
H    -5.41644  -0.79499   0.69069
H    -5.57712  -2.14640  -1.40336
H    -3.49768  -2.74700  -2.64569
H    -1.28210  -1.99897  -1.80328
H    -1.03039   1.45922   1.35579
H    -2.23799   1.83543  -0.63679
H    -1.07041   1.00812  -1.65954
H    -2.72770   2.81466  -2.40030
H    -2.71981   4.39422  -3.13247
H     1.25701   4.20480  -0.84110
H     3.07667   3.76875   0.29522
H     2.85314   2.75311   1.75036
H     3.57125   2.05082   0.28100
H     1.25142   0.94847   1.59358
