34
Generated by autodE on: 2022-07-27. E = -840.557166 Ha
C     0.33593  -2.47541   2.53443
N     0.08298  -1.85987   1.24521
C    -0.54269  -0.66430   1.16609
O    -1.18240  -0.18953   2.11155
C    -0.54120  -0.02318  -0.18291
O     0.52044  -0.03181  -0.96431
C     1.82420  -0.18814  -0.78250
C     2.60567  -0.28899  -2.05020
C     2.41433   0.04950   0.52695
O     1.75468   0.48359   1.49494
N     3.75252  -0.16141   0.62458
C     4.48031   0.19254   1.82464
C    -1.74583   0.48254  -0.81027
C    -3.02293   0.31628  -0.21999
C    -4.16642   0.79592  -0.85494
C    -4.07857   1.44732  -2.09055
C    -2.82234   1.62059  -2.68525
C    -1.67167   1.15490  -2.05585
H     0.96464  -1.82919   3.16983
H     0.85290  -3.43001   2.37745
H    -0.60619  -2.66809   3.06772
H     0.66950  -2.15067   0.46864
H     1.92945  -0.16814  -2.90789
H     3.10053  -1.27189  -2.15082
H     3.39456   0.48032  -2.11185
H     4.27621  -0.44704  -0.19469
H     5.51224  -0.16845   1.73410
H     4.01968  -0.27040   2.71102
H     4.50276   1.28333   1.99071
H    -3.11272  -0.19034   0.73966
H    -5.14033   0.65390  -0.38025
H    -4.97886   1.82138  -2.58306
H    -2.73836   2.13438  -3.64600
H    -0.69802   1.31469  -2.52055
