34
Generated by autodE on: 2022-06-24. E = -840.567670 Ha
C    -3.19392  -2.86583   1.05288
N    -2.49161  -1.62236   0.80574
C    -1.18735  -1.60389   0.45404
O    -0.49983  -2.64060   0.42388
C    -0.60919  -0.30636   0.04933
O     0.68319  -0.08648   0.27072
C     1.53148  -0.51934   1.17043
C     1.12702  -1.30491   2.34681
C     2.89616   0.00612   1.00205
O     3.78887  -0.25799   1.82859
N     3.12598   0.78201  -0.08381
C     4.42014   1.38533  -0.31719
C    -1.22646   0.69060  -0.81021
C    -2.43192   0.45018  -1.51271
C    -2.97928   1.42483  -2.34483
C    -2.34443   2.66073  -2.51285
C    -1.14782   2.91127  -1.83111
C    -0.59856   1.94919  -0.98689
H    -2.81082  -3.37608   1.95183
H    -3.08636  -3.55659   0.20182
H    -4.25883  -2.64782   1.19979
H    -2.99908  -0.74673   0.87055
H     0.17380  -0.90511   2.74303
H     1.91125  -1.23868   3.11043
H     0.93068  -2.36523   2.10779
H     2.36372   0.96656  -0.72664
H     5.20712   0.62062  -0.42117
H     4.71181   2.05333   0.51000
H     4.37668   1.97176  -1.24306
H    -2.93466  -0.51215  -1.42130
H    -3.90882   1.21049  -2.87777
H    -2.77820   3.42068  -3.16648
H    -0.64223   3.87291  -1.94860
H     0.32346   2.16724  -0.44642
