41
Generated by autodE on: 2022-05-29. E = -1048.697536 Ha
C    -3.34970   3.64755   0.99685
N    -3.01239   2.35131   0.44797
C    -1.76706   2.07478   0.03812
O    -0.84064   2.90353   0.05824
C    -1.49049   0.70800  -0.48065
C    -2.07518  -0.51207  -0.34908
C    -3.30865  -0.93561   0.34194
C    -3.44660  -2.40096   0.63579
O    -4.19575  -0.13874   0.64933
C    -1.05082  -1.48574  -0.94042
O    -0.46472  -0.69879  -1.97731
C    -0.15641   0.44075  -1.16371
C     0.77203  -0.16710  -0.06947
C     0.12169  -1.56907   0.09702
C     1.22343  -2.48658  -0.33662
N     2.33069  -1.94758  -0.67092
C     2.23769  -0.48186  -0.51235
C     2.67656   0.19917  -1.81369
C     3.20719   0.00312   0.58032
O     3.14746   1.16537   0.99950
N     4.11977  -0.88112   1.00329
C     5.13739  -0.53599   1.97545
H    -4.42743   3.68030   1.19810
H    -2.80670   3.84531   1.93633
H    -3.09473   4.45194   0.28952
H    -3.68100   1.57409   0.48480
H    -2.55078  -2.77705   1.15556
H    -4.34328  -2.58053   1.24186
H    -3.52317  -2.95859  -0.31263
H    -1.42094  -2.44252  -1.32119
H     0.25269   1.26638  -1.74977
H     0.75944   0.45665   0.82950
H    -0.24772  -1.81817   1.10144
H     1.09193  -3.57567  -0.36985
H     2.03638  -0.11695  -2.64821
H     2.62053   1.29144  -1.70895
H     3.71525  -0.07725  -2.04769
H     4.09981  -1.80628   0.58484
H     5.83702   0.21768   1.57828
H     4.68331  -0.12539   2.89035
H     5.70323  -1.43885   2.23561
