16
Generated by autodE on: 2022-05-29. E = -380.198690 Ha
C     2.77191   0.84408  -0.56520
N     1.83234   0.24838  -0.06987
C     0.77836  -0.39747   0.28519
C     0.87577  -1.67967   1.06324
C    -0.51289   0.21154  -0.13620
O    -0.56106   1.26539  -0.78851
N    -1.62601  -0.45752   0.23545
C    -2.94654   0.02188  -0.11833
H     3.26878   1.65940  -0.01149
H     0.39045  -2.50842   0.52062
H     1.92708  -1.94675   1.23287
H     0.37992  -1.58825   2.04418
H    -1.54440  -1.32209   0.75736
H    -3.08719   0.04920  -1.21126
H    -3.11780   1.03957   0.26713
H    -3.69643  -0.65053   0.31582
