27
Generated by autodE on: 2022-06-17. E = -815.044350 Ha
C     4.33910  -0.23468   0.67815
O     3.05165  -0.41691   0.07552
C     2.01928   0.13384   0.72449
O     2.11664   0.76398   1.76609
N     0.83105  -0.04118   0.06243
C    -0.43511   0.22451   0.74803
C    -0.98555   1.60792   0.41722
O    -0.26233   2.58868   0.47633
C    -2.40786   1.72666   0.04185
C    -3.13355   0.66457  -0.35614
C    -2.56793  -0.70011  -0.43827
O    -3.13321  -1.57049  -1.07924
C    -1.29746  -1.00265   0.34600
N    -0.37755  -1.90038  -0.37205
N     0.66408  -1.08592  -0.89299
C     0.31078  -0.53407  -2.19986
H     4.58851   0.83435   0.74517
H     5.05187  -0.74680   0.02105
H     4.36601  -0.68022   1.68312
H    -0.25939   0.23475   1.83412
H    -2.81559   2.74070   0.01897
H    -4.15926   0.77695  -0.71726
H    -1.65570  -1.51457   1.25178
H     0.05623  -2.52234   0.31011
H     1.15517   0.06903  -2.55943
H     0.14656  -1.36902  -2.89308
H    -0.59359   0.10308  -2.18587
