15
Generated by autodE on: 2022-06-17. E = -433.372116 Ha
C     3.04351  -0.06965  -0.19646
O     1.76176   0.26253  -0.73420
C     0.69810  -0.00065   0.05538
O     0.81868  -0.50259   1.16445
N    -0.42710   0.42780  -0.60736
N    -1.61581   0.13572  -0.12726
C    -1.86578  -0.82082   0.98361
N    -2.65880   0.63924  -0.63130
H     3.77546   0.21331  -0.96275
H     3.11548  -1.14799   0.01070
H     3.23717   0.48905   0.73165
H    -2.94633  -0.98048   1.01602
H    -1.49635  -0.38176   1.91521
H    -1.32558  -1.75084   0.77976
H    -2.33610   1.27404  -1.37842
