12
Generated by autodE on: 2022-06-17. E = -381.636098 Ha
O     0.00696  -2.66450   0.10352
C     0.00374  -1.43880   0.05628
C    -1.26710  -0.67514   0.02394
C    -1.27055   0.66829  -0.02968
C    -0.00374   1.43880  -0.05625
O    -0.00696   2.66450  -0.10353
C     1.26710   0.67514  -0.02394
C     1.27055  -0.66829   0.02968
H    -2.18708  -1.26393   0.04479
H    -2.19358   1.25212  -0.05482
H     2.18708   1.26393  -0.04481
H     2.19358  -1.25212   0.05481
