27
Generated by autodE on: 2022-06-17. E = -814.986081 Ha. Imaginary frequency = -432.8 cm-1
C     4.15135  -0.76528   0.95487
O     2.98362  -0.64172   0.13222
C     2.11659   0.32040   0.47702
O     2.28702   1.07993   1.41261
N     1.06202   0.43961  -0.42107
C    -0.61944   0.57380   0.89337
C    -1.36629   1.67120   0.24202
O    -1.07213   2.85119   0.41517
C    -2.53551   1.30607  -0.60105
C    -2.99442   0.04421  -0.66287
C    -2.35863  -1.05438   0.10726
O    -2.88313  -2.16347   0.16167
C    -1.08029  -0.76361   0.81230
N     0.24229  -1.61715  -0.35589
N     0.67219  -0.62286  -1.09674
C     0.16914  -0.37189  -2.45436
H     4.74252   0.16163   0.92973
H     4.73002  -1.59359   0.52940
H     3.87042  -0.99284   1.99336
H    -0.00667   0.88730   1.73722
H    -3.01237   2.12571  -1.14404
H    -3.86811  -0.23037  -1.25898
H    -0.87579  -1.43652   1.64552
H    -0.25559  -2.28725  -0.95757
H    -0.08072  -1.33176  -2.92163
H     0.96127   0.12781  -3.02432
H    -0.71984   0.27082  -2.41131
