34
Generated by autodE on: 2022-05-26. E = -1118.334632 Ha
C     0.92713  -0.95012   2.34221
N     0.50685   0.42894   2.51950
C     0.02422   1.26656   1.59207
O    -0.36823   2.41301   1.83575
C    -0.08435   0.77032   0.18158
C     0.85684   0.69411  -0.78027
C     2.32677   0.93741  -0.64873
F     2.60747   1.74784   0.38323
F     3.00132  -0.21174  -0.44734
F     2.83433   1.49908  -1.76003
C     0.16513   0.20425  -1.98907
C     0.79688  -0.01053  -3.26460
N     1.30950  -0.18847  -4.29037
N    -1.09297  -0.01655  -1.81844
C    -1.40914   0.32644  -0.42929
C    -2.43414   1.47550  -0.45430
C    -1.89609  -0.90487   0.34800
C    -2.60504  -0.74334   1.54658
C    -2.95802  -1.85637   2.31428
C    -2.60776  -3.14268   1.89429
C    -1.90102  -3.30834   0.69990
C    -1.54372  -2.19676  -0.06696
H     1.92800  -1.09752   2.77354
H     0.97157  -1.20332   1.27816
H     0.22432  -1.64031   2.83417
H     0.51164   0.80460   3.46672
H    -2.62387   1.84759   0.55871
H    -3.37329   1.11467  -0.89520
H    -2.04380   2.30712  -1.05727
H    -2.87448   0.25313   1.89811
H    -3.50873  -1.71350   3.24681
H    -2.88445  -4.01196   2.49524
H    -1.62159  -4.30875   0.36136
H    -0.98261  -2.33842  -0.99098
