14
Generated by autodE on: 2022-05-26. E = -622.674902 Ha
C    -2.62453   1.78586  -0.77067
N    -2.98486   0.39288  -0.58245
C    -2.17537  -0.62946  -0.26402
O    -2.55057  -1.79639  -0.12071
C    -0.75618  -0.30978  -0.07947
C     0.43043  -0.15331   0.09569
C     1.86433   0.05979   0.31046
F     2.51253  -1.09997   0.49591
F     2.08315   0.82326   1.39177
F     2.42729   0.67383  -0.74127
H    -3.17357   2.42601  -0.06361
H    -1.54999   1.92373  -0.60108
H    -2.86069   2.11269  -1.79475
H    -3.96284   0.13345  -0.70239
