20
Generated by autodE on: 2022-05-26. E = -495.526425 Ha
C     0.93176   2.43129   0.34904
C     0.59060   1.01172  -0.01085
N     1.52108   0.23453  -0.40990
C     2.35320  -0.50170  -0.95291
C     3.21094  -1.39774  -0.28452
N     3.98776  -2.18581   0.09544
C    -0.78923   0.49559   0.08826
C    -1.09400  -0.83733  -0.25382
C    -2.40259  -1.30726  -0.16746
C    -3.42992  -0.46011   0.26566
C    -3.13656   0.86225   0.61016
C    -1.82780   1.34052   0.52335
H     0.35330   3.12956  -0.27623
H     2.00197   2.62188   0.20151
H     0.67431   2.63273   1.40057
H    -0.30062  -1.50899  -0.58734
H    -2.62309  -2.34268  -0.43678
H    -4.45473  -0.83164   0.33576
H    -3.93180   1.52980   0.94955
H    -1.61852   2.37568   0.79400
