34
Generated by autodE on: 2022-05-26. E = -1118.212586 Ha. Imaginary frequency = -136.5 cm-1
C     0.53520  -1.01780   2.76220
N    -0.05913   0.29972   2.86623
C    -0.00570   1.29320   1.95652
O    -0.58733   2.38178   2.11532
C     0.77999   1.05859   0.76767
C     1.44325   0.93783  -0.25983
C     2.69287   0.98024  -1.03438
F     3.72005   1.39933  -0.27424
F     3.02556  -0.23100  -1.51743
F     2.61212   1.81442  -2.08657
C     0.10535   0.20092  -2.00081
C     0.44916  -0.12762  -3.32308
N     0.90388  -0.35872  -4.37408
N    -0.99582   0.16648  -1.45229
C    -1.82909   0.25825  -0.47444
C    -2.61252   1.52781  -0.31515
C    -2.07899  -0.92601   0.36280
C    -2.90238  -0.81774   1.49896
C    -3.11669  -1.92639   2.31889
C    -2.52431  -3.15513   2.01327
C    -1.70841  -3.27160   0.88100
C    -1.48361  -2.16797   0.06304
H     1.37700  -1.13592   3.46417
H     0.90693  -1.18419   1.74422
H    -0.21656  -1.78778   2.98396
H    -0.64846   0.49914   3.67121
H    -2.41778   1.95459   0.68070
H    -3.69153   1.32620  -0.39876
H    -2.31730   2.26101  -1.07553
H    -3.36585   0.13560   1.75248
H    -3.75137  -1.82808   3.20221
H    -2.69856  -4.02209   2.65439
H    -1.24459  -4.22948   0.63586
H    -0.84930  -2.26974  -0.81935
