37
Generated by autodE on: 2022-05-29. E = -1285.314765 Ha
C    -2.21666  -0.49096   2.17732
C    -1.89185   0.51128   1.11205
O    -2.22582   1.68207   1.21534
C    -1.14604   0.10466  -0.18390
C    -2.03634   0.66636  -1.33136
C    -3.49737   0.30739  -1.29773
O    -1.57145   1.37226  -2.20198
C     0.29522   0.71676  -0.24790
C     0.72519   1.72274   0.85806
C     2.12452   2.21211   0.51650
C     2.94527   1.19365   0.79727
C     2.03475   0.07746   1.29796
O     0.99172   0.81517   1.95381
C     1.23644  -0.47384   0.07373
Cl    2.35964  -0.88113  -1.30409
C     0.27658  -1.63697   0.41237
C     0.82229  -3.04571   0.28278
N    -0.97836  -1.36031  -0.32028
C    -0.98401  -1.83356  -1.70797
H    -3.08052  -0.13534   2.75457
H    -1.35179  -0.55215   2.85827
H    -2.39540  -1.48905   1.76247
H    -3.88176   0.22192  -2.32305
H    -3.68878  -0.61263  -0.73005
H    -4.03460   1.13065  -0.79922
H     0.45002   1.12444  -1.25069
H    -0.01734   2.47416   1.13541
H     2.35550   3.17273   0.05594
H     4.01800   1.10861   0.63047
H     2.46003  -0.69152   1.95255
H     0.04476  -1.48462   1.47547
H     1.15541  -3.28125  -0.73595
H     1.68680  -3.15966   0.95393
H     0.05823  -3.77727   0.58545
H    -0.79748  -2.91464  -1.72219
H    -0.23690  -1.34895  -2.36178
H    -1.97786  -1.68534  -2.15218
