24
Generated by autodE on: 2022-05-29. E = -518.109414 Ha
C    -3.32457  -0.18190  -0.45972
C    -1.87008  -0.04137  -0.68261
N    -1.01447   0.17630   0.26480
C    -1.46647   0.28234   1.66131
C     0.39514   0.03765  -0.00460
C     0.76674  -1.25670  -0.51402
C     2.23395  -1.58621  -0.68984
O    -0.08230  -2.12333  -0.81490
C     1.25962   1.14429   0.26594
C     0.63544   2.45622   0.72235
O     2.50257   1.10389   0.13688
H    -3.73839   0.74991  -0.03619
H    -3.52917  -0.98072   0.27275
H    -3.83880  -0.40614  -1.40153
H    -1.45906  -0.10207  -1.69245
H    -2.22460   1.07054   1.75876
H    -1.90163  -0.67925   1.97374
H    -0.60729   0.50845   2.29781
H     2.79372  -1.45158   0.24669
H     2.31481  -2.62684  -1.03336
H     2.69825  -0.91439  -1.42696
H     0.60138   2.48590   1.82442
H     1.28315   3.27945   0.38953
H    -0.38492   2.61848   0.34888
