24
Generated by autodE on: 2022-07-26. E = -518.110526 Ha
C     2.55697  -2.14662   0.49063
C     1.70406  -0.94010   0.48077
N     0.60388  -0.84115  -0.19007
C     0.15347  -1.94539  -1.05219
C    -0.26113   0.30657  -0.03224
C    -0.87797   0.52291   1.24103
C    -0.66131  -0.49737   2.35354
O    -1.60499   1.50914   1.48881
C    -0.42069   1.07863  -1.22864
C    -1.32292   2.29269  -1.22689
O     0.17498   0.76282  -2.28314
H     2.95113  -2.34122  -0.52223
H     3.39603  -2.01935   1.18429
H     1.96897  -3.03495   0.77765
H     1.97987  -0.06240   1.07210
H    -0.11871  -2.80356  -0.41920
H     0.95599  -2.24442  -1.73875
H    -0.71996  -1.61590  -1.61965
H    -1.50989  -0.42171   3.04731
H     0.25539  -0.26121   2.91867
H    -0.57585  -1.53264   1.99395
H    -1.32764   2.72057  -2.23934
H    -2.34764   2.02922  -0.92551
H    -0.97317   3.04554  -0.50504
