13
Generated by autodE on: 2022-05-29. E = -767.141593 Ha
Cl    2.16031  -0.71444   0.39755
C     0.59371  -0.00269   0.32039
C    -0.29108   0.24589   1.28877
C    -1.53237   0.75100   0.51542
C    -2.11387  -0.45137  -0.26848
C    -1.21895  -0.70469  -1.22722
C    -0.10822   0.35166  -1.01398
O    -0.89306   1.46807  -0.56533
H    -0.22906   0.06113   2.35925
H    -2.23697   1.38168   1.06814
H    -3.03116  -0.98057  -0.01218
H    -1.19599  -1.49657  -1.97491
H     0.54017   0.59876  -1.86112
