65
Generated by autodE on: 2022-10-24. E = -1549.722638 Ha
C    -4.92089  -6.23391   8.89857
N    -3.94217  -7.17458   8.39027
C    -4.00780  -7.66405   7.14693
O    -4.95266  -7.43590   6.38551
C    -2.77727  -8.51084   6.69271
C    -2.78938  -9.98795   7.17334
C    -3.51302 -10.31851   8.44337
O    -2.08653 -10.79862   6.59897
C    -2.62660  -8.30969   5.16064
C    -1.82027  -7.22968   5.01162
N    -1.41903  -6.77259   6.32156
C    -1.54696  -5.48230   6.80387
C    -1.12566  -5.25640   8.23489
O    -1.95169  -4.56020   6.10439
N    -1.57119  -7.84143   7.24743
C    -0.33188  -8.62225   7.31728
C    -1.20645  -6.47888   3.80139
O    -0.71422  -7.36665   2.81739
C     0.46640  -8.08506   3.16330
O    -0.11431  -5.77518   4.36412
C     0.58296  -4.85674   3.53910
C    -2.20591  -5.52519   3.11884
C    -3.21825  -6.10440   2.13322
C    -4.15788  -7.17257   2.69211
C    -3.50374  -8.56758   2.76169
C    -3.36061  -9.19758   4.17035
C    -4.74686  -9.61957   4.75946
C    -6.01138  -9.35653   3.99572
O    -4.79562 -10.23422   5.81170
C    -2.53796 -10.50219   3.87605
C    -3.28301 -11.79200   3.67936
O    -1.33822 -10.42955   3.71365
H    -5.93787  -6.64266   8.80528
H    -4.71077  -6.03897   9.95731
H    -4.88137  -5.28135   8.34418
H    -3.06525  -7.30386   8.88581
H    -4.56687 -10.01427   8.39710
H    -3.43747 -11.39724   8.63081
H    -3.04398  -9.76935   9.27631
H    -2.01054  -5.29864   8.88868
H    -0.39047  -5.98478   8.59512
H    -0.71570  -4.23923   8.30072
H     0.47411  -7.92822   7.58850
H    -0.07652  -9.12378   6.36923
H    -0.41612  -9.37442   8.11163
H     1.36174  -7.44895   3.07865
H     0.41458  -8.49737   4.18085
H     0.54823  -8.91566   2.45088
H     0.11019  -3.86041   3.54911
H     1.59567  -4.76638   3.95841
H     0.66446  -5.20918   2.49886
H    -2.72584  -4.99221   3.92436
H    -1.61270  -4.77659   2.57637
H    -3.82009  -5.25313   1.77456
H    -2.69561  -6.50268   1.24793
H    -5.04932  -7.22977   2.05007
H    -4.51422  -6.85337   3.68382
H    -4.05307  -9.28069   2.13185
H    -2.49537  -8.50933   2.34318
H    -6.18659  -8.27551   3.91493
H    -5.94920  -9.75533   2.97308
H    -6.84748  -9.82456   4.52989
H    -3.56138 -12.19627   4.66402
H    -2.63456 -12.51120   3.16276
H    -4.21372 -11.63944   3.11299
