27
Generated by autodE on: 2022-10-24. E = -702.910363 Ha
C    -2.21776   1.95682  -1.61475
N    -1.69206   0.73154  -1.04307
C    -0.81871   0.76080  -0.02755
O    -0.49626   1.79306   0.56604
C    -0.29035  -0.57938   0.43072
C    -1.25690  -1.68354   0.72521
C    -2.66123  -1.29747   1.10689
O    -0.91388  -2.85438   0.64740
N     0.99785  -0.70879   0.71617
C     1.52033  -1.86481   1.48283
N     1.95789   0.17258   0.45138
C     1.92431   0.85165  -0.73705
C     2.91517   1.98108  -0.80465
O     1.19237   0.57601  -1.69593
H    -2.99341   1.70383  -2.34757
H    -1.42168   2.53213  -2.11617
H    -2.65823   2.58891  -0.83035
H    -1.81907  -0.14014  -1.54952
H    -3.27078  -1.16904   0.19818
H    -3.09574  -2.11542   1.69703
H    -2.69387  -0.35509   1.67219
H     2.44432  -1.51711   1.95257
H     0.80142  -2.19652   2.23654
H     1.73924  -2.68278   0.78593
H     3.26114   2.11774  -1.83861
H     3.76406   1.83046  -0.12563
H     2.38606   2.90060  -0.49845
