38
Generated by autodE on: 2022-10-24. E = -846.736318 Ha
C     0.74572   3.90494  -2.14171
O     1.09372   2.71541  -1.44225
C     0.16713   1.65202  -1.52600
O     0.02308   1.20273  -2.85633
C     1.20813   0.71001  -3.46641
C     0.63919   0.57058  -0.63767
C     0.52550  -0.33712   0.15630
C    -0.09399  -1.25913   1.10007
C     0.22519  -0.84978   2.57457
C     1.58193  -0.27160   2.83824
O    -0.59937  -1.03295   3.44590
C     0.46163  -2.69937   0.93653
C    -0.31218  -3.81202   1.57751
O     1.48816  -2.88375   0.31172
C    -1.62778  -1.20160   0.83028
C    -2.21546   0.21439   0.65528
C    -2.20192   0.84774  -0.76572
C    -1.24693   2.02946  -1.03229
H     1.65282   4.52405  -2.17786
H     0.42062   3.68970  -3.17201
H    -0.04712   4.47028  -1.62438
H     0.93458   0.38543  -4.47935
H     1.61493  -0.15232  -2.90925
H     1.98531   1.48835  -3.53151
H     1.78742  -0.26928   3.91630
H     2.35484  -0.83242   2.29072
H     1.60751   0.76264   2.45812
H    -1.22771  -3.99659   0.99193
H     0.29612  -4.72540   1.58950
H    -0.63055  -3.54273   2.59487
H    -2.12121  -1.69589   1.67746
H    -1.84139  -1.80146  -0.06776
H    -3.26906   0.13689   0.96483
H    -1.74928   0.90253   1.38031
H    -3.21675   1.22643  -0.96023
H    -2.03146   0.06839  -1.52655
H    -1.68465   2.68065  -1.80375
H    -1.12401   2.63395  -0.12025
