65
Generated by autodE on: 2022-10-24. E = -1549.625367 Ha. Imaginary frequency = -227.1 cm-1
C    -4.97930  -6.53093   9.27224
N    -4.01057  -7.52021   8.83684
C    -3.57153  -7.53614   7.56721
O    -4.06867  -6.83192   6.68956
C    -2.41287  -8.51764   7.32326
C    -2.58925 -10.01217   7.53846
C    -3.50325 -10.51507   8.61753
O    -1.91411 -10.78111   6.87374
C    -2.47264  -8.25267   4.84760
C    -1.55245  -7.43659   4.68328
N    -0.92992  -6.82241   6.79154
C    -1.40109  -5.68344   7.36740
C    -1.41530  -4.46837   6.48136
O    -1.77117  -5.62136   8.54954
N    -1.17382  -8.02020   7.32540
C     0.03824  -8.85137   7.39697
C    -0.71213  -6.67432   3.70296
O    -0.21807  -7.57725   2.72261
C     0.76994  -8.49237   3.18020
O     0.36664  -6.06147   4.37266
C     1.23138  -5.24496   3.59492
C    -1.59234  -5.65323   2.95995
C    -2.70132  -6.18245   2.04447
C    -3.90881  -6.89296   2.68560
C    -3.80738  -8.42999   2.79030
C    -3.56722  -9.02537   4.21809
C    -4.84904  -9.05886   5.10305
C    -6.10750  -8.40302   4.62674
O    -4.82074  -9.67076   6.15378
C    -3.20671 -10.51261   3.93988
C    -1.77875 -10.84975   3.64027
O    -4.10006 -11.33790   3.88717
H    -5.85398  -6.53826   8.60743
H    -4.53992  -5.51952   9.26004
H    -5.30163  -6.77286  10.29264
H    -3.43858  -7.96372   9.54858
H    -4.49942 -10.06419   8.56700
H    -3.57337 -11.60709   8.53281
H    -3.06354 -10.25667   9.59681
H    -1.34375  -3.56651   7.10375
H    -2.38371  -4.44974   5.95466
H    -0.61882  -4.49853   5.73080
H     0.84169  -8.19568   7.74891
H     0.28414  -9.22560   6.39350
H    -0.09507  -9.68730   8.08889
H     1.73284  -7.99188   3.36998
H     0.45153  -9.00518   4.10093
H     0.90523  -9.23732   2.38456
H     0.83207  -4.22452   3.47187
H     2.18179  -5.18419   4.14419
H     1.42451  -5.67873   2.60129
H    -0.91968  -5.04459   2.33832
H    -2.01984  -4.98503   3.72136
H    -3.08216  -5.29841   1.50790
H    -2.25949  -6.83176   1.27131
H    -4.79024  -6.67081   2.06524
H    -4.11352  -6.44548   3.67008
H    -2.97374  -8.76729   2.15779
H    -4.70769  -8.90981   2.38184
H    -6.86654  -8.45902   5.41696
H    -5.93000  -7.35843   4.33919
H    -6.47067  -8.93100   3.72999
H    -1.17564 -10.69367   4.54522
H    -1.38356 -10.18057   2.86400
H    -1.70719 -11.89532   3.31467
