37
Generated by autodE on: 2022-10-21. E = -1306.238337 Ha
C    -3.67358  -0.96276  -2.94295
N    -3.04369  -0.54286  -1.70575
C    -1.81464  -0.02337  -1.69215
O    -1.13184   0.17832  -2.69303
C    -1.21536   0.26673  -0.27167
C    -2.29890   0.59574   0.78711
O    -3.19517  -0.21832   1.03289
N    -2.16218   1.78483   1.37524
C    -3.06257   2.28944   2.39273
N    -0.23333   1.32557  -0.37953
C     0.91699   0.80027  -0.11987
C     2.16668   1.61698  -0.29186
O     3.09595   1.24635  -0.97587
O     2.09907   2.77833   0.34388
C     3.22333   3.66424   0.18736
C     0.88993  -0.62073   0.23217
C     2.07511  -1.40193   0.69188
F     3.04364  -0.58596   1.15149
F     1.77554  -2.24163   1.70401
F     2.63289  -2.15690  -0.27877
C    -0.43289  -0.98336   0.13480
O    -1.10847  -2.09646   0.25019
C    -0.48254  -3.38763   0.36108
H    -3.69069  -0.13863  -3.67179
H    -4.70436  -1.26966  -2.72868
H    -3.13668  -1.81033  -3.39938
H    -3.48956  -0.72096  -0.80493
H    -1.38340   2.35936   1.06097
H    -3.83444   1.53776   2.59359
H    -2.51466   2.49885   3.32396
H    -3.54617   3.21888   2.05558
H     3.34826   3.93376  -0.87084
H     2.98996   4.55257   0.78445
H     4.13951   3.18220   0.55665
H     0.35171  -3.46679  -0.34943
H    -1.26322  -4.11262   0.10446
H    -0.13661  -3.55281   1.38829
