26
Generated by autodE on: 2022-10-21. E = -776.974360 Ha
C    -2.34827  -3.18407  -0.00605
N    -1.42887  -2.06632  -0.10026
C    -1.87331  -0.79611  -0.08852
O    -3.08344  -0.52541   0.00602
C    -0.84644   0.27799  -0.19557
N     0.38679  -0.05349  -0.41231
C     1.50866  -0.34265  -0.70485
C     2.70447  -0.85907  -0.04439
O     2.80644  -2.03337   0.24538
O     3.62466   0.08012   0.11530
C     4.86445  -0.33129   0.72657
C    -1.10653   1.74647  -0.07099
O    -0.17077   2.55462  -0.14713
N    -2.38556   2.10329   0.12178
C    -2.76976   3.49276   0.24875
H    -1.77805  -4.11631  -0.09474
H    -2.88457  -3.18545   0.95666
H    -3.09759  -3.14701  -0.81147
H    -0.43275  -2.25788  -0.10768
H     5.49151   0.56628   0.75553
H     4.68083  -0.70382   1.74403
H     5.34163  -1.11515   0.12198
H    -3.07410   1.34778   0.13718
H    -3.84865   3.54677   0.43893
H    -2.23889   3.97939   1.08250
H    -2.54406   4.06137  -0.66849
