44
Generated by autodE on: 2022-06-06. E = -4070.833649 Ha
C     0.54690  -3.04291  -1.58093
C     0.01648  -1.71927  -2.04501
O    -0.64300  -1.56645  -3.04663
C     0.50620  -0.48987  -1.25114
O     0.71083   0.63012  -2.18134
C     1.65648   1.38903  -1.58080
O     2.05251   2.44105  -1.99447
C     2.03709   0.58751  -0.29844
C     3.49485   0.73305   0.13804
C     4.18867  -0.53452   0.52795
O     4.03670   1.81853   0.09605
O     1.79677  -0.73183  -0.78192
C     0.78957   0.81616   0.64563
C    -0.19829   0.13358   0.00579
C    -1.69245   0.00747   0.11602
Cl   -2.36571   0.55213  -1.49999
Br   -2.11956  -1.96544   0.29718
C    -2.53503   0.74200   1.15275
C    -2.38281   0.35737   2.62100
C    -0.95865   0.48420   3.15200
C    -0.31982   1.82192   2.74725
C     0.93985   1.71182   1.86864
C     2.06299   1.14877   2.77633
C     1.30795   3.13323   1.38814
H    -0.08964  -3.84831  -1.96881
H     1.55900  -3.15542  -2.00766
H     0.64158  -3.10412  -0.49011
H     3.57643  -1.11028   1.23780
H     4.31207  -1.15951  -0.37189
H     5.17216  -0.30075   0.95407
H    -2.33160   1.81171   0.99999
H    -3.58051   0.58985   0.85300
H    -3.04836   1.03382   3.18277
H    -2.76508  -0.66175   2.78332
H    -0.35405  -0.35790   2.77828
H    -0.97052   0.37365   4.24676
H    -0.01596   2.38625   3.64052
H    -1.05164   2.46508   2.24072
H     3.06405   1.23325   2.34173
H     2.07945   1.73160   3.70891
H     1.88233   0.09568   3.03595
H     2.24605   3.15569   0.81982
H     0.50732   3.54438   0.75482
H     1.42501   3.78789   2.26552
