26
Generated by autodE on: 2022-06-06. E = -3424.030655 Ha
C    -1.69293  -3.15015  -1.42416
C    -0.27744  -2.56833  -1.59759
C     0.74211  -3.70681  -1.75709
C     0.04577  -1.69002  -0.47202
C     0.22646  -0.69327   0.19823
C     0.30521   0.72976   0.39234
Cl    2.05660   1.25969   0.37731
Br   -0.46229   1.27181   2.16387
C    -0.46632   1.44215  -0.73085
C    -0.13427   0.95864  -2.15860
C    -0.92543  -0.25200  -2.73085
C    -0.21149  -1.61664  -2.83807
H    -1.74990  -3.77556  -0.52043
H    -1.94145  -3.77591  -2.29539
H    -2.44825  -2.35513  -1.33962
H     1.76631  -3.31293  -1.83996
H     0.51682  -4.28080  -2.66932
H     0.70147  -4.39430  -0.89845
H    -0.26551   2.51935  -0.63524
H    -1.53848   1.29038  -0.53143
H     0.95066   0.78211  -2.24321
H    -0.34160   1.82141  -2.80984
H    -1.87683  -0.36460  -2.18436
H    -1.21506   0.01941  -3.75782
H     0.85026  -1.44572  -3.08103
H    -0.63902  -2.18291  -3.68218
