31
Generated by autodE on: 2022-06-16. E = -464.689264 Ha
C     1.97568   0.68226   1.19442
C     1.43607   0.20762  -0.15304
C     0.23986   0.99661  -0.72319
C     0.30281   2.51198  -0.58823
C    -1.00058   0.28925  -0.09873
C    -1.53518   1.01271   1.14779
C    -2.14141   0.20020  -1.12091
N    -0.48723  -1.09338   0.18371
C    -0.81277  -1.69214   1.46339
N     0.92904  -1.17530  -0.08441
C     1.15480  -1.91881  -1.31955
H     2.36537   1.70975   1.12732
H     2.80161   0.02767   1.51296
H     1.20927   0.65953   1.98191
H     2.26817   0.23205  -0.87328
H     0.21393   0.76741  -1.80071
H    -0.58057   2.98655  -1.04500
H     1.19257   2.90415  -1.10710
H     0.35677   2.84304   0.45866
H    -0.77930   1.13086   1.93469
H    -1.89203   2.01482   0.87069
H    -2.39231   0.47387   1.57662
H    -3.00245  -0.34249  -0.69790
H    -2.48879   1.20473  -1.41520
H    -1.81125  -0.33273  -2.02516
H    -1.90402  -1.70456   1.60408
H    -0.35757  -1.19089   2.34123
H    -0.47531  -2.73991   1.46586
H     2.23714  -2.04294  -1.48065
H     0.72376  -1.43724  -2.22070
H     0.71204  -2.92137  -1.22830
