30
Generated by autodE on: 2022-10-20. E = -800.962284 Ha
C    -2.03708  -2.99495  -0.12940
O    -0.89238  -2.15692   0.08117
C    -1.01743  -0.83704  -0.08166
C    -0.01587   0.04375  -0.30222
C     1.41587  -0.23456  -0.48375
C     1.85108  -1.49969  -0.93459
C     3.20746  -1.76874  -1.11286
C     4.16751  -0.78708  -0.84491
C     3.75267   0.46999  -0.39822
C     2.39533   0.74563  -0.22138
C    -0.62533   1.44383  -0.32067
C    -0.31327   2.27519  -1.56141
C    -0.26567   2.20056   0.91102
N    -0.00074   2.79015   1.87448
O    -2.05028   1.22806  -0.28669
C    -2.34473  -0.10961   0.06124
C    -2.87896  -0.19229   1.44029
N    -3.29811  -0.24421   2.52033
H    -1.68633  -4.02490   0.00564
H    -2.82708  -2.78451   0.60770
H    -2.42815  -2.86911  -1.15021
H     1.11719  -2.27417  -1.15252
H     3.51683  -2.75471  -1.46801
H     5.22970  -1.00070  -0.98438
H     4.48949   1.24721  -0.18247
H     2.11017   1.73393   0.13946
H    -0.90293   3.20284  -1.53894
H     0.75255   2.53327  -1.60869
H    -0.58460   1.68843  -2.44986
H    -3.12164  -0.49697  -0.61907
