18
Generated by autodE on: 2022-10-20. E = -423.102473 Ha
C     4.22828   0.11354   0.29608
O     3.28400  -0.92835  -0.05380
C     2.03179  -0.59642  -0.04074
C     0.84513  -0.32691  -0.04040
C    -0.55079  -0.01279  -0.03924
C    -1.51244  -1.00401  -0.33230
C    -2.87234  -0.69299  -0.32913
C    -3.30181   0.60571  -0.03504
C    -2.35693   1.59554   0.25670
C    -0.99480   1.29451   0.25571
H     5.22211  -0.34361   0.22865
H     4.14104   0.94897  -0.41403
H     4.03482   0.46233   1.32112
H    -1.18103  -2.01873  -0.56177
H    -3.60322  -1.47240  -0.55794
H    -4.36762   0.84521  -0.03324
H    -2.68320   2.61257   0.48740
H    -0.26025   2.06959   0.48339
