12
Generated by autodE on: 2022-10-20. E = -377.711456 Ha
C    -1.23717  -0.68677  -0.71551
C    -0.61106   0.53231  -0.15250
C    -1.24398   1.79609  -0.14985
N    -1.80020   2.82328  -0.16667
O     0.57463   0.55162   0.39535
C     1.49284  -0.36637   0.60213
C     1.40542  -1.71747   0.23605
N     1.44092  -2.85862  -0.02428
H    -1.34365  -1.46609   0.05862
H    -0.62307  -1.10290  -1.53252
H    -2.23110  -0.44305  -1.11101
H     2.38026   0.01649   1.10422
