30
Generated by autodE on: 2022-10-20. E = -800.817257 Ha. Imaginary frequency = -264.2 cm-1
C    -1.76006  -3.37407   1.12673
O    -2.14133  -2.10357   0.55225
C    -1.13366  -1.35338   0.17737
C     0.03175  -1.01064  -0.04667
C     1.40607  -0.74950  -0.34490
C     1.89485  -0.90123  -1.66130
C     3.23272  -0.63917  -1.95430
C     4.10774  -0.21819  -0.94673
C     3.63448  -0.06412   0.36124
C     2.29886  -0.32741   0.66489
C    -0.50239   1.63725  -0.59669
C     0.43738   2.15778  -1.62274
C    -0.24632   1.85592   0.77971
N     0.08341   2.06480   1.88017
O    -1.64332   1.15795  -1.02424
C    -2.57769   0.49093  -0.36123
C    -2.91338   0.76010   0.98348
N    -3.25403   0.94022   2.08646
H    -1.13968  -3.20816   2.02038
H    -2.69437  -3.87995   1.39841
H    -1.20397  -3.96874   0.38636
H     1.20998  -1.22019  -2.44919
H     3.59477  -0.76148  -2.97789
H     5.15495  -0.01208  -1.17945
H     4.31266   0.26253   1.15321
H     1.92982  -0.20308   1.68383
H     0.32077   3.24780  -1.75650
H     1.47393   1.96703  -1.30811
H     0.24951   1.65664  -2.58211
H    -3.33383   0.05420  -1.01337
