22
Generated by autodE on: 2023-01-01. E = -513.064661 Ha
C    -1.37810   1.64920   1.61914
C    -1.15207   1.98843   0.20410
N    -0.77001   1.14632  -0.71598
C    -0.76047   1.56525  -2.12772
C    -0.28336  -0.15084  -0.42497
C    -0.63074  -1.19078  -1.29614
N    -0.90943  -2.08629  -2.00308
C     0.75847  -0.30931   0.58079
O     1.31022   0.66095   1.13914
N     1.11941  -1.58866   0.89116
C     2.29879  -1.86171   1.68527
H    -2.18745   2.27841   2.01757
H    -1.61962   0.58049   1.73369
H    -0.46750   1.84006   2.21186
H    -1.34440   3.00781  -0.14088
H    -1.34454   0.84564  -2.71681
H    -1.21309   2.55850  -2.22157
H     0.27473   1.57282  -2.49406
H     0.72506  -2.35049   0.35028
H     3.23433  -1.58119   1.16860
H     2.26442  -1.30996   2.63613
H     2.33622  -2.93575   1.90873
