22
Generated by autodE on: 2022-12-30. E = -513.061836 Ha
C     2.83265   1.90309   0.85911
C     1.55676   1.42037   0.28197
N     1.34826   0.21407  -0.16209
C     2.44233  -0.76996  -0.22531
C     0.03750  -0.24615  -0.45670
C    -0.12343  -1.18966  -1.47553
N    -0.30197  -1.97984  -2.32702
C    -1.06297   0.13300   0.41860
O    -0.92689   0.90427   1.39229
N    -2.28522  -0.40093   0.12691
C    -3.40899  -0.22465   1.02174
H     3.47961   2.30559   0.05756
H     3.39263   1.11915   1.38712
H     2.62402   2.73183   1.55039
H     0.71091   2.10317   0.21455
H     3.39613  -0.26809  -0.41591
H     2.23856  -1.46951  -1.04357
H     2.48597  -1.32770   0.72108
H    -2.34029  -1.14307  -0.56221
H    -3.28916  -0.77432   1.97278
H    -4.31941  -0.58692   0.52644
H    -3.54499   0.83885   1.26646
