28
Generated by autodE on: 2022-12-30. E = -724.035834 Ha
C     2.51631  -2.94182  -0.19193
N     1.78346  -1.76991   0.23640
C     0.68913  -1.35253  -0.43268
O     0.18215  -2.04115  -1.33835
C     0.12322  -0.02139  -0.06115
C     1.02603   1.03507   0.47687
O     2.10263   0.73851   1.04551
N     0.68133   2.33274   0.35585
C     1.48412   3.38188   0.94897
C    -1.22492   0.19606  -0.29687
O    -1.69881   1.43128  -0.44577
C    -3.10390   1.69143  -0.26789
O    -2.17547  -0.71752  -0.39542
C    -2.13968  -1.96542   0.31338
H     2.90500  -2.83834  -1.22019
H     1.87805  -3.83840  -0.16895
H     3.36353  -3.10077   0.48740
H     2.22336  -1.05651   0.82423
H    -0.20206   2.56076  -0.08489
H     2.49820   3.40755   0.51882
H     0.99840   4.34684   0.75737
H     1.58823   3.24868   2.03832
H    -3.19664   2.78355  -0.26231
H    -3.68077   1.26783  -1.10056
H    -3.45582   1.27449   0.68569
H    -1.77051  -2.75883  -0.34544
H    -1.49201  -1.88288   1.19760
H    -3.17439  -2.16517   0.62042
