50
Generated by autodE on: 2022-12-30. E = -1237.067488 Ha. Imaginary frequency = -493.3 cm-1
C     3.26486  -1.27869   2.12499
N     2.46876  -0.94118   0.95985
C     2.47575   0.30550   0.47032
O     3.22665   1.20338   0.85957
C     1.58065   0.55518  -0.72917
C     1.97083  -0.15693  -1.88966
N     2.31915  -0.79375  -2.80280
N     0.81432   1.65743  -0.86101
C     0.52767   2.15211  -2.22311
C     0.01158   2.11365   0.16834
C     0.48170   2.07689   1.59666
C    -1.53328   0.87309   0.09198
O    -2.20502   1.18234   1.26707
C    -2.84624   2.45365   1.39217
O    -2.16678   1.41757  -0.99887
C    -3.42411   0.82192  -1.34847
C    -0.98330  -0.47446   0.03801
C    -0.85203  -1.15305  -1.29101
O    -1.01412  -0.57031  -2.38250
N    -0.59461  -2.48304  -1.29325
C    -0.41080  -3.20495  -2.53292
C    -0.65139  -1.23633   1.26449
O     0.02444  -2.30682   1.22524
N    -1.04253  -0.79660   2.47614
C    -0.56932  -1.42465   3.69126
H     3.11037  -2.33875   2.35993
H     2.97469  -0.67391   3.00043
H     4.33409  -1.10648   1.93246
H     1.65786  -1.53926   0.76440
H    -0.02385   1.38984  -2.78331
H    -0.07360   3.06223  -2.14890
H     1.47888   2.38094  -2.72107
H    -0.45952   3.05816  -0.11139
H    -0.28175   2.53095   2.23821
H     0.67492   1.06555   1.96999
H     1.40845   2.65973   1.69697
H    -3.73282   2.52090   0.74634
H    -2.16845   3.28712   1.16159
H    -3.15650   2.52308   2.44227
H    -3.26401  -0.09648  -1.92887
H    -4.02219   0.59842  -0.45273
H    -3.95631   1.55856  -1.96516
H    -0.31022  -2.88571  -0.39959
H    -0.18190  -4.25283  -2.29826
H    -1.32053  -3.18054  -3.15473
H     0.41444  -2.79284  -3.13589
H    -1.56890   0.07123   2.51694
H    -0.98639  -0.88341   4.54983
H    -0.88314  -2.47844   3.75199
H     0.53143  -1.39930   3.75681
