26
Generated by autodE on: 2022-06-22. E = -689.460828 Ha
C     2.45823   2.12714  -0.22181
O     1.82808   1.11258  -1.01096
C     0.74521   0.49792  -0.45086
C     0.76613  -0.79637  -0.02369
O     1.78082  -1.66032  -0.00179
C     3.12017  -1.28854  -0.34355
C    -0.49669  -1.43556   0.48922
O    -0.46313  -2.60557   0.84501
C    -1.74429  -0.63310   0.56600
C    -2.96793  -1.30144   1.11228
C    -1.75013   0.65861   0.15296
C    -2.98222   1.50487   0.21521
C    -0.51074   1.27747  -0.40718
O    -0.52566   2.42638  -0.84577
H     3.31035   2.49493  -0.80867
H     2.82463   1.70727   0.72972
H     1.77019   2.95994  -0.01527
H     3.72209  -2.19012  -0.17303
H     3.19112  -0.98594  -1.39607
H     3.48036  -0.47839   0.30661
H    -2.76465  -2.34533   1.37857
H    -3.33255  -0.77235   2.00834
H    -3.78827  -1.27586   0.37634
H    -2.78760   2.51828  -0.15445
H    -3.79200   1.05795  -0.38537
H    -3.35835   1.56805   1.24964
