46
Generated by autodE on: 2022-06-22. E = -1238.390917 Ha. Imaginary frequency = -378.8 cm-1
C    -0.01917   3.56311  -0.41988
O     0.77860   2.44953   0.01001
C     0.87099   1.40383  -0.81714
O     0.29330   1.32573  -1.87971
C     1.82051   0.39432  -0.25715
C     2.84208   0.90481   0.59149
N     3.65477   1.32109   1.31374
N     2.04189  -0.77540  -0.92743
C     3.34221  -1.46079  -0.91895
N     0.91120  -1.40587  -1.22418
C     1.02881  -2.54207  -2.11845
C     0.03731  -1.79501   0.36009
C     0.38134  -3.24131   0.66668
C    -1.34866  -1.61216  -0.22556
O    -1.89100  -2.52136  -0.84562
C    -2.02740  -0.31360  -0.09155
O    -3.16038  -0.14681  -0.83617
C    -2.93795   0.08703  -2.23036
C    -1.60791   0.58889   0.84217
O    -2.15211   1.75878   1.16751
C    -3.32115   2.28154   0.52635
C    -0.40266   0.29433   1.69583
O    -0.18346   1.02106   2.66803
C     0.46483  -0.81688   1.32971
C     1.52226  -1.17688   2.33418
H    -0.13079   4.20764   0.45871
H     0.49899   4.10162  -1.22665
H    -0.99995   3.22472  -0.77394
H     4.11285  -0.75974  -0.58440
H     3.31734  -2.33319  -0.25248
H     3.58517  -1.78441  -1.93936
H     1.68608  -3.34705  -1.75361
H     0.02317  -2.94608  -2.27863
H     1.41228  -2.18439  -3.08660
H    -0.05938  -3.52122   1.63654
H    -0.02678  -3.91642  -0.09264
H     1.46500  -3.39427   0.73319
H    -3.92421   0.08076  -2.71284
H    -2.45662   1.06601  -2.38552
H    -2.30860  -0.69928  -2.67486
H    -3.48854   3.26146   0.99076
H    -3.16077   2.40826  -0.55300
H    -4.18741   1.63109   0.70306
H     1.87149  -0.28842   2.87250
H     1.11143  -1.87865   3.08229
H     2.38388  -1.67266   1.86885
