59
Generated by autodE on: 2022-06-09. E = -1972.466912 Ha
C    -2.33629  -6.07065   5.83167
O    -1.09453  -5.34796   5.91929
C    -0.87936  -4.42108   5.00183
O    -1.63273  -4.18664   4.08091
C     0.48526  -3.69134   5.15596
C     1.10531  -4.06916   3.78452
O     0.96513  -3.41616   2.77604
O     1.71874  -5.24732   3.83020
C     2.26259  -5.74144   2.59428
C     1.27937  -4.19553   6.39592
C     2.40565  -3.30560   6.92404
C     3.64656  -3.10428   6.05037
C     3.47935  -2.42988   4.67932
C     2.63794  -1.16186   4.68393
Cl    2.83213  -0.30878   3.04488
C     1.17254  -1.21076   4.97129
C     0.28030  -2.19193   5.20650
C    -1.05384  -1.46038   5.49340
C    -2.19297  -2.13089   6.19761
C    -1.95575  -2.69209   7.45934
C    -3.00069  -3.28537   8.17056
C    -4.28926  -3.31206   7.62946
C    -4.52769  -2.74520   6.37350
C    -3.48401  -2.15541   5.65746
O    -1.48216  -0.98017   4.12713
C    -0.59215  -0.02252   3.80369
O    -0.59359   0.55632   2.74781
C     0.35622   0.10211   5.04092
C     1.12482   1.40349   5.28610
C     0.82084   2.60012   4.44562
O     1.93517   1.41611   6.19477
N    -0.58491  -0.24163   6.13099
C    -1.61166   0.75711   6.43204
H    -2.35019  -6.74375   6.69573
H    -3.18214  -5.37242   5.87439
H    -2.37158  -6.64475   4.89523
H     3.02708  -5.04862   2.21470
H     1.46447  -5.85649   1.84762
H     2.71097  -6.71256   2.83127
H     1.65442  -5.20360   6.17631
H     0.54856  -4.30357   7.20616
H     2.74523  -3.77078   7.86377
H     1.99403  -2.32750   7.21825
H     4.13010  -4.07951   5.87386
H     4.36259  -2.50613   6.63762
H     3.11757  -3.12868   3.92021
H     4.47943  -2.13207   4.33242
H     3.08144  -0.44404   5.38623
H    -0.95037  -2.67100   7.88337
H    -2.80603  -3.72754   9.14999
H    -5.10699  -3.77698   8.18479
H    -5.53254  -2.76361   5.94584
H    -3.66806  -1.72102   4.67560
H    -0.25853   2.81899   4.48613
H     1.05486   2.37902   3.39358
H     1.40302   3.46015   4.79920
H    -1.12350   1.65523   6.83345
H    -2.23044   1.04786   5.56442
H    -2.27275   0.35808   7.21171
