27
Generated by autodE on: 2022-06-09. E = -744.686005 Ha
C     4.36468   0.12201   0.26142
C     3.15275  -0.65424  -0.20401
O     3.28382  -1.76539  -0.73794
C     1.87216  -0.03643   0.01890
C     1.60298   1.18073   0.69017
O     2.25414   2.06695   1.21179
O     0.16907   1.27008   0.70352
C    -0.34478   0.20459   0.08935
C    -1.79155   0.07472  -0.01837
C    -2.43554  -1.17519   0.06138
C    -3.82596  -1.24423  -0.01837
C    -4.58296  -0.07847  -0.17178
C    -3.94738   1.16673  -0.23344
C    -2.55931   1.24868  -0.15122
N     0.61969  -0.58586  -0.34619
C     0.44187  -1.76913  -1.18868
H     4.40766   1.11265  -0.21693
H     4.32353   0.29637   1.34806
H     5.26694  -0.45203   0.01279
H    -1.85827  -2.08613   0.21894
H    -4.32120  -2.21488   0.05079
H    -5.67167  -0.13944  -0.23549
H    -4.53690   2.07878  -0.34748
H    -2.05950   2.21706  -0.20092
H     0.56436  -2.68310  -0.59397
H    -0.55650  -1.74222  -1.63542
H     1.20107  -1.75090  -1.97513
