32
Generated by autodE on: 2022-06-09. E = -1227.739856 Ha
C    -1.52359  -0.77282   3.56953
O    -0.93710  -0.38837   2.31209
C    -0.17289  -1.28639   1.70938
O     0.06658  -2.39206   2.14619
C     0.35802  -0.82153   0.34269
C     1.82985  -1.27056   0.28760
O     2.27814  -2.07749  -0.49248
O     2.54242  -0.64799   1.22264
C     3.93748  -0.98565   1.31370
C     0.21977   0.61340   0.11808
C    -0.24946   1.63386  -0.33653
C    -1.15151   2.46000  -1.11451
Cl   -0.29830   3.01035  -2.65887
C    -2.38396   1.60548  -1.45913
C    -2.10384   0.19111  -2.00485
C    -1.90283  -0.97467  -0.99408
C    -0.47693  -1.52089  -0.77839
H    -0.73489  -1.00146   4.29973
H    -2.16936  -1.65133   3.43235
H    -2.11353   0.08939   3.89930
H     4.05417  -2.05521   1.53910
H     4.34093  -0.37691   2.13048
H     4.44865  -0.74797   0.37014
H    -1.44200   3.39383  -0.61824
H    -2.98460   1.53796  -0.53590
H    -2.98279   2.17651  -2.18510
H    -1.25198   0.23487  -2.70434
H    -2.97617  -0.06922  -2.62330
H    -2.48811  -1.82710  -1.37086
H    -2.35985  -0.71494  -0.02474
H     0.10298  -1.43718  -1.70900
H    -0.51687  -2.59000  -0.52250
