54
Generated by autodE on: 2022-06-25. E = -1414.266438 Ha
C    -1.78795  -3.28339   1.34262
N    -1.76215  -1.85975   1.07926
C    -1.17100  -1.30295   0.01835
O    -0.65234  -1.93482  -0.90785
C    -1.21836   0.24672  -0.01025
C    -2.37312   0.66563  -0.91479
C    -2.54366   0.08369  -2.18078
C    -3.58119   0.50478  -3.01540
C    -4.46432   1.50424  -2.59680
C    -4.30185   2.08069  -1.33425
C    -3.26256   1.66573  -0.49786
O    -1.45984   0.76095   1.29042
C    -0.24938   0.95565   2.03614
C    -0.36618   2.30364   2.75121
C    -0.26021  -0.07391   3.11363
N    -0.47276  -0.78483   4.00607
C     0.93351   0.83891   0.98213
C     1.98805   1.95353   1.14777
C     1.77117  -0.42850   1.19520
O     2.08509  -0.76143   2.33297
C     2.32168  -1.15457   0.04932
O     3.17378  -2.17933   0.34030
C     4.47741  -1.80942   0.80250
C     1.89577  -0.91823  -1.22923
O     2.27616  -1.52244  -2.34631
C     3.33574  -2.48601  -2.41188
C     0.86807   0.12918  -1.52197
O     0.61804   0.39710  -2.68409
C     0.17935   0.88714  -0.38814
C    -0.04024   2.32695  -0.88251
H    -1.14708  -3.79474   0.61436
H    -1.41221  -3.47907   2.35809
H    -2.81004  -3.68586   1.26183
H    -2.15705  -1.22966   1.77100
H    -1.86616  -0.70018  -2.51510
H    -3.69994   0.04400  -3.99879
H    -5.27680   1.82994  -3.25053
H    -4.98693   2.86109  -0.99462
H    -3.13706   2.12298   0.48242
H     0.49479   2.46907   3.41169
H    -0.42845   3.11761   2.01941
H    -1.28154   2.30146   3.35921
H     2.76331   1.84272   0.37627
H     1.55538   2.95458   1.06147
H     2.46603   1.85984   2.13160
H     5.01166  -2.74588   1.00957
H     4.42304  -1.20845   1.72160
H     5.01642  -1.24520   0.02358
H     3.43910  -2.72206  -3.47841
H     4.27607  -2.05934  -2.03612
H     3.07903  -3.39272  -1.85092
H    -0.62899   2.32064  -1.80488
H    -0.57196   2.92886  -0.13601
H     0.92239   2.80553  -1.10241
