26
Generated by autodE on: 2022-06-25. E = -689.456693 Ha
C    -2.34616  -2.53565   0.26362
O    -2.12012  -1.19959  -0.20589
C    -0.90365  -0.62892  -0.08877
C    -0.82814   0.70225   0.20398
O    -1.96557   1.37143   0.48269
C    -2.14428   2.72226   0.03543
C     0.49352   1.35347   0.38042
O     0.56112   2.49751   0.82084
C     1.73006   0.58462   0.05402
C     3.03996   1.29961   0.17172
C     1.65274  -0.72632  -0.28213
C     2.87204  -1.54699  -0.56622
C     0.32357  -1.38757  -0.43645
O     0.23581  -2.53107  -0.87448
H    -3.40423  -2.57791   0.55768
H    -1.71899  -2.76113   1.13877
H    -2.15409  -3.27235  -0.52748
H    -3.22449   2.84889  -0.12278
H    -1.79638   3.43945   0.79063
H    -1.61721   2.90026  -0.91356
H     2.89482   2.35573   0.42748
H     3.66975   0.83356   0.94815
H     3.60530   1.23413  -0.77211
H     2.60805  -2.58435  -0.80250
H     3.43606  -1.12567  -1.41523
H     3.55526  -1.54033   0.29870
