54
Generated by autodE on: 2022-06-25. E = -1414.194926 Ha. Imaginary frequency = -225.4 cm-1
C    -1.69735  -3.54912   1.11829
N    -1.90868  -2.12373   0.94869
C    -1.28479  -1.44263  -0.03016
O    -0.67667  -1.99531  -0.94682
C    -1.49431   0.05788   0.04365
C    -2.40781   0.68640  -0.88933
C    -2.61986   0.11667  -2.16559
C    -3.45685   0.74765  -3.08331
C    -4.10489   1.94127  -2.74803
C    -3.90949   2.50586  -1.48100
C    -3.06683   1.89244  -0.55962
O    -1.33898   0.67060   1.20886
C    -0.38793   0.49970   2.13778
C    -0.48641   1.42729   3.30236
C     0.19271  -0.77900   2.37276
N     0.74587  -1.76625   2.65810
C     1.33545   1.42458   0.60115
C     1.41065   2.76832   1.26753
C     2.35275   0.42514   1.02425
O     3.02481   0.58423   2.04618
C     2.55757  -0.78044   0.20066
O     3.40408  -1.72424   0.71440
C     4.78857  -1.49918   0.43607
C     1.95206  -0.91279  -1.01098
O     2.07192  -1.92613  -1.87208
C     2.37674  -3.24976  -1.42157
C     1.06527   0.18022  -1.53810
O     0.70664   0.14372  -2.71396
C     0.71482   1.29403  -0.64438
C     0.04253   2.47319  -1.27953
H    -1.91850  -4.08568   0.18490
H    -0.65239  -3.75799   1.40243
H    -2.36283  -3.91404   1.90952
H    -2.37232  -1.61264   1.69465
H    -2.11026  -0.80691  -2.43638
H    -3.60505   0.30234  -4.06953
H    -4.76325   2.42950  -3.46996
H    -4.41863   3.43394  -1.21164
H    -2.91680   2.33499   0.42536
H     0.48758   1.49480   3.80617
H    -0.79593   2.42548   2.96699
H    -1.22426   1.05734   4.03602
H     2.07011   3.42940   0.67728
H     0.43109   3.25976   1.31966
H     1.83092   2.69127   2.27602
H     5.34563  -2.31701   0.91282
H     5.12551  -0.53712   0.85258
H     4.97759  -1.51323  -0.65042
H     2.09178  -3.91372  -2.24831
H     3.44742  -3.37068  -1.20743
H     1.78519  -3.49785  -0.52925
H    -0.50081   2.18530  -2.18586
H    -0.65417   2.96677  -0.58943
H     0.80051   3.22549  -1.56236
