20
Generated by autodE on: 2022-06-23. E = -457.715297 Ha
C     2.99292   1.07215  -0.01199
N     1.81644   0.21811  -0.01871
C     1.97293  -1.16895  -0.13290
C     0.93127  -2.01453  -0.17686
C    -0.50547  -1.55810  -0.11119
C    -0.57605  -0.04442   0.01139
C    -1.86588   0.65860   0.09919
N    -2.97555  -0.12108   0.05436
O    -1.96803   1.89751   0.21146
C     0.55199   0.72031   0.04573
H     2.68351   2.11639   0.12075
H     3.67096   0.80021   0.81280
H     3.55064   0.98907  -0.95943
H     3.00812  -1.51132  -0.18198
H     1.13424  -3.08447  -0.26327
H    -1.02157  -2.04873   0.73937
H    -1.05676  -1.90982  -1.00761
H    -3.88471   0.32550   0.10312
H    -2.93541  -1.12654  -0.05156
H     0.47099   1.80506   0.13226
