45
Generated by autodE on: 2022-06-23. E = -1254.572105 Ha. Imaginary frequency = -388.1 cm-1
C     4.94567   0.84221  -0.24165
N     3.55545   0.58959  -0.56987
C     2.57038   0.96610   0.25628
O     2.76273   1.56957   1.31424
C     1.18528   0.52845  -0.17824
O     1.14214   0.19310  -1.53686
C    -0.16271   0.31382  -1.96522
O    -0.50850  -0.02382  -3.07279
C    -0.86769   0.88879  -0.82888
C    -2.31218   1.14706  -0.85421
O    -3.03748   0.70327  -1.72702
O    -2.75176   1.84697   0.19037
C    -4.16961   2.06736   0.26856
N     0.08018   1.36301   0.03867
C    -0.18508   2.05487   1.29830
C    -0.61932  -1.35587   0.22560
C    -0.76789  -2.20585  -0.98222
N    -2.04071  -2.46245  -1.37844
O     0.20415  -2.67551  -1.59573
C    -1.77256  -1.31051   1.21933
C    -1.30656  -1.07656   2.62886
C    -0.00893  -0.94387   2.94851
N     1.02775  -0.93021   2.02737
C     2.34413  -1.34898   2.48442
C     0.73432  -1.06697   0.64148
H     5.19486   0.41827   0.74338
H     5.57881   0.37382  -1.00421
H     5.16049   1.92210  -0.21275
H     3.31904   0.12364  -1.43966
H    -4.70147   1.10666   0.31358
H    -4.33167   2.63798   1.18961
H    -4.51466   2.64004  -0.60371
H     0.77544   2.27517   1.76720
H    -0.79277   1.43137   1.96717
H    -0.72252   2.98467   1.08348
H    -2.15733  -2.92464  -2.27503
H    -2.80371  -1.87225  -1.06400
H    -2.30724  -2.27686   1.16783
H    -2.54269  -0.56800   0.94629
H    -2.05673  -1.03944   3.42090
H     0.31326  -0.81808   3.98557
H     2.38167  -2.43316   2.70329
H     2.61774  -0.79988   3.39732
H     3.10182  -1.13520   1.72134
H     1.46476  -1.69056   0.11680
