28
Generated by autodE on: 2022-06-02. E = -612.583032 Ha
C    -1.61380   2.60887   1.01148
N    -0.65420   1.93231   0.40893
C     0.40211   2.74980  -0.23355
C    -0.52011   0.55863   0.28601
C    -1.55767  -0.33281   0.74303
O    -2.65191   0.03499   1.24252
N    -1.30442  -1.68159   0.63030
C    -2.35511  -2.64851   0.85637
C     0.72371   0.01066  -0.32637
C     1.93523  -0.02769   0.38891
C     3.09144  -0.56621  -0.18099
C     3.05484  -1.09561  -1.47518
C     1.85618  -1.08012  -2.19535
C     0.70475  -0.52855  -1.62687
H    -2.40817   2.06545   1.50935
H    -1.56936   3.69501   0.97393
H     0.53009   2.43188  -1.27436
H     0.10364   3.80162  -0.19937
H     1.35108   2.61785   0.29794
H    -0.50410  -1.97549   0.08375
H    -1.93067  -3.65891   0.78638
H    -3.17937  -2.56773   0.12349
H    -2.79444  -2.52666   1.85797
H     1.96422   0.37025   1.40624
H     4.02259  -0.58122   0.39082
H     3.95732  -1.52196  -1.91982
H     1.81925  -1.49159  -3.20702
H    -0.22869  -0.50873  -2.19467
