23
Generated by autodE on: 2022-06-02. E = -550.058721 Ha
C    -1.91860  -1.85612  -1.99852
C    -1.39937  -0.41609  -1.87749
C    -1.32477   0.02190  -0.48983
C    -0.91481   0.30312   0.61844
C     0.20408   0.54554   1.52839
F    -0.05854   0.12192   2.80819
F     0.42790   1.90270   1.63822
C     1.46194  -0.14170   1.00949
C     1.80672   0.13062  -0.46741
C     1.19403  -0.79716  -1.55556
C     0.04783  -0.24344  -2.43053
H    -1.26245  -2.56045  -1.46477
H    -1.95450  -2.14946  -3.05863
H    -2.93185  -1.94777  -1.57942
H    -2.06825   0.24587  -2.45141
H     2.28059   0.20279   1.66189
H     1.33396  -1.22138   1.18360
H     1.58827   1.18645  -0.70100
H     2.90077   0.03783  -0.53976
H     2.00959  -1.05392  -2.24905
H     0.89079  -1.75481  -1.09897
H     0.07014  -0.74079  -3.41393
H     0.22583   0.82817  -2.61674
