51
Generated by autodE on: 2022-06-02. E = -1162.636418 Ha. Imaginary frequency = -91.5 cm-1
C     0.59770  -3.26283   0.02573
N     1.55951  -3.99561  -0.77091
C     1.46696  -4.00468  -2.13839
O     0.49540  -3.44585  -2.69507
C     2.53356  -4.61307  -2.92455
C     2.57474  -4.27652  -4.38011
C     1.67595  -4.93012  -5.24379
C     1.66213  -4.65374  -6.61287
C     2.55282  -3.71681  -7.14754
C     3.45452  -3.06280  -6.30360
C     3.46358  -3.34061  -4.93276
C     4.70951  -2.96673  -1.81841
C     5.47044  -3.92933  -1.73697
C     4.51776  -5.90298  -3.02711
N     3.33670  -5.63497  -2.48418
C     3.00112  -6.42097  -1.27864
C     6.47561  -4.65269  -0.95573
F     7.30488  -5.41425  -1.74863
F     5.82760  -5.58590  -0.14912
C     7.32859  -3.74175  -0.05847
C     6.71058  -2.39072   0.34280
C     5.25451  -2.42228   0.87388
C     4.24976  -1.53041   0.11855
C     4.30201  -1.59979  -1.43857
C     3.04164  -1.01990  -2.07932
H     0.64529  -2.17237  -0.14636
H    -0.42662  -3.59203  -0.20167
H     0.79827  -3.45473   1.08844
H     2.48117  -4.11020  -0.36533
H     0.97648  -5.65871  -4.82739
H     0.95306  -5.17048  -7.26455
H     2.54378  -3.49844  -8.21821
H     4.15607  -2.33114  -6.71187
H     4.17197  -2.83263  -4.27750
H     5.03869  -6.80403  -2.71212
H     4.82371  -5.37848  -3.92738
H     3.43028  -5.95177  -0.38569
H     1.91646  -6.51063  -1.18034
H     3.44215  -7.41705  -1.39530
H     8.26729  -3.55644  -0.60147
H     7.58083  -4.34514   0.82804
H     6.77620  -1.71616  -0.52362
H     7.37664  -1.95121   1.10144
H     5.23832  -2.11795   1.93256
H     4.87865  -3.45631   0.86626
H     4.39637  -0.47248   0.39309
H     3.23248  -1.80045   0.44645
H     5.14680  -0.96708  -1.76320
H     2.90344   0.01860  -1.74013
H     2.14174  -1.58463  -1.80769
H     3.11883  -1.01137  -3.17602
