42
Generated by autodE on: 2022-07-01. E = -1000.049421 Ha
C     1.61749   1.20800  -3.27061
C     2.33282   0.67230  -2.04331
O     3.57249   0.51128  -2.06441
C     1.54281   0.34988  -0.89409
O     0.21931   0.61914  -1.07738
C    -0.88431   0.27543  -0.47042
C    -0.92434  -0.77466   0.54569
C    -1.64830  -0.58051   1.73873
C    -1.63252  -1.55327   2.73693
C    -0.91046  -2.73713   2.55217
C    -0.21105  -2.95091   1.35848
C    -0.20952  -1.97639   0.36431
C    -2.05669   1.01192  -0.91663
C    -1.90955   2.24501  -1.59413
C    -3.02763   2.94036  -2.04535
C    -4.31354   2.42993  -1.82715
C    -4.47219   1.21175  -1.15655
C    -3.35931   0.50529  -0.70594
C     2.07008  -0.13012   0.38011
C     3.08171  -1.11306   0.41552
C     3.56214  -1.59963   1.63127
C     3.04536  -1.12079   2.84006
C     2.05709  -0.12964   2.82084
C     1.57951   0.36409   1.60876
H     2.37113   1.48162  -4.02094
H     0.94196   0.44889  -3.69652
H     1.00039   2.08809  -3.03125
H    -2.18990   0.35352   1.89552
H    -2.17719  -1.38246   3.66800
H    -0.89316  -3.49536   3.33834
H     0.34476  -3.87856   1.20720
H     0.34371  -2.14342  -0.56036
H    -0.91134   2.65719  -1.74473
H    -2.89809   3.89410  -2.56187
H    -5.18908   2.98085  -2.17790
H    -5.47190   0.80354  -0.99230
H    -3.49509  -0.45620  -0.21027
H     3.47187  -1.50855  -0.52174
H     4.33540  -2.37188   1.63490
H     3.41231  -1.51378   3.79100
H     1.65405   0.26105   3.75816
H     0.81429   1.14153   1.61252
