28
Generated by autodE on: 2022-05-25. E = -694.636511 Ha. Imaginary frequency = -221.9 cm-1
C     3.84651  -0.14701   0.18374
C     2.45083   0.01045  -0.29884
C     1.77998  -0.55148  -1.30684
F     2.20212  -1.43582  -2.21637
C     0.30427  -0.12976  -1.19045
O     0.51366   1.20697  -0.69436
C     1.33150   0.80527   0.42872
C     0.39584  -0.21804   1.09972
N    -1.40511   1.18091   2.17150
O    -2.27734   0.22623   1.75765
C    -2.63930   0.02655   0.52440
C    -2.61512   1.13747  -0.46516
C    -3.52499  -1.15604   0.33219
C    -0.26245  -0.82100   0.07193
H     4.36019   0.82647   0.26042
H     3.85881  -0.59265   1.19456
H     4.43018  -0.79719  -0.48462
H    -0.29341  -0.15028  -2.10863
H     1.65764   1.66520   1.02485
H     0.50960  -0.56034   2.12429
H    -1.29341   1.81554   1.36833
H    -2.92594   0.76828  -1.45073
H    -1.63032   1.61079  -0.55620
H    -3.33794   1.91114  -0.13709
H    -4.57974  -0.83764   0.23922
H    -3.43586  -1.85099   1.17834
H    -3.26312  -1.68011  -0.59963
H    -0.75767  -1.78960   0.06363
