19
Generated by autodE on: 2022-06-13. E = -552.524643 Ha
C     2.76892  -0.26881   0.56746
C     1.48393  -1.04107   0.64340
O     1.39352  -2.12118   1.21607
C     0.27130  -0.47544   0.01765
C     0.00140   0.74260  -0.50516
C     0.82414   1.87591  -0.67009
N     1.47517   2.82973  -0.82488
C    -1.52537   0.69985  -0.83900
C    -2.26196   0.67379   0.51565
C    -1.99012  -0.52916   1.02904
C    -1.08795  -1.21349  -0.01822
O    -1.62691  -0.66989  -1.23572
H     3.00567  -0.01182  -0.47683
H     3.58221  -0.86188   1.00458
H     2.66739   0.67953   1.12032
H    -1.87033   1.39815  -1.60727
H    -2.81794   1.50933   0.93831
H    -2.26027  -0.95790   1.99306
H    -1.04008  -2.30591  -0.02403
