39
Generated by autodE on: 2022-07-27. E = -919.771119 Ha
N    -0.52146   1.34806  -2.91117
C     0.11006   1.14503  -1.94481
C     0.90986   0.94491  -0.80934
N     0.37166   0.35526   0.31352
C    -0.71322  -0.39125   0.50916
C    -1.15625  -0.59226   1.89052
C    -1.87531  -1.75567   2.24592
C    -2.26115  -1.97761   3.56559
C    -1.94297  -1.04819   4.56346
C    -1.23947   0.11200   4.22556
C    -0.85710   0.34536   2.90459
C    -1.42698  -1.01245  -0.62031
C    -2.82916  -0.93777  -0.70488
C    -3.50883  -1.55845  -1.75386
C    -2.80082  -2.27296  -2.72517
C    -1.40616  -2.36042  -2.64390
C    -0.72237  -1.73207  -1.60496
C     2.29053   1.41056  -0.78141
C     2.77991   2.27065  -1.79408
C     4.09003   2.74091  -1.76571
C     4.95831   2.37894  -0.72722
C     4.49306   1.52263   0.27522
C     3.18642   1.03243   0.24636
H     0.89739   0.56490   1.16639
H    -2.11216  -2.49728   1.48223
H    -2.80891  -2.88786   3.82026
H    -2.24962  -1.22406   5.59695
H    -1.00293   0.85283   4.99270
H    -0.35337   1.28295   2.65877
H    -3.38436  -0.38248   0.05333
H    -4.59708  -1.48364  -1.81255
H    -3.33351  -2.76124  -3.54439
H    -0.84784  -2.92346  -3.39528
H     0.36568  -1.80404  -1.54917
H     2.11533   2.57716  -2.60471
H     4.43661   3.40493  -2.56167
H     5.98452   2.75198  -0.70645
H     5.15929   1.21395   1.08476
H     2.87843   0.32789   1.02201
