39
Generated by autodE on: 2022-06-13. E = -919.771104 Ha
N     0.90400   2.90338   1.17249
C     1.11038   1.82886   0.75219
C     1.41872   0.55157   0.25989
N     0.42477  -0.39253   0.12842
C    -0.90301  -0.31225   0.07950
C    -1.66064  -1.55582   0.23677
C    -1.12937  -2.65902   0.94236
C    -1.83978  -3.85604   1.03209
C    -3.10049  -3.97598   0.43931
C    -3.64693  -2.88471  -0.24722
C    -2.93982  -1.68906  -0.34852
C    -1.58349   0.97336  -0.15309
C    -1.17835   1.81860  -1.20423
C    -1.85764   3.00970  -1.45315
C    -2.94330   3.38317  -0.65253
C    -3.35134   2.55157   0.39511
C    -2.68196   1.35192   0.64011
C     2.79454   0.18711  -0.05504
C     3.11317  -1.00025  -0.75598
C     4.44094  -1.34784  -1.01070
C     5.48916  -0.51747  -0.60290
C     5.18718   0.67410   0.06956
C     3.86695   1.02154   0.34272
H     0.78792  -1.34828   0.09339
H    -0.16997  -2.57465   1.45797
H    -1.41237  -4.69453   1.58666
H    -3.65885  -4.91137   0.51862
H    -4.63055  -2.96954  -0.71486
H    -3.36825  -0.85353  -0.90320
H    -0.33137   1.53474  -1.83213
H    -1.53888   3.65100  -2.27801
H    -3.46984   4.32057  -0.84594
H    -4.19638   2.83794   1.02538
H    -3.00389   0.70315   1.45677
H     2.32410  -1.65433  -1.13460
H     4.65415  -2.27311  -1.55192
H     6.52599  -0.78849  -0.81322
H     5.99239   1.33903   0.39216
H     3.65431   1.94740   0.88156
