26
Generated by autodE on: 2022-07-27. E = -668.652356 Ha
C     0.22242   3.71774   0.43589
O     0.22888   2.30690   0.65825
C    -0.07992   1.53206  -0.40510
O    -0.35102   2.03080  -1.50370
C    -0.08824   0.11121  -0.17437
N    -0.48700  -0.59898  -1.33020
C    -0.08377  -1.75481  -1.77780
C     1.02294  -2.49630  -1.12973
C    -0.74438  -2.32429  -2.98285
C    -0.06526  -0.60856   1.07114
O    -0.47440  -1.76250   1.22369
O     0.45378   0.08658   2.11448
C     0.41169  -0.56025   3.38615
H    -0.77570   4.06788   0.13197
H     0.95108   4.00082  -0.33883
H     0.50130   4.17517   1.39335
H    -1.14964  -0.08976  -1.92358
H     1.50997  -3.15589  -1.86031
H     1.75297  -1.79660  -0.69269
H     0.63358  -3.10919  -0.30074
H    -1.51715  -1.65793  -3.38983
H    -1.20704  -3.29071  -2.71943
H     0.01283  -2.53594  -3.75467
H     0.84201   0.15161   4.10177
H    -0.62200  -0.80172   3.67743
H     1.00541  -1.48702   3.38041
