26
Generated by autodE on: 2022-06-07. E = -668.652277 Ha
C     0.91644  -1.03591  -3.17105
O     0.94233  -0.34584  -1.92199
C    -0.07444  -0.61817  -1.06583
O    -0.99452  -1.36970  -1.39852
C     0.03214   0.03053   0.21410
N    -1.05380  -0.10555   1.10887
C    -2.33067   0.06385   0.91098
C    -3.26937  -0.24296   2.02347
C    -2.86001   0.57029  -0.37653
C     1.20474   0.52659   0.88674
O     1.20744   0.82432   2.08707
O     2.32229   0.63773   0.13602
C     3.49397   1.09780   0.81144
H     0.93765  -2.12676  -3.02535
H     1.81629  -0.71646  -3.71170
H     0.01974  -0.77200  -3.75223
H    -0.76860  -0.30867   2.07223
H    -3.88556   0.64348   2.24392
H    -2.74577  -0.57028   2.93245
H    -3.96273  -1.03915   1.70297
H    -3.82477   1.06908  -0.21376
H    -3.00443  -0.26480  -1.08090
H    -2.14169   1.26175  -0.84500
H     3.34093   2.10310   1.23226
H     4.28634   1.12876   0.05318
H     3.78051   0.41114   1.62236
