49
Generated by autodE on: 2022-06-02. E = -1162.580997 Ha
C    -0.81946   4.11459   1.27576
N    -0.33161   2.85553   0.74912
C    -1.16365   1.92896   0.25281
O    -2.38316   2.10218   0.16169
C    -0.50283   0.63384  -0.24939
C    -0.48544   0.50217  -1.80535
C    -1.88713   0.72585  -2.40431
C    -2.68117  -0.52072  -1.92574
C    -1.61014  -1.36482  -1.20409
C    -0.33685  -1.02018  -1.98578
C    -1.29906  -0.69893   0.17085
C    -2.50253  -0.54217   1.00184
N    -3.43741  -0.54187   1.68956
N    -0.27814  -1.40509   0.95204
C    -0.33270  -2.72219   1.31464
C     0.85039  -3.26506   2.06996
O    -1.32184  -3.40266   1.04326
N     0.72151  -0.51867   1.40161
C     0.37517   0.09914   2.68981
N     0.83340   0.43291   0.37351
C     2.04225   0.39487  -0.37445
C     2.89130  -0.72253  -0.35333
C     4.09061  -0.70679  -1.06889
C     4.45992   0.41299  -1.82000
C     3.61924   1.53029  -1.83424
C     2.42752   1.53034  -1.10738
H    -1.39078   3.96903   2.20784
H    -1.47911   4.60648   0.54621
H     0.03546   4.76984   1.48282
H     0.63060   2.57583   0.91327
H     0.28421   1.12993  -2.26131
H    -2.34630   1.67274  -2.10459
H    -1.78666   0.73053  -3.49914
H    -3.08723  -1.09340  -2.77101
H    -3.52408  -0.26240  -1.26951
H    -1.86006  -2.42243  -1.08726
H     0.57581  -1.44817  -1.55548
H    -0.40423  -1.31789  -3.04158
H     0.77817  -4.35964   2.07584
H     0.83080  -2.90348   3.11015
H     1.80141  -2.94491   1.62502
H    -0.58368   0.64304   2.67695
H     1.18236   0.79270   2.95847
H     0.32270  -0.68989   3.45176
H     2.60998  -1.60034   0.22501
H     4.73824  -1.58652  -1.04168
H     5.39692   0.41862  -2.38102
H     3.89826   2.42127  -2.40178
H     1.79460   2.41826  -1.10201
