24
Generated by autodE on: 2022-07-27. E = -589.267102 Ha
C    -0.91591  -3.01440  -0.16948
C    -1.19553  -1.53966  -0.05899
O    -1.39863  -0.83921  -1.05632
N    -1.22168  -1.08718   1.23468
N    -1.21867   0.22159   1.44789
C    -2.11397   0.63947   2.54174
N    -0.55326   1.15149   0.89884
C     0.49163   0.91051  -0.00081
C     1.41399  -0.14992   0.11060
C     2.50615  -0.20522  -0.75247
C     2.67709   0.75955  -1.75287
C     1.76113   1.81025  -1.86578
C     0.68855   1.90033  -0.98037
H    -1.40953  -3.42559  -1.06073
H     0.17369  -3.14065  -0.29723
H    -1.22036  -3.56253   0.73147
H    -2.00732   1.71725   2.69390
H    -1.82702   0.08361   3.44346
H    -3.14119   0.37130   2.26195
H     1.29293  -0.91333   0.87811
H     3.22773  -1.01868  -0.64867
H     3.52621   0.69483  -2.43667
H     1.89157   2.57316  -2.63639
H    -0.01718   2.73102  -1.03495
