25
Generated by autodE on: 2022-06-02. E = -573.275289 Ha
C     3.57898  -1.32478  -0.64670
N     2.18062  -1.27361  -0.27092
C     1.54874  -0.10146  -0.06846
O     2.12600   0.99036  -0.17628
C     0.11165  -0.19130   0.29019
C    -0.74423   0.86351   0.33078
C    -0.47188   2.22594   0.04740
N    -0.34131   3.36500  -0.16236
C    -2.14829   0.31316   0.55912
C    -2.53362  -0.40066  -0.77630
C    -1.55651  -1.60833  -0.82013
C    -0.72851  -1.43864   0.49778
C    -1.81153  -0.89630   1.45419
H     4.21242  -0.84825   0.11813
H     3.88037  -2.37339  -0.75491
H     3.75439  -0.80271  -1.60096
H     1.66414  -2.14097  -0.17776
H    -2.88147   1.04105   0.92430
H    -2.43067   0.27171  -1.63920
H    -3.58112  -0.73131  -0.72578
H    -0.90770  -1.61036  -1.70681
H    -2.09684  -2.56548  -0.79160
H    -0.18561  -2.33733   0.81477
H    -2.65841  -1.58672   1.58006
H    -1.41242  -0.60760   2.43723
