49
Generated by autodE on: 2022-06-02. E = -1162.519066 Ha. Imaginary frequency = -366.6 cm-1
C    -1.24744   4.34544   0.79428
N    -0.96594   3.14849   0.02753
C    -1.24327   1.91995   0.51464
O    -1.81736   1.76934   1.60411
C    -0.81859   0.76965  -0.32187
C    -0.55094   0.87434  -1.81793
C    -1.95757   1.00339  -2.48438
C    -2.57652  -0.40436  -2.25916
C    -1.43939  -1.17540  -1.53057
C    -0.19062  -0.57588  -2.18785
C    -1.34636  -0.55445  -0.12670
C    -2.43326  -0.82438   0.77534
N    -3.34790  -1.14365   1.42031
N     0.12547  -1.46717   0.85506
C     0.11235  -2.75324   1.35582
C    -0.83619  -3.71434   0.69540
O     0.90098  -3.10334   2.23299
N     0.63743  -0.46851   1.57256
C     0.16355  -0.25160   2.94873
N     1.05618   0.57757   0.90645
C     2.05441   0.38930  -0.06740
C     2.80798  -0.79445  -0.19706
C     3.83727  -0.86178  -1.13526
C     4.13086   0.23261  -1.95677
C     3.40446   1.41870  -1.80595
C     2.38487   1.50374  -0.85961
H    -2.30862   4.38530   1.08296
H    -1.01502   5.22410   0.18006
H    -0.64474   4.38843   1.71717
H    -0.42316   3.23074  -0.82466
H     0.16033   1.65045  -2.11940
H    -2.55317   1.81226  -2.04071
H    -1.83375   1.22274  -3.55496
H    -2.80101  -0.90584  -3.21124
H    -3.50374  -0.38015  -1.66859
H    -1.55258  -2.26304  -1.53657
H     0.74505  -0.93328  -1.74831
H    -0.17205  -0.73836  -3.27480
H    -0.58645  -3.82102  -0.37038
H    -0.73856  -4.68887   1.18868
H    -1.87690  -3.36825   0.76916
H    -0.92348  -0.38327   3.00685
H     0.44456   0.76311   3.24396
H     0.65765  -0.98515   3.59852
H     2.60697  -1.64879   0.44759
H     4.41849  -1.78281  -1.22280
H     4.93292   0.16704  -2.69512
H     3.64034   2.28951  -2.42191
H     1.83054   2.43186  -0.72004
