19
Generated by autodE on: 2022-06-02. E = -403.245287 Ha
C     3.97422   0.29049  -0.40788
C     2.88527   0.58797   0.56472
N     1.89063  -0.07830   0.79559
C     0.76365  -0.64645   1.05806
C    -0.46538  -0.31927   0.34673
C    -1.66177  -0.97914   0.69846
C    -2.85666  -0.68414   0.04219
C    -2.88631   0.27616  -0.97595
C    -1.70444   0.93880  -1.33138
C    -0.50557   0.64570  -0.68282
H     3.83805  -0.66358  -0.94678
H     4.03146   1.11754  -1.13395
H     4.94035   0.28217   0.12113
H     0.73950  -1.38637   1.86439
H    -1.64327  -1.72690   1.49562
H    -3.77304  -1.20676   0.32779
H    -3.82248   0.50615  -1.48977
H    -1.71780   1.68974  -2.12543
H     0.41190   1.16389  -0.97213
