23
Generated by autodE on: 2022-06-02. E = -748.628581 Ha
F    -0.48284   0.11828   2.36868
C    -1.01111   0.87035   1.39249
F    -0.68064   2.14666   1.63325
F    -2.34532   0.77475   1.47437
C    -0.50125   0.41929   0.01358
F    -1.09504   1.31328  -0.88793
C     0.95164   0.48786  -0.10177
C     2.02359   0.09715  -0.51435
C     3.02024  -0.73985  -1.16100
C     2.25761  -1.67438  -2.13518
C     0.99467  -2.35371  -1.56208
C    -0.35537  -1.58254  -1.63521
C    -0.95099  -1.00899  -0.33395
H     3.54618  -1.33191  -0.39277
H     3.78467  -0.15403  -1.69510
H     1.98031  -1.09799  -3.03345
H     2.96739  -2.44918  -2.46622
H     1.18651  -2.67405  -0.52294
H     0.86039  -3.28464  -2.13444
H    -1.11103  -2.28456  -2.01867
H    -0.29554  -0.77977  -2.38881
H    -0.70238  -1.65984   0.51857
H    -2.04874  -0.97444  -0.40820
