42
Generated by autodE on: 2022-06-02. E = -1151.877823 Ha. Imaginary frequency = -145.7 cm-1
C    -1.04841   4.47315   0.26914
C    -0.47824   3.12337   0.42178
N    -0.17740   2.39143   1.33642
C     0.14324   1.26311   1.90524
C    -0.85718   0.26136   2.24293
C    -2.19465   0.35831   1.80211
C    -3.10855  -0.65679   2.08116
C    -2.71728  -1.78612   2.81169
C    -1.39647  -1.88393   3.26651
C    -0.47744  -0.87308   2.99022
C     0.39343   0.46534  -0.77685
C    -0.11234   1.43167  -1.34798
C    -0.69549   2.13734  -2.49567
C    -1.37971   1.14518  -3.45439
C    -0.52173  -0.03133  -3.94934
C    -0.40961  -1.28568  -3.04675
C     0.88234  -1.47969  -2.23588
C     0.84709  -0.92702  -0.80396
F    -0.02407  -1.73420  -0.05030
C     2.22345  -1.11440  -0.13206
F     2.19525  -0.84165   1.17979
F     2.66244  -2.37809  -0.25638
F     3.13781  -0.30918  -0.69563
H    -0.51137   5.02814  -0.51441
H    -1.04664   5.05088   1.20823
H    -2.08876   4.36222  -0.07959
H     1.16019   1.16447   2.28985
H    -2.51108   1.23213   1.22803
H    -4.13819  -0.56713   1.72524
H    -3.43624  -2.57957   3.02825
H    -1.08043  -2.75854   3.84102
H     0.55549  -0.96345   3.33338
H     0.11578   2.67103  -3.02294
H    -1.41551   2.90829  -2.18407
H    -1.72429   1.72469  -4.32683
H    -2.28765   0.74878  -2.96789
H    -0.96704  -0.36109  -4.90146
H     0.48933   0.33101  -4.20762
H    -0.48612  -2.16623  -3.70257
H    -1.27867  -1.34916  -2.37073
H     1.10719  -2.55322  -2.14784
H     1.73288  -1.01405  -2.75786
