34
Generated by autodE on: 2022-06-18. E = -993.683445 Ha
C    -0.62653   3.44745   1.43429
O    -0.40020   2.05640   1.15082
C    -1.21569   1.48853   0.27091
O    -2.22695   1.98576  -0.17199
C    -0.80404   0.05493   0.03572
O     0.43396  -0.29193  -0.02551
C     1.56502   0.44211  -0.29506
C     1.44253   1.56940  -1.16226
C     2.67792   2.25670  -1.68710
O     0.31176   1.96158  -1.52278
C     2.78498  -0.25411   0.05982
O     3.91916   0.16259  -0.14552
O     2.55108  -1.43283   0.68038
C     3.70532  -2.18467   1.06645
C    -1.76045  -1.02729   0.02092
C    -3.13325  -0.81430   0.29362
C    -4.01802  -1.88804   0.28618
C    -3.55818  -3.18074   0.01212
C    -2.20011  -3.40369  -0.25705
C    -1.30685  -2.34153  -0.25737
H     0.15943   3.74104   2.13854
H    -1.61902   3.58985   1.88419
H    -0.54939   4.03184   0.50676
H     3.25535   2.68886  -0.85602
H     3.34289   1.55273  -2.20701
H     2.36176   3.05439  -2.37206
H     4.30976  -2.45512   0.18780
H     4.32796  -1.61206   1.76983
H     3.32599  -3.09088   1.55365
H    -3.49896   0.18680   0.51263
H    -5.07485  -1.71668   0.49946
H    -4.25877  -4.01875   0.00655
H    -1.84340  -4.41271  -0.47285
H    -0.25120  -2.50872  -0.47169
