34
Generated by autodE on: 2022-07-27. E = -993.681364 Ha
C     2.18426   3.14697  -0.19411
O     1.74895   1.87353   0.31894
C     1.05649   1.11205  -0.50623
O     0.82062   1.35231  -1.67050
C     0.66885  -0.21612   0.09564
O    -0.49681  -0.70250  -0.14255
C    -1.65635  -0.13009  -0.60382
C    -2.59925  -1.10516  -1.10317
C    -2.14564  -2.55233  -1.10445
O    -3.71925  -0.79833  -1.53195
C    -1.88228   1.25684  -0.28148
O    -1.09382   1.93507   0.38201
O    -3.04993   1.74801  -0.72078
C    -3.34842   3.10134  -0.35653
C     1.60898  -1.09327   0.75179
C     2.99089  -0.79043   0.80343
C     3.87278  -1.67002   1.42332
C     3.40011  -2.85259   2.00336
C     2.03308  -3.16066   1.96055
C     1.14177  -2.29318   1.34330
H     1.30990   3.74653  -0.48335
H     2.84290   3.00183  -1.06147
H     2.72752   3.62869   0.62572
H    -1.88307  -2.88527  -0.08761
H    -1.24899  -2.68600  -1.72948
H    -2.96217  -3.17285  -1.49562
H    -2.57910   3.78688  -0.74128
H    -3.41545   3.20735   0.73620
H    -4.31804   3.32674  -0.81609
H     3.37312   0.12329   0.35088
H     4.93788  -1.43267   1.45388
H     4.09720  -3.53532   2.49417
H     1.66446  -4.07986   2.42005
H     0.07620  -2.52236   1.32097
