40
Generated by autodE on: 2022-06-18. E = -1072.304225 Ha. Imaginary frequency = -257.3 cm-1
C    -3.20757   3.02499  -1.50034
O    -2.93894   1.64057  -1.24109
C    -1.90577   1.37836  -0.43259
O    -1.19398   2.25908   0.03771
C    -1.71312  -0.03919  -0.15584
C    -2.76138  -1.05063  -0.11160
C    -2.39574  -2.38579   0.49918
O    -3.88618  -0.85857  -0.58111
C    -0.68810  -0.72409  -2.41921
C     0.53234  -1.15869  -2.00902
C     0.68095  -0.16845   0.18497
C     1.13459   1.23157  -0.24544
O     1.20844   1.64876  -1.37651
O     1.52934   1.89483   0.83588
C     1.96418   3.25133   0.63422
C     1.67014  -1.03582   0.81409
C     1.27376  -2.13548   1.60329
C     2.23199  -2.97952   2.15702
C     3.59470  -2.74841   1.93030
C     3.99571  -1.66281   1.14422
C     3.04446  -0.80943   0.59001
O    -0.56900  -0.43128   0.45542
H    -2.34827   3.49898  -1.99658
H    -3.42932   3.56074  -0.56588
H    -4.08202   3.04118  -2.16129
H    -2.11147  -2.26798   1.55641
H    -1.53606  -2.83341  -0.02216
H    -3.26384  -3.05296   0.42452
H    -0.81691   0.26250  -2.87153
H    -1.55322  -1.38888  -2.44696
H     1.43529  -0.58211  -2.20916
H     0.66588  -2.18151  -1.64774
H     2.23872   3.62844   1.62549
H     1.14306   3.84480   0.20870
H     2.83120   3.27576  -0.04081
H     0.21491  -2.31590   1.78313
H     1.91548  -3.82400   2.77298
H     4.34279  -3.41388   2.36671
H     5.05651  -1.48004   0.96077
H     3.37318   0.02526  -0.03208
