64
Generated by autodE on: 2022-06-13. E = -4195.048985 Ha
C    -2.41366   8.91108  -2.16565
N    -2.77998   7.77565  -2.99004
C    -1.87842   7.15809  -3.75801
O    -0.70421   7.51592  -3.86083
C    -2.37626   5.98976  -4.66397
C    -3.66269   5.27072  -4.20003
O    -4.58919   5.81197  -3.63316
O    -3.66795   4.00401  -4.58014
C    -4.81614   3.20920  -4.23138
N    -2.71863   6.50038  -5.99601
C    -1.58190   6.31255  -6.87786
C    -2.09287   6.12261  -8.26063
N    -2.57187   6.10234  -9.31523
C    -0.74211   7.54735  -6.93506
N    -0.24078   8.59256  -6.96014
C    -0.81649   5.11061  -6.23299
C    -1.22699   5.01628  -4.95210
C    -0.76876   4.12787  -3.80118
Br    1.08657   4.69366  -3.17111
C    -1.54672   4.43041  -2.59291
N    -2.17000   4.61886  -1.63256
C    -0.85816   2.58235  -3.98418
C     0.32699   1.80533  -4.54038
C     0.63674   1.96989  -6.02088
C     1.15513   3.34781  -6.45411
C     0.17032   4.36137  -7.12916
C    -0.63147   3.53521  -8.15573
C     0.01717   2.99818  -9.27930
C    -0.66102   2.16255 -10.16773
C    -2.00212   1.83313  -9.94337
C    -2.64856   2.33645  -8.81347
C    -1.96596   3.17240  -7.92483
C     1.05660   5.46592  -7.76402
C     2.01553   6.09712  -6.95162
C     2.81164   7.12928  -7.44420
C     2.66253   7.56315  -8.76535
C     1.70846   6.95301  -9.58039
C     0.91247   5.91492  -9.08516
H    -1.96273   9.70879  -2.77533
H    -3.31522   9.30045  -1.67773
H    -1.68508   8.62250  -1.39075
H    -3.71771   7.37972  -2.94598
H    -4.93222   3.18779  -3.13893
H    -4.60997   2.20532  -4.61754
H    -5.71897   3.62593  -4.69812
H    -3.07490   7.45552  -5.98955
H    -1.75357   2.41449  -4.60071
H    -1.07828   2.17237  -2.98893
H     0.09083   0.74475  -4.35675
H     1.22236   2.02207  -3.93662
H    -0.24211   1.67647  -6.61266
H     1.41897   1.23575  -6.26964
H     1.92547   3.19061  -7.22079
H     1.67221   3.82977  -5.61781
H     1.06810   3.22641  -9.46180
H    -0.13600   1.76258 -11.03843
H    -2.53359   1.18074 -10.64006
H    -3.69087   2.07728  -8.61377
H    -2.49122   3.53716  -7.04140
H     2.12260   5.80574  -5.90659
H     3.54355   7.60567  -6.78791
H     3.28226   8.37500  -9.15301
H     1.57325   7.28489 -10.61240
H     0.17174   5.46591  -9.74308
