23
Generated by autodE on: 2022-06-13. E = -754.657667 Ha
C     4.13271  -1.49328   0.05833
N     2.68851  -1.40749  -0.03523
C     2.04978  -0.24367   0.09337
O     2.61830   0.84473   0.29212
C     0.55398  -0.24765  -0.00403
N     0.07306   0.96740   0.21460
C    -1.12597   1.56929   0.35842
C    -2.38312   0.92139   0.44610
N    -3.46236   0.50354   0.58549
C    -1.12401   2.97678   0.54582
N    -1.14488   4.13279   0.69501
C    -0.23188  -1.42500  -0.40079
O     0.18298  -2.57163  -0.32817
O    -1.41457  -1.09279  -0.89742
C    -2.31510  -2.15336  -1.25418
H     4.43529  -2.53384  -0.10673
H     4.61487  -0.85574  -0.69860
H     4.48762  -1.17093   1.05028
H     2.12055  -2.24550  -0.15390
H     0.89799   1.59866   0.34161
H    -3.23425  -1.66245  -1.59120
H    -2.51744  -2.78676  -0.37917
H    -1.88206  -2.76000  -2.06157
