64
Generated by autodE on: 2022-06-13. E = -4194.965535 Ha. Imaginary frequency = -344.4 cm-1
C    -2.43479   8.57342  -1.89023
N    -2.95340   7.61666  -2.84767
C    -2.27678   7.34632  -3.97230
O    -1.30306   8.00169  -4.34938
C    -2.80097   6.20763  -4.81187
C    -3.82016   5.23890  -4.28917
O    -4.26680   5.22688  -3.15793
O    -4.14567   4.34071  -5.21626
C    -5.08968   3.31846  -4.85100
N    -2.84684   6.33241  -6.15555
C    -1.82479   6.61280  -7.02331
C    -2.15017   6.37632  -8.40390
N    -2.41693   6.20580  -9.52212
C    -0.86920   7.67785  -6.88936
N    -0.09186   8.53292  -7.01673
C    -0.51956   4.89640  -6.07585
C    -0.85475   4.95073  -4.87019
C    -0.48053   4.38277  -3.56142
Br    1.44138   4.98992  -3.13259
C    -1.18858   4.90924  -2.39269
N    -1.71373   5.25281  -1.41803
C    -0.56474   2.83652  -3.51569
C     0.46915   2.00701  -4.27852
C     0.47582   2.02432  -5.81212
C     1.20482   3.19671  -6.49556
C     0.28597   4.28243  -7.16650
C    -0.60444   3.53487  -8.17104
C    -0.03255   2.97205  -9.32337
C    -0.80617   2.23129 -10.21841
C    -2.16739   2.02189  -9.97050
C    -2.73788   2.54582  -8.80952
C    -1.95908   3.28810  -7.91655
C     1.16755   5.38241  -7.79669
C     2.15863   5.98718  -7.00523
C     2.96191   7.00892  -7.51028
C     2.78604   7.45840  -8.82278
C     1.79293   6.87921  -9.61365
C     0.99047   5.85240  -9.10508
H    -2.29612   9.55851  -2.35840
H    -3.14903   8.66934  -1.06371
H    -1.46219   8.24446  -1.48741
H    -3.63552   6.92444  -2.54001
H    -4.68391   2.71951  -4.02406
H    -5.21794   2.70163  -5.74691
H    -6.04373   3.77396  -4.55246
H    -3.52106   5.68558  -6.57510
H    -1.58482   2.59983  -3.86548
H    -0.51468   2.54591  -2.45594
H     0.27090   0.97002  -3.96316
H     1.47535   2.24410  -3.89718
H    -0.55604   1.93414  -6.18404
H     0.97980   1.09920  -6.13082
H     1.84761   2.81807  -7.30313
H     1.87332   3.68713  -5.77688
H     1.03000   3.11291  -9.52779
H    -0.34108   1.81211 -11.11382
H    -2.77327   1.44501 -10.67310
H    -3.79462   2.37755  -8.58846
H    -2.41989   3.66621  -7.00491
H     2.29301   5.67697  -5.96859
H     3.72325   7.46188  -6.87078
H     3.41313   8.25949  -9.22114
H     1.63241   7.22667 -10.63706
H     0.21707   5.42882  -9.74180
