35
Generated by autodE on: 2022-05-31. E = -1325.814433 Ha
C     4.89643  -0.32007   0.91707
N     3.52520   0.07840   0.65380
C     2.76276  -0.57644  -0.22165
O     3.11148  -1.55070  -0.88849
C     1.34283  -0.05107  -0.38610
O     1.20153   0.41258  -1.75056
C     0.14939   1.25947  -1.73194
O    -0.27339   1.88132  -2.65867
C    -0.24962   1.32367  -0.21886
C    -0.81974   2.60772   0.15156
N    -1.26622   3.64464   0.40787
O     1.04244   1.10787   0.36438
C    -1.01340  -0.00164   0.16390
C    -1.64016   0.15707   1.55001
F    -2.72028   0.96039   1.47101
F    -0.79438   0.71651   2.43125
F    -2.05699  -0.99839   2.08044
C    -2.02745  -0.51674  -0.92443
C    -2.53743  -1.88866  -0.49728
C    -1.51294  -2.72644  -0.69646
C    -0.37546  -1.86295  -1.22238
O    -1.10625  -0.86179  -1.95787
C     0.17868  -1.03226  -0.01168
C     0.58236  -1.87652   1.19228
H     5.54147  -0.12625   0.04555
H     5.27245   0.25088   1.77381
H     4.94547  -1.39412   1.14880
H     3.13984   0.89371   1.12180
H    -2.75351   0.23070  -1.26025
H    -3.51652  -2.08670  -0.06442
H    -1.44357  -3.78832  -0.46488
H     0.39998  -2.33086  -1.83650
H     1.37179  -2.57953   0.89170
H    -0.26377  -2.45597   1.57546
H     0.96683  -1.24630   2.00518
