19
Generated by autodE on: 2022-05-31. E = -684.055142 Ha
C    -1.39469  -2.15769  -0.35999
C    -0.24028  -1.22892  -0.40833
C    -0.09195   0.08914  -0.20834
C    -1.04830   1.13737   0.20009
F    -1.02367   2.20251  -0.63481
F    -0.74156   1.62452   1.42820
F    -2.32473   0.71602   0.25387
C     1.43512   0.35264  -0.27951
C     2.06138  -0.31782   0.96333
C     1.92211  -1.62970   0.74843
C     1.21821  -1.72895  -0.62185
O     1.78964  -0.59608  -1.29814
H    -1.22311  -2.91017   0.43016
H    -1.47498  -2.71661  -1.30754
H    -2.34380  -1.64587  -0.16249
H     1.75041   1.37222  -0.52544
H     2.45749   0.21177   1.82899
H     2.17007  -2.47477   1.38953
H     1.33169  -2.65868  -1.18989
