16
Generated by autodE on: 2022-05-31. E = -641.692672 Ha
C    -3.91657   1.22127   0.07315
N    -2.49281   0.94813   0.12930
C    -1.94916  -0.17185  -0.35988
O    -2.52373  -1.10657  -0.90671
C    -0.45384  -0.25439  -0.19582
O     0.21987  -1.26823  -0.58985
C     1.68503  -1.01201  -0.25829
O     2.50423  -1.83856  -0.53997
C     1.59434   0.25298   0.33659
C     2.58059   1.07601   0.88235
N     3.42213   1.74748   1.33430
O     0.25958   0.67137   0.35020
H    -4.33562   1.29139   1.08853
H    -4.10138   2.17142  -0.44963
H    -4.41533   0.40860  -0.46652
H    -1.88607   1.64211   0.55961
