35
Generated by autodE on: 2022-05-31. E = -1325.741084 Ha. Imaginary frequency = -302.9 cm-1
C     4.76662  -0.78954   0.91913
N     3.54375  -0.08187   0.58500
C     2.80181  -0.44596  -0.46532
O     3.08622  -1.32703  -1.27493
C     1.50064   0.28354  -0.61688
O     0.99177   0.43870  -1.83635
C    -0.04782   1.40076  -1.76365
O    -0.75700   1.65854  -2.69939
C     0.04267   1.84978  -0.40088
C    -0.55392   2.98343   0.17585
N    -1.07063   3.92258   0.63090
O     1.16373   1.30332   0.16430
C    -1.09737  -0.37212   0.27873
C    -1.69546   0.24730   1.49881
F    -2.66210   1.13222   1.19497
F    -2.27535  -0.69994   2.27338
F    -0.79513   0.87940   2.27323
C    -2.00967  -0.91357  -0.84514
C    -2.49474  -2.29729  -0.35103
C    -1.40947  -3.07666  -0.40058
C    -0.27859  -2.15547  -0.91315
O    -1.01511  -1.30083  -1.79397
C     0.02897  -1.18836   0.26546
C     0.79676  -1.66714   1.46058
H     5.26122  -0.26689   1.74571
H     5.44439  -0.81863   0.05370
H     4.55106  -1.82617   1.22485
H     3.19610   0.63566   1.21512
H    -2.74675  -0.22382  -1.26703
H    -3.50114  -2.51851   0.00100
H    -1.28446  -4.11839  -0.10850
H     0.58676  -2.61364  -1.40180
H     1.69463  -2.22580   1.16231
H     0.15003  -2.35819   2.02923
H     1.08273  -0.84639   2.13019
