47
Generated by autodE on: 2022-05-31. E = -1156.182027 Ha
C    -2.30631   3.53243  -0.18496
C    -1.41246   2.65351   0.63307
O    -1.21645   2.84246   1.82122
C    -0.75482   1.45916  -0.03620
C    -0.30268   1.56546  -1.51243
O    -0.61743   2.32213  -2.39705
O     0.58217   0.56348  -1.68239
C     0.74183  -0.07873  -0.33122
C     2.04282  -0.81288  -0.26429
C     2.61043  -1.10285   0.98544
C     3.78748  -1.84960   1.06244
C     4.39977  -2.31857  -0.10446
C     3.82865  -2.03907  -1.34909
C     2.65145  -1.29052  -1.43144
N     0.50897   1.00845   0.57436
C     1.56012   2.02274   0.66549
C    -0.54195  -0.94070  -0.17678
F    -0.66521  -1.70547  -1.32860
C    -0.67525  -1.81118   1.08221
C    -2.01149  -2.58786   0.95185
C    -3.08748  -1.50317   1.26303
C    -2.24590  -0.21227   1.39520
C    -1.04128  -0.78502   2.17198
C    -1.66665   0.14471  -0.01234
C    -2.72226   0.13452  -1.11762
H    -3.00105   2.94016  -0.79752
H    -1.68449   4.10884  -0.88872
H    -2.85526   4.21540   0.47575
H     2.13077  -0.74188   1.89628
H     4.22762  -2.06580   2.03845
H     5.32119  -2.90221  -0.04289
H     4.30078  -2.40508  -2.26362
H     2.20539  -1.07472  -2.40218
H     2.47917   1.55987   1.04454
H     1.24828   2.79328   1.38019
H     1.79044   2.50898  -0.30106
H     0.20102  -2.44590   1.26246
H    -2.03573  -3.40421   1.68706
H    -2.13078  -3.03482  -0.04351
H    -3.87973  -1.44803   0.50748
H    -3.57513  -1.70032   2.22864
H    -2.78386   0.62073   1.86501
H    -0.25946  -0.05908   2.39654
H    -1.35991  -1.28426   3.09919
H    -3.58789   0.74746  -0.82650
H    -3.07896  -0.88495  -1.30295
H    -2.34651   0.51539  -2.07525
