27
Generated by autodE on: 2022-05-31. E = -744.685979 Ha
C     4.36422  -0.14073  -0.26517
C     3.13195  -0.63057   0.46270
O     3.23740  -1.38879   1.43789
C     1.86561  -0.16137  -0.03506
C     1.63700   0.76687  -1.07946
O     2.31642   1.39251  -1.87203
O     0.21063   0.93691  -1.09844
C    -0.33801   0.16930  -0.15681
C    -1.78591   0.16850   0.00367
C    -2.58208   0.36693  -1.14224
C    -3.97007   0.39420  -1.02968
C    -4.57711   0.23679   0.22126
C    -3.79040   0.06018   1.36378
C    -2.40000   0.02754   1.26332
N     0.59616  -0.50814   0.48646
C     0.36213  -1.55480   1.48173
H     4.32832  -0.41377  -1.33110
H     4.43396   0.95738  -0.22155
H     5.25056  -0.58697   0.20454
H    -2.10501   0.48725  -2.11583
H    -4.58197   0.53794  -1.92257
H    -5.66577   0.25993   0.30675
H    -4.26117  -0.04304   2.34353
H    -1.79710  -0.07405   2.16546
H     1.04460  -2.38394   1.27837
H     0.55554  -1.17174   2.49172
H    -0.67385  -1.89798   1.40262
