19
Generated by autodE on: 2022-06-01. E = -461.261364 Ha
C     3.92558  -0.93458  -0.04484
C     3.12524   0.26723   0.37438
O     3.63692   1.28489   0.82886
C     1.69042   0.16595   0.21236
C     0.48254   0.06716   0.07040
C    -0.92853  -0.04115  -0.09403
C    -1.49593  -1.23053  -0.60028
C    -2.87644  -1.33047  -0.76016
C    -3.70381  -0.25383  -0.42035
C    -3.14870   0.92864   0.08236
C    -1.76963   1.04010   0.24705
H     3.59708  -1.81838   0.52612
H     4.99503  -0.75047   0.12349
H     3.74039  -1.15147  -1.10967
H    -0.84452  -2.06581  -0.86326
H    -3.31112  -2.25248  -1.15211
H    -4.78555  -0.33682  -0.54792
H    -3.79538   1.76794   0.34715
H    -1.32926   1.95876   0.63856
