18
Generated by autodE on: 2022-06-01. E = -568.671779 Ha
O     3.65929  -1.12857  -0.02491
C     2.73164  -0.35158   0.09981
N     2.66007   0.94458   0.40614
N     1.32685   1.23935   0.38958
C     0.57009   0.20553   0.09062
C    -0.87227   0.11928  -0.02886
C    -1.68928   1.25318   0.14763
C    -3.07115   1.13337   0.02363
C    -3.64872  -0.10662  -0.27490
C    -2.83913  -1.23338  -0.45085
C    -1.45513  -1.12623  -0.32963
O     1.36875  -0.83142  -0.10475
H     1.00713   2.18527   0.59480
H    -1.25483   2.22813   0.37733
H    -3.70262   2.01357   0.15955
H    -4.73322  -0.19333  -0.37149
H    -3.28818  -2.20095  -0.68400
H    -0.81868  -2.00133  -0.46576
