40
Generated by autodE on: 2022-10-26. E = -973.437731 Ha
C    -3.87323  -1.00966  -2.57934
N    -2.65778  -0.71404  -1.84831
C    -2.64315   0.19619  -0.83709
O    -3.70785   0.77821  -0.51936
C    -1.37730   0.40289  -0.13840
C    -1.27525   1.04682   1.18427
O    -0.18484   1.18859   1.78114
N    -2.42689   1.51166   1.71667
C    -2.43743   2.28172   2.93960
N    -0.17082   0.06664  -0.74811
C     0.13340   0.61298  -2.08812
C     0.77387  -0.52658  -0.02447
C     0.42438  -1.42236   1.12040
C    -0.89962  -2.14734   1.17775
O     1.28209  -1.64851   1.96680
C     2.20441  -0.32896  -0.32054
C     2.73577   0.97103  -0.39532
C     4.09213   1.16234  -0.65919
C     4.93158   0.06062  -0.85440
C     4.41201  -1.23601  -0.77130
C     3.05880  -1.43245  -0.49660
H    -3.63102  -1.68853  -3.40681
H    -4.63394  -1.48984  -1.94040
H    -4.31489  -0.09112  -2.99447
H    -1.85462  -1.31602  -1.99005
H    -3.24427   1.47648   1.10242
H    -2.05532   3.30826   2.79635
H    -1.81228   1.79823   3.70437
H    -3.46766   2.34728   3.31378
H     0.53011   1.63107  -1.98946
H     0.86164  -0.02890  -2.59657
H    -0.79390   0.65449  -2.66571
H    -0.68554  -3.16730   1.53112
H    -1.56227  -1.67255   1.91705
H    -1.42235  -2.18656   0.21571
H     2.08405   1.82795  -0.21758
H     4.49663   2.17593  -0.70573
H     5.99297   0.21192  -1.06428
H     5.06545  -2.09869  -0.91916
H     2.65486  -2.44441  -0.43088
