58
Generated by autodE on: 2022-10-23. E = -1487.791836 Ha. Imaginary frequency = -216.4 cm-1
C    -2.80206  -0.63437  -3.14478
N    -1.84265  -0.74409  -2.06526
C    -2.25003  -0.84642  -0.77759
O    -3.47565  -0.92431  -0.52460
C    -1.20707  -0.78321   0.27268
C    -1.57029  -0.53078   1.67698
O    -0.70059  -0.32007   2.55494
N    -2.87303  -0.47196   2.00131
C    -3.30029  -0.01083   3.30393
N     0.07834  -1.23877  -0.04908
C     0.17385  -2.40046  -0.98865
C     1.22505  -0.84113   0.58093
C     1.35456  -1.00652   2.09522
C     0.98207  -2.39826   2.56877
O     2.06308  -0.28333   2.77612
C     2.51008  -1.00770  -0.13209
C     2.58156  -0.82728  -1.53433
C     3.78905  -0.93488  -2.21809
C     4.97038  -1.22010  -1.52565
C     4.92514  -1.39324  -0.13978
C     3.71755  -1.28868   0.54915
C     0.67887   1.60544   0.42897
C     1.26792   2.18756   1.57434
N     1.74225   2.76364   2.47171
C     1.25005   1.93637  -0.97867
C     0.95924   3.42188  -1.25365
C    -0.36323   3.49674  -1.43777
C    -0.86404   2.04725  -1.28454
O     0.24830   1.30920  -1.80270
C    -0.71047   1.72372   0.21665
O    -1.55678   2.15666   1.14668
C    -2.90306   2.46741   0.74941
H    -3.39783   0.29273  -3.07510
H    -2.26003  -0.63424  -4.09906
H    -3.49989  -1.48425  -3.13396
H    -0.89827  -0.41188  -2.23798
H    -3.53005  -0.61051   1.22891
H    -2.99417  -0.70625   4.10245
H    -2.87096   0.97628   3.54044
H    -4.39471   0.06736   3.30999
H     1.04072  -3.00214  -0.69801
H    -0.72834  -3.00775  -0.85797
H     0.26850  -2.12625  -2.04155
H     0.81066  -2.37580   3.65351
H     1.84872  -3.05054   2.36328
H     0.10959  -2.81796   2.05421
H     1.68438  -0.57382  -2.09341
H     3.80821  -0.78290  -3.29952
H     5.91854  -1.30208  -2.06174
H     5.83906  -1.61657   0.41516
H     3.72334  -1.43131   1.62741
H     2.25588   1.57208  -1.19937
H     1.70424   4.21642  -1.23637
H    -1.00128   4.36258  -1.60804
H    -1.80661   1.78491  -1.77020
H    -2.91759   3.39480   0.15781
H    -3.46884   2.61379   1.67643
H    -3.34147   1.64410   0.17247
