26
Generated by autodE on: 2022-06-23. E = -689.460850 Ha
C     2.94984   1.67933  -0.12361
O     1.53357   1.88462  -0.15818
C     0.65751   0.88764  -0.03628
C     0.88470  -0.43910   0.17878
O     2.13352  -0.96229   0.35645
C     2.64068  -1.75075  -0.72537
C    -0.24922  -1.37834   0.31665
O    -0.02767  -2.56281   0.56291
C    -1.64973  -0.87898   0.16827
C    -2.75794  -1.87776   0.27876
C    -1.88804   0.43952  -0.04130
C    -3.27472   0.98830  -0.17771
C    -0.75588   1.39520  -0.14781
O    -0.94082   2.58976  -0.33562
H     3.38875   2.67590  -0.25945
H     3.26497   1.26113   0.84097
H     3.27260   1.02153  -0.94313
H     3.64521  -2.08029  -0.42844
H     2.71150  -1.14743  -1.64573
H     2.00787  -2.63107  -0.91149
H    -3.37574  -1.87622  -0.63443
H    -2.36602  -2.88856   0.44079
H    -3.43183  -1.62080   1.11303
H    -3.25871   2.07424  -0.32755
H    -3.87376   0.76243   0.71970
H    -3.79606   0.52162  -1.02987
