48
Generated by autodE on: 2022-06-23. E = -1338.583951 Ha. Imaginary frequency = -259.1 cm-1
C     0.58641   2.59727   2.85425
O     1.24617   2.50095   1.58421
C     1.27606   1.28609   1.00813
O     0.83696   0.27751   1.54681
C     1.81271   1.40265  -0.33517
O     2.18291   0.40513  -1.11750
C     1.78231  -0.84689  -1.19608
C     2.29328  -1.60704  -2.37106
C     1.62774  -1.68814   0.04176
O     0.77891  -2.53902   0.19144
O     2.67908  -1.51620   0.84251
C     2.69193  -2.28119   2.05867
C    -0.47130   0.05896  -2.00453
C    -0.19828  -0.21641  -3.45771
C    -1.31746  -0.95314  -1.31291
O    -1.55557  -2.04352  -1.83291
C    -1.95653  -0.60400  -0.02313
O    -2.76825  -1.52322   0.56685
C    -2.19941  -2.74176   1.05991
C    -1.84977   0.65782   0.47899
O    -2.35448   1.11107   1.63503
C    -2.51151   0.22993   2.75369
C    -1.19364   1.73979  -0.31881
O    -1.31905   2.90664   0.04372
C    -0.42058   1.36845  -1.52507
C     0.00260   2.50156  -2.41887
H     1.03381   1.90177   3.57859
H     0.72829   3.63191   3.18725
H    -0.48414   2.37976   2.74148
H     2.20039   2.36117  -0.67171
H     3.25305  -2.09145  -2.11313
H     2.44918  -0.94930  -3.23353
H     1.58287  -2.40579  -2.62674
H     1.81409  -2.02966   2.66978
H     3.61261  -1.99873   2.58153
H     2.69378  -3.35729   1.83483
H    -1.02913   0.18862  -4.06260
H     0.71963   0.27066  -3.80740
H    -0.13724  -1.29059  -3.66029
H    -1.39529  -2.53113   1.78133
H    -1.80751  -3.36067   0.24283
H    -3.01602  -3.27292   1.56657
H    -3.41595  -0.38356   2.65628
H    -1.62800  -0.41732   2.85662
H    -2.59509   0.87978   3.63447
H    -0.76781   2.67751  -3.19083
H     0.94007   2.27480  -2.94342
H     0.12833   3.42808  -1.84633
