63
Generated by autodE on: 2022-06-27. E = -1420.049674 Ha. Imaginary frequency = -259.5 cm-1
C    -2.75579  -0.35095   1.58891
C    -2.77735   0.08066   0.30528
C    -4.04946   0.03156  -0.50604
C    -1.62303   0.62193  -0.41239
C    -0.42937   1.08503   0.20550
C     0.16434   2.33797  -0.26557
C     0.86465   3.23003   0.46793
C     1.46229   4.44616  -0.18494
C     1.16180   3.08855   1.93568
C     1.09195  -0.42901  -0.08933
C     1.99966  -0.14300  -1.27323
O     2.44211  -1.03985  -1.96698
O     2.39995   1.11819  -1.37461
C     3.32652   1.42353  -2.42120
C     1.82095  -0.36539   1.21453
C     1.14370  -0.61319   2.42752
C     1.78098  -0.46622   3.65695
C     3.11814  -0.05840   3.71510
C     3.80918   0.17969   2.52547
C     3.17255   0.02414   1.29204
N     0.25890  -1.52881  -0.32649
C     0.39759  -2.76600   0.47080
C    -0.73863  -1.47216  -1.25927
C    -1.59911  -2.72251  -1.37620
O    -1.37643  -3.53595  -2.28070
N    -2.54296  -2.89194  -0.44764
C    -3.38491  -4.07065  -0.41528
C    -0.73849  -0.63533  -2.46619
O     0.10738   0.16796  -2.83582
O    -1.87479  -0.83675  -3.17107
C    -2.08424   0.01108  -4.30288
H    -1.85665  -0.30477   2.20562
H    -3.66076  -0.74551   2.05827
H    -3.88046  -0.49322  -1.45885
H    -4.37608   1.05387  -0.76243
H    -4.86459  -0.46797   0.03640
H    -1.88127   1.09335  -1.36330
H    -0.37580   0.92461   1.28033
H     0.02608   2.54776  -1.33106
H     1.12603   5.37615   0.30767
H     1.21111   4.50702  -1.25435
H     2.56387   4.43069  -0.09151
H     2.24466   2.94482   2.09850
H     0.88802   4.01233   2.47516
H     0.64205   2.24612   2.40897
H     4.26274   0.86164  -2.28921
H     2.88843   1.18016  -3.39993
H     3.51604   2.50093  -2.34732
H     0.09724  -0.91243   2.41119
H     1.22460  -0.66047   4.57679
H     3.61581   0.06913   4.67906
H     4.85666   0.48865   2.55104
H     3.74920   0.21674   0.38853
H     0.32181  -3.62568  -0.20629
H     1.39360  -2.78247   0.92057
H    -0.35951  -2.85387   1.25784
H    -2.64984  -2.17409   0.27212
H    -2.79088  -4.98116  -0.23264
H    -3.92015  -4.19937  -1.36888
H    -4.11855  -3.95754   0.39265
H    -3.03831  -0.30348  -4.74201
H    -2.14222   1.06524  -3.99267
H    -1.27399  -0.10740  -5.03673
