52
Generated by autodE on: 2022-06-02. E = -1222.805652 Ha
C     4.91844  -0.29976  -1.39454
N     3.65218   0.18217  -0.87882
C     2.64622   0.54537  -1.68566
O     2.73037   0.57000  -2.91825
C     1.31233   0.88672  -1.02317
N     1.38218   1.19190   0.39129
C     2.06056   2.43953   0.72540
C     0.06690   1.00685   0.98029
C    -0.71613   2.26364   0.88368
N    -1.20608   3.31487   0.84205
C     0.18217   0.66570   2.50879
C    -1.03510   0.86813   3.35773
O     1.23985   0.28129   2.95424
C    -0.63181  -0.18955   0.15585
C    -2.09802   0.13758  -0.10167
C    -3.10546  -0.42009   0.70438
C    -4.44717  -0.07581   0.52375
C    -4.81286   0.83691  -0.46870
C    -3.82150   1.41212  -1.26704
C    -2.48078   1.07077  -1.07899
C    -0.39532  -1.57346   0.83986
C    -1.02992  -2.69646  -0.01760
C    -0.05355  -2.82643  -1.21864
C     0.99150  -1.73402  -0.92771
C     1.10042  -1.83487   0.59831
C     0.33024  -0.32162  -1.12915
C    -0.30600  -0.28378  -2.44170
N    -0.74998  -0.29659  -3.51398
H     5.65231  -0.32393  -0.57940
H     4.82278  -1.31447  -1.81677
H     5.28601   0.36686  -2.18772
H     3.46042   0.12291   0.11709
H     0.89678   1.73078  -1.60734
H     2.06963   2.57707   1.81467
H     3.10156   2.39791   0.38226
H     1.58000   3.32055   0.25911
H    -0.94788   0.27098   4.27428
H    -1.96292   0.63204   2.81983
H    -1.08191   1.93542   3.63367
H    -2.84998  -1.13113   1.48908
H    -5.20842  -0.52672   1.16446
H    -5.86231   1.10364  -0.61360
H    -4.08756   2.13942  -2.03737
H    -1.72781   1.56751  -1.68940
H    -0.72198  -1.59449   1.88565
H    -1.06279  -3.62163   0.57503
H    -2.05479  -2.47338  -0.33417
H    -0.54760  -2.70501  -2.19159
H     0.44760  -3.80466  -1.22609
H     1.91359  -1.84383  -1.50932
H     1.76553  -1.10218   1.05968
H     1.39625  -2.84468   0.91766
