28
Generated by autodE on: 2022-06-02. E = -596.319126 Ha
N    -0.43608   1.15486   3.19590
C    -0.72696   0.63554   2.19153
C    -1.14038   0.00555   0.99598
C    -0.38353  -0.34937  -0.08768
C     1.05950  -0.24228  -0.29618
C     1.57581  -0.18846  -1.60782
C     2.94775  -0.06580  -1.83071
C     3.83418  -0.01080  -0.75095
C     3.33761  -0.07948   0.55606
C     1.96720  -0.19243   0.78327
C    -1.37752  -0.75596  -1.16602
C    -2.06399   0.57033  -1.63467
C    -2.92043   0.97619  -0.40212
C    -2.61230  -0.16232   0.61934
C    -2.50233  -1.37971  -0.31671
H     0.89559  -0.22722  -2.45967
H     3.32652  -0.01531  -2.85412
H     4.90878   0.07895  -0.92607
H     4.02471  -0.05055   1.40490
H     1.60067  -0.26338   1.80773
H    -0.96304  -1.36463  -1.97722
H    -2.69297   0.36618  -2.51336
H    -1.32420   1.33186  -1.91787
H    -2.65602   1.96355   0.00167
H    -3.99403   0.98424  -0.64203
H    -3.30468  -0.22304   1.46728
H    -2.19249  -2.29786   0.20326
H    -3.42095  -1.56675  -0.89285
