49
Generated by autodE on: 2022-06-21. E = -962.977644 Ha
C     3.73740  -1.83493   4.23426
C     2.53648  -1.55282   3.68937
C     1.25098  -1.81892   4.42780
C     2.46288  -0.96969   2.34463
C     1.33241  -0.63892   1.69570
C     1.30214  -0.04207   0.32321
C     0.44493  -0.87225  -0.69639
C     1.07476  -0.75821  -2.10055
C     0.31154  -2.35065  -0.31045
C    -0.87507  -0.08776  -0.63683
C    -2.18719  -0.58963  -1.11179
C    -3.36273  -0.06856  -0.53508
C    -4.61932  -0.50105  -0.95462
C    -4.72981  -1.46173  -1.96653
C    -3.57302  -1.98477  -2.54980
C    -2.31236  -1.55833  -2.12414
N    -0.78427   1.08819  -0.12541
C     0.59653   1.35516   0.29370
C     0.61154   2.10550   1.63091
C     1.30377   2.28594  -0.71348
O     2.52660   2.46496  -0.66037
N     0.51270   2.92296  -1.58895
C     1.03803   3.84915  -2.57132
H     3.82348  -2.26858   5.23459
H     4.66623  -1.63755   3.69010
H     1.44248  -2.25584   5.41805
H     0.60467  -2.51028   3.86182
H     0.67268  -0.88986   4.56368
H     3.42368  -0.79619   1.84493
H     0.36453  -0.80463   2.17835
H     2.33469   0.05607  -0.03494
H     2.07220  -1.22406  -2.09045
H     1.19023   0.28859  -2.41550
H     0.47168  -1.27142  -2.86251
H    -0.26728  -2.48610   0.61412
H    -0.17986  -2.92898  -1.10480
H     1.31030  -2.78393  -0.14982
H    -3.27374   0.67729   0.25534
H    -5.51784  -0.08984  -0.48845
H    -5.71417  -1.80199  -2.29662
H    -3.64849  -2.73088  -3.34415
H    -1.42889  -1.97431  -2.60500
H     0.07134   1.54076   2.40263
H     1.64598   2.25921   1.96786
H     0.12757   3.08726   1.51616
H    -0.47698   2.69553  -1.57284
H     1.74960   3.35096  -3.24962
H     0.20671   4.24937  -3.16453
H     1.56370   4.68736  -2.08713
