23
Generated by autodE on: 2022-06-21. E = -351.521383 Ha
C     3.51994   1.00746  -0.94452
C     2.54191   0.24608  -0.40647
C     2.85559  -1.04821   0.29969
C     1.14763   0.67354  -0.50354
C     0.07793   0.00236  -0.00755
C    -1.28675   0.47242  -0.13147
C    -2.40632  -0.13909   0.33140
C    -2.41473  -1.44753   1.06975
C    -3.76085   0.47772   0.12515
H     4.57117   0.71172  -0.88651
H     3.28884   1.94669  -1.45661
H     3.93610  -1.24961   0.30064
H     2.34511  -1.89812  -0.18306
H     2.50653  -1.02501   1.34544
H     0.97309   1.62193  -1.02594
H     0.24369  -0.94372   0.51491
H    -1.41295   1.42644  -0.65763
H    -2.87356  -1.32109   2.06634
H    -1.41704  -1.88448   1.20546
H    -3.04226  -2.18288   0.53575
H    -4.42078  -0.20632  -0.43830
H    -3.70500   1.43275  -0.41763
H    -4.26203   0.65502   1.09379
