26
Generated by autodE on: 2022-06-21. E = -611.370149 Ha
C    -4.61033   0.96205   0.77084
N    -3.72499   0.05985   0.06321
C    -2.41167   0.33823  -0.09125
O    -1.89748   1.37043   0.37264
C    -1.61356  -0.67110  -0.83403
C    -2.18483  -1.96125  -1.35290
N    -0.37564  -0.36369  -1.01546
C     0.73719   0.09276  -1.20213
C     1.90043   0.03531  -0.32455
C     3.19785   0.02433  -0.86677
C     4.30784  -0.02050  -0.02202
C     4.13372  -0.01057   1.36624
C     2.84473   0.03139   1.91286
C     1.73008   0.04209   1.07626
H    -5.60066   0.49760   0.85242
H    -4.71533   1.92613   0.24585
H    -4.23269   1.17179   1.78377
H    -4.11638  -0.77116  -0.36505
H    -2.98707  -1.77596  -2.08791
H    -1.40275  -2.55570  -1.84328
H    -2.61646  -2.56408  -0.53657
H     3.32276   0.04160  -1.95141
H     5.31365  -0.04786  -0.44717
H     5.00478  -0.02780   2.02543
H     2.71009   0.04829   2.99693
H     0.72001   0.07777   1.49052
