54
Generated by autodE on: 2022-06-22. E = -1003.527082 Ha
C    -4.51468   1.61786  -2.13345
N    -3.76863   0.52438  -1.55267
C    -2.97236  -0.28416  -2.26546
O    -2.88450  -0.25063  -3.50133
C    -2.19256  -1.33443  -1.44121
C    -2.78277  -2.70246  -1.80876
C    -0.68646  -1.24625  -1.76214
C    -0.06394  -0.42433  -0.61107
C    -0.28254   1.07454  -0.85739
C     1.39359  -0.76741  -0.45857
C     2.42745   0.09341  -0.37296
C     3.81017  -0.33392  -0.22820
C     4.90314   0.45905  -0.11837
C     6.27524  -0.13644   0.03458
C     4.86786   1.96193  -0.13408
C    -0.94851  -0.92695   0.61486
C    -0.49237  -2.29868   1.15025
C    -0.94300   0.08641   1.75961
C     0.22702   0.29297   2.51346
C     0.26717   1.24254   3.53690
C    -0.86729   2.00292   3.84025
C    -2.03824   1.80071   3.10613
C    -2.07208   0.85404   2.07641
N    -2.28547  -1.05681   0.00222
H    -5.36033   1.87737  -1.48237
H    -3.88914   2.51761  -2.26798
H    -4.90252   1.32367  -3.11858
H    -3.63047   0.45084  -0.54486
H    -3.84958  -2.75128  -1.53715
H    -2.69530  -2.87808  -2.89055
H    -2.24608  -3.50050  -1.27468
H    -0.49708  -0.79586  -2.74527
H    -0.25886  -2.25848  -1.77503
H     0.18120   1.37155  -1.80986
H    -1.35075   1.31970  -0.90665
H     0.15394   1.68921  -0.05903
H     1.61945  -1.83913  -0.43175
H     2.23235   1.16788  -0.40041
H     3.96808  -1.41909  -0.20181
H     6.93936   0.19174  -0.78527
H     6.75139   0.20983   0.96961
H     6.25228  -1.23621   0.04351
H     5.29387   2.36489   0.80189
H     5.50181   2.35107  -0.95040
H     3.85992   2.37891  -0.25695
H    -0.42197  -3.03969   0.34137
H    -1.23520  -2.66046   1.87898
H     0.47962  -2.25381   1.65844
H     1.12579  -0.28299   2.29172
H     1.19165   1.38843   4.10142
H    -0.83775   2.74355   4.64318
H    -2.93489   2.38343   3.33266
H    -2.98829   0.70882   1.50523
H    -2.82864  -1.77129   0.48139
