23
Generated by autodE on: 2022-06-22. E = -351.521381 Ha
C     3.64542   0.90488  -0.43675
C     2.56488   0.10231  -0.31793
C     2.69534  -1.39875  -0.36210
C     1.23711   0.68758  -0.14253
C     0.07783  -0.00502  -0.01103
C    -1.21431   0.62731   0.16030
C    -2.41457   0.01009   0.30187
C    -3.67529   0.81064   0.46765
C    -2.60868  -1.47968   0.30676
H     4.65028   0.49404  -0.56852
H     3.54735   1.99439  -0.40436
H     2.09983  -1.82526  -1.18639
H     2.31926  -1.85800   0.56723
H     3.74241  -1.70369  -0.49876
H     1.19674   1.78328  -0.11770
H     0.10967  -1.09764  -0.03499
H    -1.20608   1.72398   0.17439
H    -4.18137   0.55290   1.41542
H    -4.39628   0.57582  -0.33606
H    -3.48462   1.89384   0.45819
H    -3.09942  -1.79722   1.24373
H    -3.28886  -1.77884  -0.51038
H    -1.67573  -2.04795   0.20023
