31
Generated by autodE on: 2022-07-27. E = -651.937062 Ha
C    -1.53840   2.17919  -1.23907
N    -0.58421   1.09730  -1.35270
C    -0.95923  -0.13090  -1.81730
O    -2.07726  -0.26556  -2.37421
C    -0.03537  -1.24155  -1.73776
C    -0.28456  -2.43572  -2.61062
N     1.10907  -1.27835  -0.99115
C     1.57566  -0.68972   0.12172
C     3.05494  -0.82066   0.34560
C     0.75046  -0.01292   1.11306
C     1.35845   0.86945   2.03902
C     0.61401   1.49136   3.04104
C    -0.75632   1.24220   3.16557
C    -1.37215   0.35728   2.27115
C    -0.64015  -0.24733   1.25365
H    -1.04603   3.03475  -0.75921
H    -1.91295   2.50076  -2.22406
H    -2.41102   1.89160  -0.62736
H     0.28291   1.19170  -0.84160
H     0.66107  -2.96197  -2.82912
H    -0.74788  -2.14541  -3.56482
H    -0.95633  -3.17851  -2.13927
H     1.78826  -1.93785  -1.38372
H     3.48073  -1.59972  -0.30656
H     3.28532  -1.07432   1.39157
H     3.58984   0.11784   0.11383
H     2.42526   1.08275   1.96404
H     1.11073   2.17902   3.72988
H    -1.33985   1.73329   3.94752
H    -2.43997   0.14330   2.36103
H    -1.15064  -0.92711   0.57169
