47
Generated by autodE on: 2022-10-22. E = -1371.008161 Ha
C     4.07416   1.04256   1.35329
N     2.81416   0.32731   1.40627
C     2.25410  -0.19016   0.30763
O     2.75554  -0.10908  -0.81497
C     0.90493  -0.91696   0.54706
C     1.10317  -2.45356   0.38209
C    -0.12760  -3.29881   0.52900
O     2.22021  -2.91254   0.26284
O     0.46958  -0.73533   1.89291
C    -0.68913   0.10050   1.96843
C    -1.73336  -0.61322   2.82914
C    -0.29434   1.38824   2.59787
N     0.01945   2.39094   3.08834
C    -1.08248   0.31437   0.50659
C    -0.21293  -0.31836  -0.29300
C    -0.22398  -0.52570  -1.80378
F    -1.53206  -0.87224  -2.18430
O     0.56032  -1.65345  -1.99092
C     0.95383  -2.03625  -3.30333
C     0.19213   0.67438  -2.65037
C    -0.65305   1.94585  -2.52626
C    -0.51008   2.72143  -1.19980
C    -1.70528   2.66162  -0.24771
C    -2.19359   1.27353   0.14418
F    -2.98133   0.75354  -0.84490
F    -3.03476   1.41547   1.22873
H     4.89930   0.37782   1.05151
H     4.02319   1.87047   0.62965
H     4.29212   1.45068   2.34737
H     2.33406   0.20274   2.29154
H    -0.97834  -2.87907  -0.02368
H    -0.40373  -3.32283   1.59568
H     0.08641  -4.32104   0.19171
H    -2.58687   0.03773   3.04795
H    -1.25629  -0.91567   3.77235
H    -2.07897  -1.50707   2.29234
H     1.74994  -1.38324  -3.69229
H     0.09837  -2.04153  -3.99615
H     1.34552  -3.05805  -3.21182
H     0.15658   0.33943  -3.69709
H     1.24226   0.88896  -2.40824
H    -0.33459   2.60059  -3.35094
H    -1.70864   1.70747  -2.72497
H    -0.34927   3.78740  -1.41957
H     0.39708   2.39108  -0.66730
H    -2.58302   3.16901  -0.68009
H    -1.45188   3.18511   0.68553
