24
Generated by autodE on: 2022-10-22. E = -724.584917 Ha
C    -0.37074   3.23883  -1.68114
O    -1.24539   2.11832  -1.54782
C    -0.63084   0.89855  -1.38181
F     0.10966   0.60060  -2.53915
C     0.30704   0.80541  -0.24431
C     0.85216   0.28543   0.70371
C     1.04615  -0.77207   1.70000
F     2.36476  -0.94871   2.01838
F     0.42661  -0.40948   2.87218
C     0.45378  -2.07469   1.17546
C    -0.98372  -1.97657   0.62953
C    -1.17831  -1.59456  -0.86534
C    -1.69929  -0.18296  -1.19547
H     0.30516   3.31452  -0.81177
H    -1.00640   4.13208  -1.72549
H     0.22902   3.16735  -2.60142
H     0.49363  -2.77712   2.02335
H     1.13878  -2.45102   0.40022
H    -1.42498  -2.97392   0.77093
H    -1.57236  -1.30272   1.27443
H    -1.91812  -2.29329  -1.28255
H    -0.24989  -1.78085  -1.43035
H    -2.26141  -0.19632  -2.14244
H    -2.38528   0.17243  -0.41170
