47
Generated by autodE on: 2022-10-22. E = -1370.879300 Ha. Imaginary frequency = -85.5 cm-1
C     4.33831  -0.58019   0.51059
N     3.11275  -1.34028   0.63690
C     2.01531  -0.78260   1.18095
O     2.04324   0.27109   1.83627
C     0.74421  -1.50936   0.99268
C     0.55319  -2.74558   0.23589
C    -0.81478  -3.37752   0.26450
O     1.47075  -3.23791  -0.43222
O    -0.30629  -1.22013   1.75777
C    -0.83123  -0.22940   2.39357
C    -2.17745  -0.50862   2.97769
C    -0.17761   0.97012   2.81895
N     0.06177   2.00924   3.29177
C    -1.05569   0.91472  -0.00949
C    -0.27852   0.27266  -0.70008
C     0.33569  -0.18640  -1.95819
F    -0.28033  -1.41611  -2.28598
O     1.67883  -0.40289  -1.75368
C     2.45319  -0.87866  -2.85251
C     0.00967   0.79958  -3.08582
C    -1.46272   1.23091  -3.20193
C    -1.91215   2.48151  -2.40137
C    -2.78449   2.26187  -1.15505
C    -2.02638   2.01056   0.13861
F    -2.92533   1.76935   1.14735
F    -1.34918   3.14486   0.51866
H     4.20747   0.29060  -0.15578
H     4.67401  -0.20972   1.48997
H     5.11919  -1.22864   0.09408
H     2.93389  -2.12267   0.00508
H    -1.57472  -2.66650  -0.09194
H    -1.08905  -3.66446   1.29151
H    -0.80642  -4.26562  -0.37952
H    -2.72983   0.42300   3.14222
H    -2.05333  -1.01330   3.95273
H    -2.74208  -1.17190   2.30820
H     2.63038  -0.08941  -3.59972
H     1.97017  -1.74348  -3.33091
H     3.41576  -1.19379  -2.42905
H     0.32081   0.30572  -4.01848
H     0.66061   1.67650  -2.94576
H    -1.63408   1.44748  -4.26648
H    -2.11436   0.37242  -2.96950
H    -2.50880   3.10974  -3.07869
H    -1.03666   3.09417  -2.12869
H    -3.46788   1.41131  -1.30105
H    -3.40224   3.15290  -0.95981
