46
Generated by autodE on: 2022-06-25. E = -1279.470046 Ha
C    -4.31521  -1.68760  -1.52388
N    -3.27740  -1.14560  -0.67009
C    -2.21740  -0.50537  -1.17050
O    -2.04484  -0.25654  -2.36195
C    -1.18690  -0.05738  -0.10098
C    -1.05106   1.47939  -0.16403
O    -0.88013   2.09211  -1.19511
O    -1.10569   2.03281   1.03650
C    -0.88554   3.45378   1.10572
O    -1.58135  -0.46781   1.19483
C    -0.57166  -1.25585   1.83209
C     0.71302  -0.90337   1.08341
O     1.73815  -1.86786   1.13098
C     2.11134  -2.34708   2.42048
C     1.33209   0.41783   1.58073
O     1.31162   0.67731   2.77426
C     2.03360   1.28702   0.60605
C     2.81401   2.43927   1.15598
C     1.92144   1.08797  -0.73979
C     2.57837   2.00853  -1.71809
C     1.11573  -0.02365  -1.30476
O     1.16673  -0.32476  -2.48401
C     0.18248  -0.79337  -0.36639
O    -0.18019  -2.04379  -0.87893
C     0.81821  -2.97810  -1.29753
H    -3.95581  -2.56237  -2.09076
H    -4.65354  -0.93003  -2.24567
H    -5.16559  -1.99401  -0.90289
H    -3.28194  -1.32419   0.32970
H    -1.69445   3.98549   0.58603
H     0.08068   3.70659   0.64849
H    -0.88402   3.70214   2.17239
H    -0.78762  -2.32904   1.71854
H    -0.53881  -0.98554   2.89374
H     2.91926  -3.07181   2.25412
H     1.27220  -2.85649   2.92168
H     2.48291  -1.53803   3.06956
H     2.75297   2.47118   2.24958
H     3.87298   2.36517   0.85899
H     2.43758   3.39134   0.74834
H     3.65221   2.11613  -1.49954
H     2.45447   1.64828  -2.74561
H     2.13449   3.01531  -1.63957
H     1.81994  -2.53655  -1.34654
H     0.84245  -3.82712  -0.59858
H     0.53729  -3.33815  -2.29886
