26
Generated by autodE on: 2022-06-25. E = -689.460878 Ha
C    -2.91885   1.73073  -0.14238
O    -1.52635   1.84023  -0.45518
C    -0.64986   0.87261  -0.18794
C    -0.85446  -0.33631   0.40693
O    -2.07089  -0.74186   0.87711
C    -2.72699  -1.75335   0.10559
C     0.28062  -1.25365   0.64419
O     0.08550  -2.31929   1.22635
C     1.65067  -0.87429   0.18428
C     2.75728  -1.85262   0.42139
C     1.86610   0.32525  -0.41073
C     3.22435   0.75389  -0.87333
C     0.73625   1.26502  -0.62662
O     0.89895   2.35269  -1.16242
H    -3.38268   0.89957  -0.69227
H    -3.07200   1.60009   0.93667
H    -3.36300   2.67937  -0.46953
H    -3.67906  -1.96489   0.61023
H    -2.12648  -2.67397   0.05830
H    -2.92756  -1.39246  -0.91697
H     3.25318  -2.11692  -0.52713
H     3.53421  -1.41209   1.06841
H     2.38223  -2.76778   0.89411
H     3.62455   0.04478  -1.61669
H     3.93710   0.76381  -0.03237
H     3.19418   1.75387  -1.32168
