20
Generated by autodE on: 2022-06-25. E = -589.918619 Ha
C     0.48445   2.32458  -1.09199
O    -0.18288   1.46944  -0.43489
C    -0.04892   0.18104  -0.03963
C    -1.19859  -0.30153   0.73759
O    -1.26699  -1.46084   1.18130
N    -2.20118   0.58721   0.95711
C    -3.37931   0.20912   1.70742
C     1.11215  -0.61534  -0.35930
O     1.30418  -1.77899  -0.02765
O     2.01840   0.07325  -1.09743
C     3.20651  -0.63008  -1.47251
H    -0.00249   3.29793  -1.18746
H     1.45933   2.08127  -1.51409
H    -2.13151   1.52678   0.58688
H    -3.12451  -0.11095   2.73111
H    -4.05087   1.07444   1.76963
H    -3.92137  -0.62116   1.22531
H     3.80586   0.07968  -2.05509
H     3.76547  -0.95470  -0.58258
H     2.96146  -1.50970  -2.08581
