32
Generated by autodE on: 2022-06-17. E = -859.473080 Ha
C     3.16938   1.92808  -0.01947
O     2.00501   1.19668   0.40177
C     1.23101   0.69747  -0.55527
O     1.43637   0.82543  -1.74150
C     0.04316  -0.07226   0.05307
C     0.59604  -1.32529   0.74870
O     0.17910  -1.76810   1.79324
O     1.57997  -1.86230   0.03623
C     2.15564  -3.08600   0.52684
O    -0.57948   0.72925   1.05326
C    -1.89112   1.09442   0.63285
C    -1.84989   2.39885  -0.06072
N    -1.79693   3.41983  -0.60925
C    -2.36760  -0.04631  -0.28350
C    -2.99383  -1.17566   0.53036
C    -1.04813  -0.39320  -1.01338
C    -0.97181  -1.77268  -1.65362
H     3.82985   1.27967  -0.61255
H     2.87361   2.80123  -0.61809
H     3.67251   2.24817   0.89971
H     1.38729  -3.87055   0.57284
H     2.93814  -3.35770  -0.18988
H     2.58643  -2.92787   1.52520
H    -2.51434   1.21059   1.53137
H    -3.09874   0.33028  -1.01326
H    -2.30339  -1.54847   1.30010
H    -3.27337  -2.01698  -0.11964
H    -3.90688  -0.81824   1.03031
H    -0.90797   0.35329  -1.80777
H    -1.79165  -1.89111  -2.37798
H    -0.02169  -1.89330  -2.19264
H    -1.05311  -2.58486  -0.91595
