12
Generated by autodE on: 2022-06-17. E = -157.299004 Ha
C     1.56633  -0.60265   0.08221
C     0.69157   0.59011  -0.16411
C    -0.64931   0.64494  -0.12593
C    -1.60315  -0.47349   0.17047
H     0.99643  -1.51402   0.31312
H     2.20071  -0.81195  -0.79724
H     2.25960  -0.41356   0.92092
H     1.22598   1.51900  -0.40086
H    -1.11881   1.61472  -0.33466
H    -1.09720  -1.42771   0.37561
H    -2.29681  -0.63111  -0.67438
H    -2.23481  -0.22910   1.04280
