20
Generated by autodE on: 2022-06-17. E = -702.060770 Ha
C     2.74666  -2.50109   0.38197
O     1.44652  -1.90633   0.26967
C     1.41272  -0.58091   0.12120
O     2.41032   0.11979   0.08438
C     0.05056  -0.03264   0.00523
O     0.09900   1.28624  -0.12784
C    -0.78551   2.21102  -0.26304
C    -0.28877   3.52888  -0.37671
N     0.07302   4.63325  -0.47394
C    -1.25384  -0.68637   0.01771
O    -2.30108  -0.05517  -0.07946
O    -1.21084  -2.01278   0.14060
C    -2.47441  -2.69282   0.16172
H     3.34241  -2.29985  -0.52022
H     2.57405  -3.57804   0.49028
H     3.27579  -2.10999   1.26309
H    -1.84950   1.97767  -0.28677
H    -3.02500  -2.51305  -0.77297
H    -3.08049  -2.35374   1.01433
H    -2.23712  -3.75780   0.26424
