20
Generated by autodE on: 2022-07-27. E = -702.053343 Ha
C     1.01584   2.85023  -0.95049
O     0.37797   1.78238  -0.23714
C     0.74327   0.53130  -0.53681
O     1.66263   0.25351  -1.28288
C    -0.08825  -0.43798   0.18814
O    -1.28149  -0.14401   0.67181
C    -2.18573   0.76750   0.62329
C    -2.18695   1.92944  -0.17988
N    -2.36445   2.88698  -0.82296
C     0.31628  -1.79575   0.58192
O    -0.40102  -2.54930   1.21776
O     1.55126  -2.10847   0.17938
C     2.02230  -3.41686   0.52892
H     0.87046   2.72579  -2.03307
H     0.53400   3.77193  -0.60640
H     2.09060   2.87045  -0.72130
H    -3.07457   0.53927   1.21587
H     1.37679  -4.19032   0.08783
H     3.03597  -3.48994   0.11856
H     2.04465  -3.54038   1.62150
