39
Generated by autodE on: 2022-06-01. E = -3662.772589 Ha
C    -1.20092  -5.00079   1.54841
O    -0.72819  -3.63977   1.51710
C    -0.27189  -3.19721   0.35991
O    -0.21094  -3.82998  -0.66844
C     0.13336  -1.73674   0.42472
N     1.27504  -1.34897  -0.34985
C     1.27518   0.06099   0.13703
C     2.38611   0.90928  -0.40801
C     3.53662   1.19827   0.33720
C     4.56848   1.95356  -0.22916
C     4.46230   2.41945  -1.54157
C     3.32013   2.12240  -2.29364
C     2.28925   1.37101  -1.73016
C     1.18617  -0.18832   1.67436
O     1.58127   0.47171   2.59945
O     0.49060  -1.34370   1.82437
C    -0.19600   0.46386  -0.18409
C    -0.64343   1.83475  -0.42996
C    -1.68303   2.09670  -1.34160
C    -2.10205   3.40669  -1.57692
C    -1.49429   4.47196  -0.90511
C    -0.46005   4.22068   0.00284
C    -0.03054   2.91467   0.23590
C    -0.88145  -0.68674  -0.03143
Br   -2.72337  -1.01998  -0.03683
H    -2.03485  -5.12454   0.84336
H    -1.53614  -5.17586   2.57626
H    -0.38568  -5.68871   1.28531
H     2.11230  -1.83819  -0.01494
H     3.62919   0.84333   1.36284
H     5.45956   2.17697   0.36187
H     5.26853   3.01188  -1.98040
H     3.23194   2.47843  -3.32253
H     1.40054   1.13930  -2.32010
H    -2.14823   1.27404  -1.88585
H    -2.90391   3.59579  -2.29412
H    -1.82341   5.49686  -1.09099
H     0.01787   5.04770   0.53260
H     0.77115   2.72853   0.95178
