39
Generated by autodE on: 2022-06-01. E = -3662.713628 Ha. Imaginary frequency = -436.0 cm-1
C    -1.15342  -4.99684   1.57781
O    -0.59108  -3.67313   1.59368
C    -0.12751  -3.21274   0.44166
O    -0.10690  -3.81629  -0.61198
C     0.31366  -1.80298   0.54377
N     1.18642  -1.29510  -0.37165
C     1.62079  -0.09016   0.07727
C     2.29959   0.91993  -0.70292
C     2.76259   2.09868  -0.08062
C     3.33315   3.11696  -0.84181
C     3.46019   2.97948  -2.22727
C     3.01049   1.81036  -2.85268
C     2.42941   0.79154  -2.10252
C     1.31873  -0.06405   1.50095
O     1.56633   0.72386   2.39178
O     0.62863  -1.25598   1.75591
C    -0.95821   0.60885   0.05433
C    -0.66781   1.98334  -0.13394
C    -0.45473   2.48708  -1.43980
C    -0.13017   3.82742  -1.63177
C    -0.00636   4.69035  -0.53635
C    -0.20750   4.20059   0.75905
C    -0.53205   2.86085   0.96713
C    -1.32976  -0.58425   0.14828
Br   -2.90645  -1.58332   0.10461
H    -2.01063  -5.03495   0.89034
H    -1.47845  -5.19585   2.60473
H    -0.39609  -5.72911   1.26530
H     1.15545  -1.58720  -1.34764
H     2.66016   2.21070   0.99678
H     3.67704   4.02833  -0.34812
H     3.90523   3.78133  -2.82050
H     3.10299   1.69694  -3.93493
H     2.06533  -0.10235  -2.61259
H    -0.54241   1.81112  -2.29140
H     0.03622   4.20095  -2.64467
H     0.25173   5.74021  -0.69165
H    -0.10665   4.86880   1.61748
H    -0.67715   2.47627   1.97746
