47
Generated by autodE on: 2022-06-22. E = -1202.378914 Ha
C    -4.26123  -2.25659   1.49393
O    -3.28017  -1.84766   0.52372
C    -2.24315  -1.16302   0.97444
O    -2.02738  -0.91968   2.14091
C    -1.24040  -0.78631  -0.14744
C    -1.78607  -1.14918  -1.46943
N    -2.17808  -1.44062  -2.52025
O    -0.06589  -1.54914   0.07324
C     1.02294  -0.76500   0.62584
C     1.47754  -1.47857   1.89705
C     2.15547  -0.68437  -0.38919
C     2.03363  -1.24332  -1.66851
C     3.08038  -1.15020  -2.59108
C     4.26808  -0.50081  -2.24601
C     4.40652   0.04112  -0.96405
C     3.36321  -0.05623  -0.04140
C     0.35200   0.61943   0.95064
N     1.20624   1.77325   0.97173
C     1.76156   2.18682   2.24619
C     1.37099   2.53237  -0.16872
C     0.68518   2.33529  -1.31215
C    -0.32048   1.23493  -1.45291
C    -0.81142   0.70978  -0.07415
C    -1.99033   1.56572   0.37698
N    -1.69752   2.74162   0.94457
O    -3.14834   1.17734   0.17930
H    -3.79751  -2.89932   2.25497
H    -4.70228  -1.37027   1.97150
H    -5.02296  -2.81026   0.93437
H     1.83369  -2.49012   1.65206
H     2.29729  -0.92919   2.37907
H     0.63899  -1.55477   2.60337
H     1.11103  -1.75275  -1.94599
H     2.96325  -1.58900  -3.58498
H     5.08454  -0.42345  -2.96798
H     5.33411   0.54298  -0.67817
H     3.49302   0.36651   0.95479
H    -0.09324   0.51506   1.94739
H     2.49757   2.98528   2.08220
H     0.98178   2.56890   2.93083
H     2.27326   1.35083   2.74798
H     2.09717   3.34331  -0.07461
H     0.87789   2.98392  -2.16764
H     0.10902   0.39392  -2.02031
H    -1.19458   1.56743  -2.03496
H    -2.45483   3.36268   1.21481
H    -0.73802   3.04309   1.07571
