20
Generated by autodE on: 2022-06-22. E = -457.715315 Ha
C    -3.16212  -0.29416  -0.08477
N    -1.81020   0.13628   0.23211
C    -1.61600   1.29244   0.99845
C    -0.39775   1.78971   1.26399
C     0.87826   1.15709   0.76555
C     0.56829  -0.07087  -0.07521
C     1.63979  -0.86743  -0.69422
N     2.90774  -0.43605  -0.47664
O     1.42822  -1.88596  -1.38371
C    -0.71327  -0.48604  -0.28309
H    -3.12325  -1.26091  -0.60210
H    -3.75692  -0.41300   0.83424
H    -3.67436   0.43335  -0.73690
H    -2.53168   1.75875   1.36650
H    -0.32732   2.69315   1.87408
H     1.46685   1.89699   0.18544
H     1.53294   0.89523   1.62227
H     3.12153   0.38786   0.07050
H     3.67425  -0.95580  -0.88977
H    -0.90623  -1.37078  -0.89192
