47
Generated by autodE on: 2022-06-22. E = -1202.304308 Ha. Imaginary frequency = -424.0 cm-1
C    -4.63827  -1.58537   0.84726
O    -3.51271  -1.22826   0.03385
C    -2.29552  -1.42206   0.56799
O    -2.11493  -1.91798   1.66408
C    -1.24639  -0.93623  -0.34937
C    -1.59163  -0.90162  -1.73488
N    -1.84457  -0.82504  -2.87031
O     0.04695  -1.28927  -0.18685
C     0.96334  -0.80882   0.69239
C     0.77035  -1.05718   2.15512
C     2.31021  -0.86222   0.10859
C     2.46723  -0.82313  -1.29381
C     3.73693  -0.78980  -1.86574
C     4.87689  -0.79592  -1.05348
C     4.73490  -0.84685   0.33748
C     3.46625  -0.87888   0.91463
C     0.45985   1.36750   0.49426
N     1.31293   1.88531  -0.46325
C     2.66691   2.28757  -0.12278
C     0.86184   2.04754  -1.77153
C    -0.44482   2.05055  -2.08071
C    -1.48927   1.97491  -0.99750
C    -0.93867   1.30720   0.25682
C    -1.79476   1.31903   1.48364
N    -3.12045   1.49078   1.28155
O    -1.32710   1.22956   2.62850
H    -4.62542  -1.01942   1.78953
H    -4.62890  -2.66296   1.06515
H    -5.52698  -1.32525   0.26105
H     0.95204  -2.12440   2.37320
H     1.48505  -0.46374   2.73850
H    -0.23872  -0.79914   2.47952
H     1.58372  -0.81107  -1.93152
H     3.83958  -0.75254  -2.95269
H     5.87215  -0.76517  -1.50287
H     5.61950  -0.86002   0.97820
H     3.37823  -0.91073   2.00037
H     0.78807   1.48420   1.52537
H     3.39911   1.83405  -0.80795
H     2.77848   3.38502  -0.17229
H     2.90200   1.96267   0.89694
H     1.64897   2.16363  -2.52037
H    -0.75749   2.13998  -3.12157
H    -1.83095   2.99395  -0.72031
H    -2.39102   1.46442  -1.36842
H    -3.73486   1.41544   2.08641
H    -3.53601   1.38946   0.36303
