21
Generated by autodE on: 2022-06-02. E = -383.595736 Ha
C     2.41344  -0.13029  -0.66174
C     1.06557   0.23285  -0.09392
C     0.87413   1.43782   0.56789
N     0.71093   2.45585   1.14524
N     0.00852  -0.69731  -0.09557
C     0.35606  -2.11196   0.13126
C    -1.26818  -0.36512  -0.22439
C    -1.65042   0.99055  -0.69884
C    -2.34117  -1.36232   0.08328
H     3.02880  -0.77613  -0.00653
H     2.32808  -0.63745  -1.63803
H     2.99151   0.79126  -0.82824
H    -0.21899  -2.76261  -0.53791
H     0.14464  -2.38237   1.17582
H     1.42185  -2.25806  -0.05905
H    -1.68433   1.74341   0.11051
H    -0.90585   1.36025  -1.42444
H    -2.64726   0.95164  -1.16097
H    -3.30072  -0.84640   0.21922
H    -2.46740  -2.08275  -0.74571
H    -2.12752  -1.94639   0.99115
