51
Generated by autodE on: 2022-06-02. E = -1130.402709 Ha. Imaginary frequency = -238.8 cm-1
C     5.06055   1.82124  -1.15755
N     3.97378   1.31963  -0.34100
C     2.68051   1.57257  -0.63777
O     2.34272   2.39061  -1.51030
C     1.64973   0.87133   0.14691
C     1.52958  -0.39696   0.60478
C     2.38497  -1.57862   0.48019
C     2.41226  -2.54258   1.50793
C     3.22436  -3.67291   1.40356
C     4.01168  -3.87139   0.26500
C     3.97725  -2.93297  -0.77273
C     3.17214  -1.79892  -0.66929
C     0.08202  -0.44781   1.17641
O    -0.04884   0.89477   1.66360
C     0.27133   1.53013   0.41443
C    -0.73854   0.85746  -0.53361
C    -0.84840  -0.41848  -0.04695
C    -3.27330  -0.51231   0.67455
C    -3.64710  -1.92868   0.30214
C    -3.03493  -0.33627   2.05026
N    -2.83219  -0.36366   3.20688
N    -3.53587   0.54009  -0.19784
C    -4.08241   0.13978  -1.50405
C    -3.00557   1.77777  -0.09631
C    -2.73454   2.38187   1.24986
C    -3.17282   2.75161  -1.22849
H     5.12816   1.29109  -2.12373
H     4.91823   2.89083  -1.36625
H     6.00702   1.68850  -0.61833
H     4.17411   0.58206   0.32640
H     1.80411  -2.39381   2.40227
H     3.24098  -4.40377   2.21550
H     4.64365  -4.75865   0.18209
H     4.57490  -3.09077  -1.67362
H     3.13253  -1.08674  -1.49504
H    -0.11950  -1.18678   1.95871
H     0.26116   2.62223   0.49245
H    -0.89541   1.19041  -1.55789
H    -1.13993  -1.31667  -0.58707
H    -3.22437  -2.60975   1.05382
H    -3.23646  -2.22731  -0.67428
H    -4.73837  -2.10252   0.28015
H    -4.79272  -0.67981  -1.37350
H    -4.62029   0.97608  -1.95645
H    -3.27528  -0.18506  -2.17908
H    -3.67846   2.47767   1.81801
H    -2.03150   1.80260   1.85194
H    -2.31738   3.38870   1.12040
H    -4.19459   3.17629  -1.25850
H    -2.47960   3.58943  -1.07450
H    -2.95922   2.31834  -2.21420
