23
Generated by autodE on: 2022-06-23. E = -572.032368 Ha
C     5.20894   0.20521  -0.70525
N     4.15641   0.50715   0.23673
C     2.83493   0.26067  -0.00064
O     2.43365  -0.28840  -1.04962
C     1.93416   0.67887   1.05408
N     0.64166   0.46546   0.87072
C    -0.47188   0.22327   0.59235
C    -1.80740  -0.06343   0.24272
C    -2.86920   0.24485   1.12404
C    -4.17725  -0.04971   0.74752
C    -4.44783  -0.64689  -0.48956
C    -3.39444  -0.95245  -1.36001
C    -2.07802  -0.66734  -1.00811
H     5.71478   1.11878  -1.06190
H     5.97289  -0.45408  -0.26076
H     4.77065  -0.30606  -1.57068
H     4.40318   0.97860   1.10000
H     2.25123   1.15770   1.98050
H    -2.65554   0.71011   2.08748
H    -4.99590   0.19015   1.42972
H    -5.47723  -0.87371  -0.77460
H    -3.60001  -1.41865  -2.32624
H    -1.25185  -0.90163  -1.68136
