26
Generated by autodE on: 2022-06-23. E = -689.460836 Ha
C     2.25655   2.27937   0.54405
O     1.88264   1.35311  -0.48146
C     0.77192   0.59917  -0.23157
C     0.82344  -0.73644   0.03521
O     1.88530  -1.53314   0.15363
C     3.22961  -1.04671   0.08379
C    -0.45382  -1.51327   0.21597
O    -0.38591  -2.71446   0.43801
C    -1.75820  -0.80736   0.13505
C    -3.00097  -1.61488   0.34989
C    -1.79744   0.52312  -0.12439
C    -3.08721   1.27566  -0.21614
C    -0.53236   1.28627  -0.34820
O    -0.56295   2.48064  -0.63959
H     3.16053   2.79141   0.18845
H     2.48373   1.74767   1.48312
H     1.46400   3.02047   0.72381
H     3.86364  -1.92816   0.24294
H     3.44123  -0.60769  -0.89964
H     3.42239  -0.30871   0.87552
H    -3.57683  -1.22249   1.20429
H    -3.66264  -1.55438  -0.52981
H    -2.76334  -2.66806   0.53991
H    -2.91379   2.33426  -0.44175
H    -3.73369   0.84633  -0.99948
H    -3.64930   1.20002   0.72950
