26
Generated by autodE on: 2022-06-25. E = -689.460837 Ha
C     3.19912  -1.13834  -0.03520
O     1.84310  -1.58510  -0.13738
C     0.80242  -0.75948  -0.02949
C     0.78418   0.57402   0.25222
O     1.91111   1.29177   0.53370
C     2.33256   2.22007  -0.47120
C    -0.50184   1.29731   0.35186
O    -0.50356   2.48872   0.65697
C    -1.78379   0.57399   0.09431
C    -3.05309   1.36239   0.16820
C    -1.77791  -0.75464  -0.17732
C    -3.03855  -1.52423  -0.42450
C    -0.49316  -1.49716  -0.24078
O    -0.45621  -2.69786  -0.47252
H     3.81081  -2.03569  -0.19276
H     3.40326  -0.71723   0.95758
H     3.42859  -0.39677  -0.81368
H     3.24421   2.69978  -0.09100
H     1.56617   2.98711  -0.65561
H     2.56212   1.69449  -1.41308
H    -2.85381   2.41577   0.39658
H    -3.60448   1.30172  -0.78464
H    -3.72165   0.95167   0.94306
H    -3.72166  -1.44209   0.43670
H    -2.82754  -2.58431  -0.60770
H    -3.57880  -1.11609  -1.29477
