52
Generated by autodE on: 2022-06-25. E = -1246.698575 Ha. Imaginary frequency = -430.2 cm-1
C     1.67357   0.24795   3.24240
O     2.54655   0.06578   2.12714
C     1.94526   0.18435   0.89450
C     1.59487  -0.93973   0.18489
O     1.76459  -2.09646   0.82375
C     1.56160  -3.40513   0.27673
C     1.10634  -0.84504  -1.23745
O     0.95580  -1.90690  -1.90203
C     0.92473   0.46032  -1.77090
C     0.61307   0.58356  -3.23438
C    -1.55074  -0.22719  -0.39305
C    -2.10667  -0.11787  -1.77233
C    -1.65311  -1.50432   0.32167
C    -1.29709  -1.63680   1.68164
C    -1.37058  -2.86917   2.32192
C    -1.79954  -4.00367   1.62272
C    -2.15665  -3.89048   0.27710
C    -2.08620  -2.65637  -0.36876
N    -1.16090   0.84973   0.27609
C    -0.69286   2.05006  -0.24717
C    -0.59074   3.09816   0.80657
C    -0.50103   4.53832   0.39181
O    -0.56701   2.77324   1.99205
C     1.09559   1.65256  -0.98295
C     1.45443   2.91750  -1.74232
C     1.82997   1.51340   0.33246
O     2.27637   2.50150   0.92807
H     2.30605   0.32233   4.13834
H     1.07914   1.16907   3.14159
H     0.99484  -0.61342   3.35612
H     1.75844  -4.08620   1.11532
H     2.26781  -3.60244  -0.53989
H     0.53706  -3.54150  -0.08131
H     0.30582  -0.38475  -3.64827
H    -0.18175   1.31931  -3.43263
H     1.49885   0.92100  -3.80307
H    -3.18233  -0.35945  -1.73179
H    -1.63642  -0.84550  -2.44639
H    -1.99430   0.88130  -2.19954
H    -0.94991  -0.78204   2.26192
H    -1.08666  -2.94545   3.37350
H    -1.85191  -4.97127   2.12649
H    -2.48912  -4.76970  -0.27860
H    -2.36504  -2.59639  -1.41925
H    -0.93363   0.75177   1.26883
H    -1.15334   2.37183  -1.18151
H    -0.64988   4.68697  -0.68387
H     0.48787   4.92561   0.68472
H    -1.25489   5.10965   0.95579
H     0.66321   3.21096  -2.44405
H     1.64855   3.74842  -1.05656
H     2.37201   2.74271  -2.32648
