40
Generated by autodE on: 2022-05-31. E = -1370.554082 Ha
C     3.67402   2.79551   2.60438
N     2.93685   1.79409   1.85599
C     1.60256   1.80044   1.79026
O     0.87003   2.63742   2.32413
C     0.97435   0.66010   1.03310
N     1.18725  -0.56387   1.37423
C     0.32735  -1.38918   0.51205
C    -0.56572  -2.19308   1.35211
N    -1.29504  -2.78303   2.03225
C     1.26732  -2.25665  -0.37535
O     1.96500  -1.76369  -1.22549
O     1.20872  -3.53108  -0.05070
C     2.05017  -4.43407  -0.79863
C    -0.45463  -0.41741  -0.36080
C    -0.02673   0.82044  -0.04753
C    -0.50447   2.13787  -0.60327
F     0.51639   3.05203  -0.51484
F    -0.73932   1.99845  -1.94826
C    -1.74397   2.68081   0.08210
C    -2.87171   1.66737   0.30970
C    -3.36490   0.86646  -0.91701
C    -2.94114  -0.60714  -0.97347
C    -1.49886  -0.90928  -1.33522
F    -1.35784  -2.28686  -1.39035
F    -1.21532  -0.47347  -2.59705
H     3.24480   3.79098   2.42404
H     4.72008   2.78932   2.27568
H     3.63938   2.59647   3.68799
H     3.44070   1.02596   1.42258
H     3.10500  -4.15669  -0.66749
H     1.85709  -5.42939  -0.38480
H     1.78038  -4.39677  -1.86292
H    -2.08460   3.52582  -0.53796
H    -1.41649   3.08265   1.05098
H    -2.57364   0.96901   1.10871
H    -3.71535   2.24102   0.72068
H    -4.46432   0.85374  -0.90091
H    -3.08625   1.36989  -1.85472
H    -3.13426  -1.09615  -0.00582
H    -3.53686  -1.13641  -1.73409
