20
Generated by autodE on: 2022-05-31. E = -661.131322 Ha
C    -2.84961  -2.03890   0.06016
N    -3.48112  -0.82101  -0.41845
C    -2.87509   0.35141  -0.62929
O    -3.38431   1.39645  -1.03006
C    -1.43744   0.38307  -0.34596
N    -0.29716   0.57818  -0.19825
C     1.01546   0.63642   0.01946
C     1.70696   1.84927  -0.18867
N     2.28773   2.84755  -0.35779
C     1.65770  -0.59709   0.46855
O     1.06658  -1.64958   0.65267
O     2.97385  -0.43052   0.65161
C     3.71246  -1.57939   1.09012
H    -3.27680  -2.34335   1.02698
H    -2.98959  -2.85400  -0.66451
H    -1.77009  -1.88287   0.19465
H    -4.48043  -0.83349  -0.61853
H     4.75403  -1.25004   1.17942
H     3.63358  -2.39276   0.35426
H     3.34045  -1.92878   2.06416
