40
Generated by autodE on: 2022-05-31. E = -1370.429343 Ha. Imaginary frequency = -187.2 cm-1
C     3.56539   3.22547   2.01776
N     2.90467   1.99220   1.62394
C     1.80171   1.56989   2.24824
O     1.29637   2.04186   3.26177
C     1.13861   0.41656   1.59565
N     1.08237  -0.76847   1.51363
C     0.78375  -1.86653   0.84440
C    -0.01498  -2.87488   1.44307
N    -0.66525  -3.70334   1.93993
C     1.49618  -2.06195  -0.43995
O     2.27839  -1.25474  -0.90256
O     1.14669  -3.21096  -1.01497
C     1.68432  -3.46703  -2.32248
C    -0.90597  -0.24310  -0.49211
C    -0.59531   0.84881  -0.03010
C    -0.83765   2.29775   0.09038
F    -1.54622   2.52918   1.24377
F     0.33826   2.99194   0.24124
C    -1.58864   2.84604  -1.11168
C    -2.89965   2.12448  -1.46778
C    -2.82793   0.93109  -2.45499
C    -2.93837  -0.48945  -1.87808
C    -1.63231  -1.11794  -1.41992
F    -0.82035  -1.36634  -2.50758
F    -1.88667  -2.34513  -0.86818
H     4.51970   3.29882   1.48363
H     2.94343   4.10096   1.76856
H     3.75770   3.22912   3.09944
H     3.17464   1.53561   0.75555
H     1.26163  -4.42834  -2.63510
H     2.78099  -3.52709  -2.27979
H     1.38059  -2.67207  -3.01705
H    -0.89111   2.83026  -1.96302
H    -1.78863   3.90168  -0.86884
H    -3.54540   2.88655  -1.92757
H    -3.41680   1.82293  -0.54163
H    -1.92025   1.00467  -3.07693
H    -3.67062   1.03568  -3.15372
H    -3.62427  -0.50824  -1.01729
H    -3.34123  -1.17927  -2.63669
