40
Generated by autodE on: 2022-06-18. E = -952.576576 Ha
C    -2.47005   3.40300   0.14228
N    -1.60436   2.28116  -0.16274
C    -1.09159   1.51420   0.80813
O    -1.32954   1.70685   2.00439
C    -0.20264   0.33691   0.32173
C    -1.04301  -0.72747  -0.43401
O    -0.57134  -1.29732  -1.42756
N    -2.24259  -1.03855   0.06925
C    -3.03892  -2.12244  -0.47966
C     0.95439   0.81384  -0.61492
C     0.59727   0.81052  -2.08804
O    -0.34540   1.43958  -2.54444
C     2.24356   0.02839  -0.18868
C     2.93280  -0.75523  -1.30909
C     3.24782   1.01640   0.42189
C     1.72484  -0.90480   0.94471
C     1.50884  -2.31349   0.52370
N     1.32379  -3.43451   0.28537
N     0.52190  -0.26663   1.44785
C    -0.19701  -1.02358   2.46351
H    -1.94798   4.16499   0.74366
H    -2.80011   3.86158  -0.79799
H    -3.35633   3.07669   0.70896
H    -1.31833   2.10386  -1.13176
H    -2.56354  -0.58021   0.91639
H    -2.52810  -3.09085  -0.35781
H    -4.00077  -2.15640   0.04539
H    -3.22084  -1.96340  -1.55297
H     1.12668   1.87770  -0.39140
H     1.28848   0.29577  -2.78138
H     3.36470  -0.07108  -2.05414
H     2.24843  -1.44311  -1.82351
H     3.75802  -1.34875  -0.88657
H     2.81332   1.53834   1.28735
H     3.53555   1.77212  -0.32508
H     4.15842   0.49275   0.75127
H     2.46905  -0.97366   1.75508
H    -0.56945  -2.00149   2.10408
H    -1.04059  -0.43524   2.83718
H     0.48718  -1.21516   3.30415
