14
Generated by autodE on: 2022-06-18. E = -270.683213 Ha
C    -0.61358  -1.45981   0.13559
C    -0.87062   0.01826   0.06407
C    -2.30143   0.44491   0.15902
C     0.11624   0.94556  -0.07535
C     1.54084   0.66573  -0.17344
O     2.07843  -0.43821  -0.12065
H    -1.55538  -2.02507   0.17036
H    -0.01679  -1.80270  -0.72336
H    -0.02167  -1.70780   1.03197
H    -2.42283   1.53602   0.11541
H    -2.74299   0.06885   1.09877
H    -2.88599  -0.01729  -0.65586
H    -0.15641   2.00390  -0.12296
H     2.17451   1.57576  -0.30855
