26
Generated by autodE on: 2022-07-27. E = -681.829308 Ha
C    -1.62352   3.55332  -0.44488
N    -1.23116   2.16147  -0.40516
C    -0.27459   1.73769   0.45640
O     0.22936   2.51806   1.28224
C     0.10360   0.30863   0.33523
C    -0.70368  -0.58588  -0.55810
O    -1.04689  -0.24865  -1.70345
N    -1.12501  -1.74559  -0.01764
C    -1.77546  -2.75757  -0.82903
N     1.15431  -0.20121   1.02396
C     1.67612   0.47233   2.24185
C     1.83062  -1.32144   0.69528
C     1.72685  -1.95855  -0.54924
N     1.69895  -2.50713  -1.58209
H    -2.45472   3.66680  -1.15220
H    -1.95440   3.89681   0.54679
H    -0.79618   4.21020  -0.76581
H    -1.46617   1.54789  -1.18326
H    -0.80867  -2.00441   0.91143
H    -2.73718  -2.39327  -1.22103
H    -1.14205  -3.04561  -1.68309
H    -1.95898  -3.64228  -0.20763
H     2.30638  -0.24712   2.77425
H     0.84271   0.79842   2.86761
H     2.27165   1.34222   1.94664
H     2.52809  -1.72443   1.42631
