10
Generated by autodE on: 2022-10-07. E = -455.051719 Ha
O    -2.72875   1.17725   0.04977
C    -1.96700   0.17132  -0.00257
O    -2.33888  -1.03243  -0.07367
C    -0.48110   0.46582   0.02501
C     0.48090  -0.46601  -0.02522
C     1.96693  -0.17134   0.00266
O     2.72894  -1.17704  -0.04972
O     2.33890   1.03238   0.07371
H    -0.19953   1.52226   0.09034
H     0.19944  -1.52249  -0.09048
