33
Generated by autodE on: 2022-10-07. E = -1060.366008 Ha. Imaginary frequency = -449.8 cm-1
C    -3.73576   1.40440   2.48930
N    -2.39760   1.00040   2.10360
C    -1.75383   1.61918   1.08353
O    -2.06686   2.72994   0.64504
N    -0.66323   0.87038   0.59825
N    -0.10959   1.41098  -0.49382
N     0.82690   0.71711  -1.10839
C     2.00445   0.38583  -0.41248
C     2.25658   0.62407   0.95276
C     3.50119   0.30612   1.49962
C     4.50172  -0.27872   0.71657
C     4.25282  -0.52498  -0.63859
C     3.02470  -0.18401  -1.20024
C    -0.27145  -1.14073  -1.15590
C     0.75826  -2.20118  -0.84985
O     0.97914  -2.47101   0.36311
O     1.33645  -2.72924  -1.84073
C    -1.28822  -0.85174  -0.21709
C    -2.63130  -0.36889  -0.73537
O    -3.66524  -0.83621  -0.19146
O    -2.59772   0.48668  -1.66642
H    -3.97532   0.97714   3.47196
H    -4.48977   1.06064   1.76060
H    -3.79115   2.49836   2.56025
H    -2.14467   0.03106   2.26859
H    -0.80773   1.77902  -1.15622
H     1.47994   1.05219   1.58210
H     3.68469   0.50703   2.55827
H     5.46718  -0.53773   1.15719
H     5.02688  -0.97354  -1.26617
H     2.82688  -0.35686  -2.25837
H    -0.49351  -0.97740  -2.21098
H    -1.28975  -1.44322   0.70003
