9
Generated by autodE on: 2022-05-28. E = -329.340486 Ha
C    -2.17505   0.56717  -0.30301
C    -1.12656  -0.42785   0.10239
O    -1.38607  -1.55499   0.49648
C     0.25408   0.02448   0.00144
C     1.39527   0.41411  -0.08538
F     2.59740   0.81287  -0.17333
H    -2.01184   0.86933  -1.35060
H    -2.08082   1.47648   0.31294
H    -3.17494   0.12903  -0.18512
