22
Generated by autodE on: 2022-05-28. E = -496.760432 Ha
C    -2.81920  -0.95388   0.63787
N    -1.55820  -0.31476   0.20447
C    -1.67899   0.92891  -0.36255
C    -2.90961   1.57474  -0.44812
N    -3.92635   2.16053  -0.53288
C    -0.44278  -1.01461   0.38475
C     0.93384  -0.62537   0.16322
C     1.87563  -1.68473   0.10798
C     3.23336  -1.43841  -0.06527
C     3.70281  -0.12262  -0.17105
C     2.79439   0.93655  -0.09105
C     1.42829   0.69776   0.06721
H    -3.29488  -0.32803   1.40431
H    -2.60392  -1.94122   1.05609
H    -3.49471  -1.04713  -0.22217
H    -0.81455   1.37429  -0.84293
H    -0.60593  -2.03386   0.73127
H     1.51750  -2.71305   0.20004
H     3.93294  -2.27613  -0.11532
H     4.76849   0.07379  -0.30841
H     3.15088   1.96752  -0.15259
H     0.76006   1.55150   0.15633
