40
Generated by autodE on: 2022-06-13. E = -1308.372068 Ha
C    -2.54851  -1.54660   2.65391
C    -2.71931  -0.12337   2.21834
O    -3.78148   0.46236   2.26538
C    -1.44024   0.61650   1.71870
C    -0.74026   1.20990   2.97256
C    -1.42423   2.34660   3.67147
O     0.32963   0.76169   3.33693
C    -0.55145  -0.28683   1.00043
C     0.02904  -0.79781   0.06868
C     0.44909  -0.96128  -1.31019
Cl    0.51066  -2.78892  -1.71318
C     1.82200  -0.37266  -1.60697
C     2.54743   0.31275  -0.62469
C     3.78772   0.88503  -0.92914
C     4.31445   0.77779  -2.21727
C     3.59455   0.09145  -3.20310
C     2.35854  -0.47855  -2.90063
C    -0.68297  -0.33733  -2.16982
C    -1.07325   1.10201  -1.76840
C    -2.19654   1.29187  -0.70883
C    -1.80863   1.75236   0.71196
H    -3.44129  -1.88651   3.19400
H    -1.64768  -1.65145   3.27860
H    -2.39443  -2.17730   1.76309
H    -0.97031   2.49912   4.65900
H    -1.28933   3.26207   3.07167
H    -2.50629   2.17711   3.76011
H     2.14175   0.40385   0.38400
H     4.34090   1.41630  -0.15113
H     5.28283   1.22417  -2.45509
H     4.00008  -0.00184  -4.21325
H     1.81212  -1.02503  -3.67148
H    -1.56220  -0.99406  -2.09372
H    -0.35292  -0.35643  -3.21847
H    -0.17218   1.66327  -1.46864
H    -1.42061   1.58415  -2.69466
H    -2.81588   0.38120  -0.65039
H    -2.86728   2.07489  -1.09479
H    -2.64875   2.30528   1.15281
H    -0.95524   2.44588   0.65266
