24
Generated by autodE on: 2022-06-13. E = -664.310321 Ha
C     2.99062   0.55318   1.81700
N     3.67302   0.25117   0.57089
C     3.10161   0.27825  -0.64212
O     3.64100  -0.02102  -1.70835
C     1.71537   0.78689  -0.68359
N     0.60692   0.37855  -0.86173
C    -0.64828   0.03507  -0.97665
C    -1.14713  -0.15874  -2.29456
N    -1.57205  -0.32059  -3.36830
C    -1.50636  -0.13929   0.20590
C    -0.99572   0.06292   1.50252
C    -1.82108  -0.09988   2.61491
C    -3.16182  -0.46798   2.45704
C    -3.67285  -0.67205   1.17099
C    -2.85564  -0.51003   0.05221
H     3.72848   0.88243   2.55944
H     2.27281   1.37319   1.66581
H     2.45026  -0.31908   2.21792
H     4.61784  -0.12637   0.60103
H     0.04845   0.34566   1.64250
H    -1.41099   0.06061   3.61469
H    -3.80407  -0.59580   3.33113
H    -4.71790  -0.95983   1.03508
H    -3.26571  -0.67079  -0.94710
