64
Generated by autodE on: 2022-06-13. E = -1972.686370 Ha. Imaginary frequency = -192.4 cm-1
C   -15.73826  -4.17962  -0.53508
N   -14.44512  -3.68974  -0.98185
C   -13.54731  -3.23443  -0.10437
O   -13.74489  -3.04910   1.09809
C   -12.16445  -3.00385  -0.59619
N   -11.43450  -2.04926  -0.69261
C   -10.27774  -1.48470  -0.96072
C    -9.60684  -0.90091   0.15597
N    -9.09711  -0.38372   1.06654
C    -9.82361  -1.24341  -2.33792
C   -10.60034  -1.65723  -3.43566
C   -10.11375  -1.50771  -4.73293
C    -8.85250  -0.94368  -4.95765
C    -8.08336  -0.51775  -3.86968
C    -8.56374  -0.65936  -2.56787
C    -9.48261  -4.17675  -1.24793
C   -10.62459  -4.63740  -1.31890
C   -11.46464  -5.75038  -1.77073
Cl  -12.55262  -5.11027  -3.20704
C   -12.38833  -6.31942  -0.70863
C   -12.15649  -6.03247   0.64290
C   -12.97841  -6.57666   1.63482
C   -14.03706  -7.41709   1.28590
C   -14.26622  -7.71724  -0.06227
C   -13.44665  -7.17476  -1.05182
C   -10.53285  -6.82299  -2.37614
C    -9.73281  -6.47856  -3.65307
C    -9.20750  -5.05613  -3.92969
C    -7.99146  -4.48321  -3.18984
C    -8.07672  -4.36471  -1.64397
C    -7.59278  -5.69975  -0.95731
C    -7.96197  -5.90771   0.48372
O    -6.94186  -6.50668  -1.58666
C    -7.09444  -3.30687  -1.07789
C    -5.80209  -3.09304  -1.80944
O    -7.35409  -2.73224  -0.03870
H   -16.34596  -3.36422  -0.11546
H   -16.26484  -4.60656  -1.39648
H   -15.61890  -4.95702   0.23554
H   -14.10403  -3.96964  -1.89982
H   -11.57789  -2.11242  -3.27324
H   -10.72293  -1.84148  -5.57585
H    -8.47311  -0.83398  -5.97584
H    -7.09840  -0.07487  -4.03303
H    -7.94891  -0.33981  -1.72474
H   -11.33566  -5.37078   0.92274
H   -12.79057  -6.33336   2.68291
H   -14.68510  -7.83587   2.05922
H   -15.09351  -8.37198  -0.34536
H   -13.64338  -7.39790  -2.10154
H   -11.13833  -7.71757  -2.58559
H    -9.86387  -7.10304  -1.54806
H    -8.89729  -7.19611  -3.70557
H   -10.38739  -6.71802  -4.50540
H    -8.92292  -5.04486  -4.99524
H   -10.03801  -4.34361  -3.85408
H    -7.09159  -5.06831  -3.42329
H    -7.83363  -3.47426  -3.59481
H    -8.01596  -4.95864   1.03276
H    -8.96270  -6.36794   0.52223
H    -7.24357  -6.59499   0.94982
H    -5.99321  -2.54386  -2.74456
H    -5.34662  -4.05566  -2.08629
H    -5.11779  -2.50984  -1.18036
