32
Generated by autodE on: 2022-05-29. E = -3491.345867 Ha
C     3.55476   1.94127  -2.51302
N     2.78958   1.46552  -1.37889
C     2.58093   0.16404  -1.15957
O     3.01322  -0.73292  -1.89248
C     1.81607  -0.18427   0.12191
N     1.34302   0.99894   0.84442
N    -0.00786   1.13895   0.45479
C    -0.63856   2.36365   0.43315
C     0.21788   3.56459   0.72758
O    -1.83817   2.43782   0.19121
C    -0.63857  -0.11791   0.22583
Br   -1.69068  -0.68466   1.82673
C    -1.44879  -0.22690  -1.10425
C    -2.04439  -1.62572  -1.17188
C    -1.01506  -2.44168  -1.42216
C     0.20531  -1.54105  -1.52407
O    -0.34919  -0.31437  -2.02517
C     0.57009  -1.08745  -0.08110
F     0.64518  -2.16786   0.76609
H     3.48013   3.03435  -2.56085
H     3.16386   1.51578  -3.44944
H     4.61786   1.66109  -2.43079
H     2.45602   2.11096  -0.66887
H     2.52541  -0.73819   0.75124
H     1.37490   0.82193   1.85272
H     0.99948   3.67557  -0.03955
H    -0.42585   4.45249   0.72178
H     0.71781   3.47057   1.70217
H    -2.09055   0.63057  -1.31170
H    -3.08664  -1.87268  -0.97715
H    -0.99850  -3.52914  -1.47927
H     1.05388  -1.87787  -2.12072
