19
Generated by autodE on: 2022-07-27. E = -510.888257 Ha
C     0.57055  -1.69469  -2.76340
N     0.43645  -1.12458  -1.44004
C     1.03841  -1.64213  -0.35013
O     1.74942  -2.67208  -0.33892
C     0.83064  -0.92288   0.93721
N     0.13698   0.16494   1.12650
N    -0.54059   0.87203   0.22191
C    -1.14962   1.95699   0.81119
C    -1.96520   2.80325  -0.12340
O    -1.05433   2.21710   2.02419
H    -0.40764  -2.01692  -3.15469
H     0.99399  -0.95754  -3.46354
H     1.23635  -2.56434  -2.71673
H    -0.10449  -0.26579  -1.29389
H     1.31285  -1.34603   1.81832
H     0.08369   0.55911   2.08744
H    -1.78821   2.54522  -1.17512
H    -3.03358   2.65605   0.10701
H    -1.73663   3.86526   0.05115
