32
Generated by autodE on: 2022-05-29. E = -3491.238797 Ha. Imaginary frequency = -323.1 cm-1
C     2.92556   0.58146  -3.09772
N     2.49029   0.80915  -1.73580
C     2.72963  -0.09806  -0.77304
O     3.47778  -1.07634  -0.91446
C     2.10234   0.12780   0.56219
N     1.36692   1.19474   0.88704
N     0.46166   1.63258   0.01976
C    -0.34939   2.68911   0.40220
C    -0.08634   3.41442   1.69868
O    -1.27731   2.99649  -0.34103
C    -0.74281  -0.42052   0.09122
Br   -1.99313  -0.06241   1.45356
C    -1.16247  -0.61439  -1.36989
C    -1.83967  -2.00516  -1.43246
C    -0.84824  -2.88272  -1.24314
C     0.42763  -2.02413  -1.08151
O     0.11833  -0.91902  -1.94357
C     0.31218  -1.30085   0.27628
F     0.49446  -1.99855   1.41379
H     2.29614  -0.17424  -3.59914
H     2.86188   1.52134  -3.66115
H     3.96514   0.22831  -3.11067
H     1.67848   1.40657  -1.57361
H     2.62567  -0.34809   1.39190
H     1.23298   1.35480   1.89261
H    -0.79220   4.24862   1.78852
H    -0.23476   2.73807   2.55855
H     0.94634   3.79246   1.74587
H    -1.65058   0.23389  -1.85986
H    -2.90833  -2.17720  -1.55378
H    -0.88421  -3.96907  -1.17357
H     1.39377  -2.47848  -1.31880
