47
Generated by autodE on: 2022-06-05. E = -3630.448041 Ha
C     4.44640   0.04718  -0.58352
C     3.51865  -1.13139  -0.44713
O     3.87090  -2.27622  -0.70377
C     2.15414  -0.83052   0.02406
C     1.03603  -1.58748   0.00323
Br    0.75387  -3.31938  -0.62898
C    -0.11155  -0.68075   0.43140
O     0.55974   0.18681   1.34735
C     1.63842   0.54204   0.46872
C     0.88864   1.14599  -0.76028
C     0.34949   2.58968  -0.60196
C     1.24857   3.41098   0.32054
C     0.90351   3.49588   1.78021
O     2.24779   3.93951  -0.14384
N    -1.01610   2.45124  -0.14192
C    -1.81724   3.65246  -0.28178
C    -1.60312   1.21121  -0.69128
C    -2.15904   1.42097  -2.11496
C    -2.67571   0.66356   0.25271
C    -3.58701  -0.31307  -0.17994
C    -4.51542  -0.87115   0.70354
C    -4.55485  -0.45843   2.03877
C    -3.65331   0.51422   2.48007
C    -2.72163   1.06579   1.59603
C    -0.38091   0.24505  -0.79405
H     5.38516  -0.26517  -1.05862
H     4.66001   0.46058   0.41676
H     3.97290   0.85453  -1.16483
H    -0.98106  -1.16462   0.88408
H     2.36572   1.18505   0.97282
H     1.51131   1.07396  -1.65786
H     0.41594   3.08471  -1.59291
H     0.58829   2.51805   2.16836
H     1.76255   3.88749   2.34103
H     0.04815   4.17792   1.91399
H    -2.84421   3.46634   0.06416
H    -1.40371   4.46198   0.33830
H    -1.86563   4.02894  -1.32352
H    -1.39187   1.88424  -2.75450
H    -3.04710   2.06831  -2.11068
H    -2.43746   0.46489  -2.57783
H    -3.56917  -0.65803  -1.21453
H    -5.21191  -1.63286   0.34429
H    -5.28250  -0.89172   2.72921
H    -3.67224   0.84630   3.52122
H    -2.01206   1.81679   1.94231
H    -0.46466  -0.35640  -1.70611
