18
Generated by autodE on: 2022-06-05. E = -3033.822806 Ha
C     3.01022   1.52000  -0.54944
C     2.10034   0.36341  -0.22804
O     2.51380  -0.67167   0.28339
C     0.67863   0.54860  -0.55712
C    -0.40722  -0.15176  -0.17005
Br   -0.56823  -1.64847   0.92314
C    -1.63509   0.62847  -0.69435
C    -1.70838   1.93136   0.13512
C    -0.64900   2.64220  -0.26044
C     0.05633   1.75758  -1.31306
O    -1.08175   1.11732  -1.92252
H     2.62240   2.44977  -0.10163
H     3.04001   1.67957  -1.64020
H     4.02334   1.31680  -0.17925
H    -2.55669   0.05557  -0.83964
H    -2.45239   2.14202   0.90196
H    -0.28397   3.60675   0.09003
H     0.69310   2.25413  -2.05117
