34
Generated by autodE on: 2022-06-17. E = -914.801263 Ha
C    -2.14323  -1.88196   1.19163
O    -1.96313  -0.96183   0.10245
C    -1.52693   0.25737   0.40737
O    -1.40546   0.66926   1.54047
C    -1.23192   1.07822  -0.86049
C    -2.44809   1.12516  -1.78191
O    -0.92086   2.40797  -0.43112
O     0.45830   2.72954  -0.84874
C     1.12486   1.48173  -0.93708
C     1.60169   0.96333   0.42647
C     1.50946  -0.53987   0.54434
C     1.96447  -1.24068   1.75603
N     2.58083  -0.48742   2.69861
O     1.78624  -2.46288   1.94107
C     0.95541  -1.29899  -0.44220
N     0.38896  -0.80279  -1.57525
C    -0.28207  -1.68939  -2.51417
C     0.07169   0.59734  -1.60769
H    -2.54121  -2.80025   0.74566
H    -2.84961  -1.47534   1.92817
H    -1.17398  -2.08191   1.67198
H    -3.32256   1.52411  -1.24710
H    -2.68935   0.12107  -2.15467
H    -2.22108   1.77883  -2.63617
H     1.96250   1.66160  -1.62580
H     2.63926   1.30255   0.57855
H     0.99610   1.44670   1.21022
H     2.76157   0.50129   2.58014
H     2.88911  -0.93828   3.55307
H     0.94750  -2.38556  -0.34273
H    -1.32930  -1.88010  -2.22799
H    -0.26816  -1.24059  -3.51770
H     0.25122  -2.64837  -2.55455
H    -0.03962   0.90870  -2.65389
