14
Generated by autodE on: 2022-06-17. E = -457.015058 Ha
C     2.88976   0.02372  -0.05871
O     1.51302  -0.13202   0.33162
C     0.60105   0.21874  -0.56114
O     0.82687   0.65315  -1.67067
C    -0.80251   0.02734  -0.06708
C    -1.98196   0.34088  -0.87570
O    -0.90587  -0.43326   1.11338
O    -2.13974  -0.63433   1.62441
H     3.10295   1.08008  -0.27553
H     3.10262  -0.58739  -0.94721
H     3.48255  -0.32038   0.79566
H    -1.69665   0.73318  -1.85643
H    -2.60928   1.06323  -0.32376
H    -2.59687  -0.57145  -0.97507
