34
Generated by autodE on: 2022-06-17. E = -914.723726 Ha. Imaginary frequency = -322.1 cm-1
C    -3.26771  -1.83642   0.57865
O    -2.38553  -0.71408   0.42767
C    -2.53857   0.02273  -0.67147
O    -3.35259  -0.20662  -1.54844
C    -1.57751   1.15375  -0.75184
C    -1.75838   2.17540  -1.81660
O    -0.98133   1.40941   0.38896
O     0.06496   2.25941   0.29206
C     1.25054   1.09336  -1.20959
C     2.39236   0.88546  -0.25012
C     2.08672  -0.26997   0.68161
C     2.78497  -0.46270   1.96270
N     3.75941   0.43223   2.25947
O     2.52170  -1.39679   2.74584
C     1.18882  -1.22018   0.30329
N     0.45869  -1.15312  -0.85009
C    -0.29536  -2.30424  -1.32265
C     0.40889   0.05107  -1.55600
H    -2.97588  -2.32309   1.51589
H    -4.31154  -1.49543   0.63289
H    -3.15232  -2.53174  -0.26463
H    -0.93051   2.88953  -1.82001
H    -1.84910   1.69541  -2.79933
H    -2.70174   2.71947  -1.62422
H     1.27552   1.96297  -1.86456
H     2.58299   1.81683   0.30415
H     3.31835   0.69068  -0.83270
H     4.26072   0.33049   3.13510
H     4.01048   1.19405   1.64260
H     1.01706  -2.10169   0.92329
H    -0.59346  -2.93082  -0.47208
H     0.30427  -2.91719  -2.01720
H    -1.19671  -1.97404  -1.85447
H    -0.11381   0.02339  -2.51092
