56
Generated by autodE on: 2022-06-06. E = -1407.882255 Ha
C    10.64179 -19.16394  14.26051
N    10.55759 -18.05450  13.32977
C     9.49201 -17.87579  12.55083
O     8.54397 -18.67301  12.53180
C     9.40733 -16.57071  11.68245
C    10.78488 -15.93653  11.34690
C    10.97302 -15.33758   9.99022
O    11.66568 -15.88531  12.19268
N     8.56941 -16.81723  10.53100
C     7.38255 -15.97095  10.49142
C     7.44855 -15.01176   9.27138
O     8.11943 -13.97644   9.34436
N     6.84673 -15.40708   8.14167
C     6.84447 -14.56016   6.96267
C     6.07474 -16.81489  10.53346
O     4.99880 -16.34608  10.13097
N     6.19732 -18.01933  11.08705
C     5.03519 -18.82405  11.40228
C     7.50579 -15.18726  11.79319
C     8.60603 -15.53001  12.48513
C     9.05503 -15.10990  13.85421
C     8.35387 -15.83691  15.01880
C     6.87173 -15.51789  15.24789
C     5.89559 -16.03286  14.17081
C     5.33599 -15.01276  13.18101
C     6.39520 -14.25746  12.28049
C     5.65461 -13.62530  11.16363
N     5.04362 -13.07423  10.34808
C     6.94211 -13.09278  13.01136
N     7.30442 -12.14033  13.56326
H    10.54473 -20.12709  13.73706
H    11.61441 -19.12889  14.76581
H     9.84336 -19.10575  15.01801
H    11.28192 -17.33762  13.30152
H    11.94891 -14.83794   9.95092
H    10.93396 -16.12272   9.21680
H    10.15953 -14.62938   9.77201
H     9.03882 -16.95177   9.64363
H     6.14053 -16.13333   8.21119
H     6.39416 -15.11138   6.12830
H     6.26769 -13.63612   7.13551
H     7.87139 -14.27691   6.69262
H     7.11390 -18.27300  11.48479
H     5.36712 -19.81566  11.73500
H     4.43315 -18.36575  12.20583
H     4.38866 -18.94106  10.52016
H    10.13448 -15.29324  13.93300
H     8.92788 -14.02687  13.97695
H     8.46660 -16.92616  14.89350
H     8.90915 -15.57596  15.93421
H     6.59585 -15.98275  16.20762
H     6.73843 -14.43344  15.40044
H     5.00697 -16.45595  14.66526
H     6.35335 -16.86903  13.62110
H     4.65253 -15.52204  12.48981
H     4.75368 -14.23751  13.70100
