34
Generated by autodE on: 2022-07-27. E = -911.082553 Ha
C     2.10080  -2.90610   2.82726
N     1.93979  -1.55607   2.32792
C     1.23138  -1.30173   1.21896
O     0.59508  -2.20674   0.62601
C     1.29003   0.07005   0.67635
N     0.47740   0.47889  -0.33524
C    -0.75269   0.33775  -0.81273
C    -0.85942   1.14660  -2.08740
O     0.17804   1.68901  -2.51602
N    -2.03746   1.22546  -2.70519
C    -2.20572   1.99560  -3.92041
C    -1.96927  -0.22364  -0.14993
O    -3.08269   0.25538  -0.44932
N    -1.83198  -1.17212   0.77764
C    -2.99442  -1.71312   1.45252
C     2.38770   0.98674   0.99040
C     2.56210   2.23797   0.15704
O     3.15663   0.78269   1.94166
H     1.12201  -3.37741   3.00042
H     2.66088  -3.54263   2.12152
H     2.64813  -2.86817   3.77711
H     2.55107  -0.79967   2.64575
H     0.93092   1.16213  -0.98727
H    -2.84058   0.88935  -2.16910
H    -3.18866   1.76934  -4.35131
H    -2.14466   3.08001  -3.72775
H    -1.42560   1.73693  -4.65074
H    -0.94001  -1.69355   0.79699
H    -3.68124  -2.21019   0.74693
H    -2.65814  -2.44517   2.19725
H    -3.55665  -0.91656   1.96223
H     3.46305   2.75836   0.50397
H     2.67871   2.00579  -0.91441
H     1.69647   2.91091   0.26057
