22
Generated by autodE on: 2022-06-06. E = -496.693783 Ha
N     0.59619   0.60182  -2.98680
C     0.17861   0.74812  -1.91578
C    -0.35987   0.88108  -0.54326
C    -1.02100   2.19767  -0.42823
N    -1.56357   3.21499  -0.31299
C     0.71916   0.70132   0.43834
C     1.36558   0.03625   1.21917
C     1.79694  -1.06893   2.05860
C     1.11778  -2.34342   1.49461
C    -0.39299  -2.22731   1.20005
C    -0.84145  -1.68286  -0.18656
C    -1.42063  -0.25897  -0.27491
H     1.47067  -0.88715   3.09654
H     2.89170  -1.18509   2.07833
H     1.28043  -3.14880   2.22833
H     1.64336  -2.64578   0.57363
H    -0.88508  -1.65203   2.00364
H    -0.79881  -3.24752   1.28072
H    -1.65062  -2.33732  -0.54433
H    -0.02884  -1.80211  -0.92337
H    -1.92985   0.01215   0.66160
H    -2.15953  -0.19490  -1.08722
