37
Generated by autodE on: 2022-06-18. E = -967.438402 Ha
C     5.05468  -0.00073  -1.01802
N     3.67737   0.21862  -0.62467
C     2.90198  -0.78158  -0.17395
O     3.26971  -1.96200  -0.11676
C     1.54109  -0.39501   0.29324
N     1.27478   0.80303   0.67761
N     0.01731   0.84414   1.19486
C    -0.42297   1.96216   1.86889
C     0.41926   3.20235   1.73871
O    -1.45419   1.91763   2.53372
C    -0.58382  -0.51278   1.30382
C    -2.05844  -0.57443   0.90855
C    -2.22984  -0.38390  -0.57343
C    -3.36901   0.29588  -1.20104
N    -4.34716   0.74936  -0.37625
O    -3.46190   0.46234  -2.43509
C    -1.29943  -0.96353  -1.38213
N    -0.20255  -1.63104  -0.93186
C     0.68558  -2.25305  -1.90529
C     0.35752  -1.34578   0.40356
H     5.43775   0.90812  -1.49741
H     5.12298  -0.83571  -1.73094
H     5.69327  -0.24116  -0.15159
H     3.31120   1.16455  -0.58401
H     1.39493   3.05141   2.22507
H    -0.11008   4.02969   2.22677
H     0.61112   3.44447   0.68384
H    -0.46509  -0.83889   2.34781
H    -2.42815  -1.56830   1.21958
H    -2.59852   0.16894   1.50372
H    -4.34530   0.58403   0.62158
H    -5.15327   1.20399  -0.79042
H    -1.43144  -0.94976  -2.46650
H     1.26304  -3.05226  -1.42409
H     1.39355  -1.53409  -2.35382
H     0.08505  -2.69313  -2.71224
H     0.64412  -2.29418   0.87608
