20
Generated by autodE on: 2022-06-18. E = -457.715335 Ha
C    -3.14784   0.33019  -0.28639
N    -1.80896  -0.22474  -0.17355
C    -1.64881  -1.59911   0.04366
C    -0.44861  -2.16614   0.24334
C     0.84146  -1.38381   0.25417
C     0.56758   0.09522   0.03551
C     1.66141   1.07953   0.01408
N     2.91106   0.58468   0.20083
O     1.48468   2.30266  -0.16116
C    -0.69826   0.56408  -0.15333
H    -3.07997   1.38992  -0.56242
H    -3.69984   0.24928   0.66538
H    -3.72125  -0.19753  -1.06420
H    -2.57516  -2.17628   0.03560
H    -0.40385  -3.24634   0.40000
H     1.37912  -1.55029   1.21006
H     1.53090  -1.77752  -0.52089
H     3.09592  -0.40150   0.33293
H     3.69472   1.22812   0.18778
H    -0.86676   1.63135  -0.30529
