32
Generated by autodE on: 2022-05-30. E = -1454.425717 Ha
C     3.45409   1.23179   2.04629
C     2.69571   0.27703   1.17372
O     3.20384  -0.70527   0.66664
C     1.23455   0.57712   0.94734
N     0.68437   1.57617   1.51493
C    -0.72415   1.68256   1.15758
C    -1.54920   2.21306   2.32104
C    -1.10013   0.26837   0.58157
C    -1.54242  -0.65919   1.73238
C    -2.28678   0.37231  -0.39795
F    -2.57272  -0.79192  -0.99768
F    -3.39602   0.74800   0.27033
F    -2.11328   1.28286  -1.36967
C     0.30486  -0.19609  -0.02304
C     0.62429   0.34399  -1.44958
F     0.40289   1.66188  -1.53817
F     1.91354   0.16453  -1.76347
F    -0.11076  -0.27174  -2.38511
C     0.50221  -1.74437  -0.03217
F     1.46803  -2.14979  -0.86246
F    -0.61112  -2.37727  -0.43491
F     0.80328  -2.19432   1.19234
H     4.49037   0.88481   2.14303
H     2.98252   1.30056   3.03808
H     3.43243   2.24205   1.60931
H    -0.78096   2.42475   0.34668
H    -1.44505   1.58960   3.21921
H    -2.61136   2.27180   2.04926
H    -1.20111   3.22709   2.56504
H    -0.75060  -0.75018   2.48476
H    -1.80685  -1.65903   1.37429
H    -2.42746  -0.23842   2.22032
