18
Generated by autodE on: 2022-05-30. E = -1129.534879 Ha
C    -1.77125   1.51639  -0.94204
C    -1.03142   0.38040  -0.29774
C     0.30407   0.30505  -0.13195
C     1.25396   1.29728  -0.78646
F     0.75896   1.82383  -1.91368
F     2.40203   0.68433  -1.13031
F     1.57149   2.31626   0.02808
C     1.02501  -0.72788   0.72414
F     1.41613  -1.80204   0.02359
F     0.27831  -1.15688   1.74949
F     2.12917  -0.18245   1.26852
C    -1.96765  -0.73397   0.17664
F    -3.09362  -0.73088  -0.55445
F    -2.33086  -0.57025   1.45704
F    -1.43298  -1.95606   0.04224
H    -2.04906   1.26190  -1.97758
H    -2.70691   1.68615  -0.38922
H    -1.19739   2.44652  -0.94282
