14
Generated by autodE on: 2022-05-30. E = -324.801142 Ha
C     2.87885   1.12401  -0.02128
C     2.14760  -0.17888   0.00531
N     0.92203  -0.26729   0.29190
C    -0.22980  -0.30962   0.65791
C    -1.48399  -0.27932  -0.05923
C    -2.06622   1.08678  -0.32558
O    -2.07261  -1.32218  -0.35072
H     3.25388   1.33909  -1.03674
H     3.75810   1.07629   0.64320
H     2.23116   1.95189   0.29967
H     2.67695  -1.11105  -0.22562
H    -3.05672   1.16535   0.15074
H    -2.21027   1.18442  -1.41407
H    -1.41933   1.90111   0.02958
