25
Generated by autodE on: 2022-07-27. E = -593.354378 Ha
C     2.70408  -2.61150  -0.38907
O     2.38813  -1.25224  -0.69048
C     1.11441  -0.85335  -0.42235
O     0.28723  -1.62583   0.06157
C     0.92563   0.50707  -0.83473
N    -0.27925   1.13755  -0.83877
C    -0.49255   2.11291  -1.92783
C    -1.29571   0.88664  -0.00061
C    -2.69557   1.23286  -0.40571
C    -1.08326   0.36758   1.35943
C     0.21427   0.61165   2.09699
O    -2.02943  -0.13014   1.97777
H     2.10695  -3.30291  -1.00329
H     3.76906  -2.73543  -0.62142
H     2.52469  -2.83286   0.67409
H     1.72161   0.98671  -1.39854
H    -1.04385   2.98217  -1.55268
H     0.48493   2.42451  -2.31075
H    -1.05972   1.63627  -2.73915
H    -2.90761   0.94962  -1.44756
H    -3.38790   0.69627   0.25415
H    -2.90348   2.31263  -0.30440
H    -0.05444   1.06158   3.06502
H     0.92539   1.25774   1.56717
H     0.70525  -0.35099   2.30502
