25
Generated by autodE on: 2022-06-18. E = -593.352126 Ha
C     4.06303  -0.49356  -0.95972
O     2.65470  -0.68036  -0.81895
C     1.97354   0.30621  -0.17467
O     2.55845   1.29702   0.25677
C     0.57548  -0.06524  -0.13731
N    -0.44623   0.62111   0.40813
C    -0.16394   1.91841   1.06570
C    -1.75557   0.22000   0.41355
C    -2.76206   1.12623   1.06631
C    -2.17573  -1.03690  -0.18293
C    -3.64751  -1.40135  -0.11958
O    -1.40269  -1.83857  -0.74308
H     4.55121  -0.41648   0.02379
H     4.28459   0.41510  -1.54020
H     4.43490  -1.37701  -1.49301
H     0.30965  -1.00547  -0.60163
H    -0.72964   2.70852   0.55857
H     0.90329   2.12611   1.00758
H    -0.48296   1.86562   2.11286
H    -2.79568   2.12248   0.59507
H    -3.76724   0.70410   0.99618
H    -2.55066   1.28533   2.13687
H    -4.00515  -1.46910   0.91980
H    -4.27272  -0.65577  -0.63561
H    -3.77701  -2.37608  -0.60736
