37
Generated by autodE on: 2022-06-18. E = -974.991795 Ha. Imaginary frequency = -232.1 cm-1
C     3.52400  -1.64629   0.24549
O     2.95770  -0.48101  -0.36584
C     1.82683  -0.00049   0.18444
O     1.31610  -0.50680   1.17654
C     1.35264   1.13291  -0.58851
C    -0.25461  -0.38894  -1.76493
C     0.28003  -1.72053  -1.49453
O     1.25814  -2.18319  -2.09431
C    -0.40567  -2.53098  -0.45407
C    -1.56138  -2.13293   0.10496
C    -2.21474  -0.86556  -0.30674
O    -3.38946  -0.63663  -0.01480
C    -1.41990   0.05712  -1.13695
C    -0.77794   1.57476   0.43521
C    -1.99481   2.46268   0.47660
C    -0.59484   0.91430   1.79693
C     0.37440   1.60520   2.72335
O    -1.38575   0.08301   2.20531
N     0.30894   1.94889  -0.30375
C     0.13745   3.06382  -1.25559
H     2.81236  -2.48296   0.22243
H     4.41296  -1.89343  -0.34637
H     3.80922  -1.43589   1.28676
H     2.03597   1.49493  -1.35196
H     0.13344   0.11371  -2.65136
H     0.06860  -3.48071  -0.19416
H    -2.09269  -2.73660   0.84460
H    -1.99566   0.86035  -1.59895
H    -2.27659   2.85049  -0.50911
H    -2.83316   1.86786   0.86346
H    -1.84293   3.31546   1.16122
H    -0.15272   2.47933   3.14479
H     1.27559   1.97008   2.21680
H     0.64091   0.92671   3.54440
H    -0.22881   3.95080  -0.72758
H     1.10454   3.28920  -1.71420
H    -0.57867   2.77734  -2.04016
