29
Generated by autodE on: 2022-06-01. E = -820.107758 Ha
C     3.58455   1.51221  -1.16711
N     2.72609   0.37214  -0.92137
C     1.50789   0.51603  -0.37877
O     0.99650   1.62329  -0.12775
C     0.80330  -0.73087  -0.00946
O    -0.43100  -0.65526   0.46018
C    -1.34553   0.26107   0.32546
C    -1.32104   1.21647  -0.83556
C    -1.81757   2.61306  -0.64343
O    -0.99947   0.75726  -1.92180
C    -2.52612   0.06245   1.18458
C    -2.49309  -1.08301   2.15972
O    -3.47902   0.83294   1.09723
C     1.42088  -2.03904   0.19256
C     0.59183  -3.11390   0.84491
O     2.57450  -2.26075  -0.19506
H     4.40254   1.20642  -1.83111
H     3.01286   2.31868  -1.64743
H     4.01777   1.91115  -0.23401
H     3.10222  -0.57908  -0.92778
H    -1.52696   3.00651   0.34008
H    -1.42799   3.24677  -1.45148
H    -2.91806   2.60474  -0.68987
H    -3.45421  -1.12881   2.68669
H    -1.67624  -0.94339   2.88527
H    -2.30319  -2.03286   1.63650
H     1.21519  -4.00616   0.98219
H     0.19969  -2.77322   1.81511
H    -0.27500  -3.36403   0.21303
