29
Generated by autodE on: 2022-07-27. E = -820.107808 Ha
C    -2.99665  -1.77061   2.09148
N    -2.54584  -0.74016   1.17936
C    -1.28512  -0.70961   0.72226
O    -0.39897  -1.49734   1.10465
C    -0.99615   0.27644  -0.34016
O     0.24563   0.39244  -0.78512
C     1.38425   0.09671  -0.23076
C     2.54226   0.19600  -1.13677
C     2.27146   0.50357  -2.58395
O     3.67380   0.01102  -0.69561
C     1.52000   0.00213   1.26496
C     2.45619  -1.00397   1.85310
O     0.93806   0.85087   1.92444
C    -1.98182   0.93359  -1.19359
C    -1.48032   1.67675  -2.40379
O    -3.18518   0.90748  -0.90682
H    -3.94868  -1.45972   2.53939
H    -3.14624  -2.73724   1.58075
H    -2.25510  -1.91929   2.88879
H    -3.21686  -0.15408   0.67684
H     3.22791   0.59356  -3.11369
H     1.69615   1.43719  -2.68106
H     1.66748  -0.29823  -3.03744
H     2.47024  -1.93057   1.26402
H     3.47390  -0.58220   1.84645
H     2.16036  -1.20320   2.89202
H    -0.86612   1.02206  -3.04040
H    -0.84432   2.52193  -2.09634
H    -2.34185   2.05285  -2.96934
