14
Generated by autodE on: 2022-06-01. E = -499.075709 Ha
N     3.17237  -0.86542   0.06135
C     2.05549  -0.54668  -0.04645
C     0.70694  -0.18243  -0.19103
C     0.07005   0.94423   0.17633
F     0.54323   2.01438   0.76962
C    -1.42134   0.74342  -0.13826
C    -1.93810  -0.32041   0.85676
C    -1.34253  -1.45502   0.47963
C    -0.46502  -1.06733  -0.72964
O    -1.28059  -0.04576  -1.33003
H    -2.01179   1.65347  -0.28563
H    -2.59988  -0.11750   1.69727
H    -1.38597  -2.44799   0.92490
H    -0.18054  -1.85148  -1.43729
