43
Generated by autodE on: 2022-06-01. E = -1319.184841 Ha. Imaginary frequency = -223.5 cm-1
C    -2.82320  -2.32864   2.88165
N    -2.44443  -1.90202   1.55114
C    -1.15933  -1.71422   1.21518
O    -0.22475  -1.93457   2.01130
C    -0.90161  -1.20283  -0.14417
C    -1.89810  -1.08168  -1.20916
C    -1.40253  -0.89432  -2.61993
O    -3.10822  -1.16533  -0.96643
O     0.34182  -1.00981  -0.58237
C     1.46873  -0.79399   0.05039
C     2.57192  -0.30273  -0.84612
C     2.43441  -0.51276  -2.32571
O     3.56483   0.18832  -0.32993
C     1.96853  -1.65367   1.20722
C     2.00406  -3.12613   0.88793
O     2.56264  -1.16892   2.15220
C     0.89473   1.14475   1.22405
C     1.10590   2.44338   0.39776
O     0.13080   3.30099   1.02530
C    -0.99033   2.41396   0.80527
C    -0.90876   2.26035  -0.73370
C    -1.99704   2.15365  -1.61730
N    -2.91826   2.08606  -2.32747
C     0.41736   2.27504  -0.95915
F     1.07118   2.13591  -2.09048
C    -0.44986   1.12851   1.45844
H    -3.89494  -2.56184   2.88644
H    -2.26117  -3.22624   3.18059
H    -2.62989  -1.54375   3.63220
H    -3.14168  -1.65648   0.84586
H    -0.84310  -1.79012  -2.93468
H    -0.71826  -0.03980  -2.70152
H    -2.26439  -0.74390  -3.28040
H     3.18576   0.09196  -2.84885
H     1.42769  -0.28997  -2.69397
H     2.62601  -1.58182  -2.52513
H     1.18327  -3.43747   0.23018
H     2.95888  -3.32076   0.36862
H     1.98849  -3.70174   1.82311
H     1.68627   0.68536   1.81632
H     2.11354   2.86817   0.37979
H    -1.92917   2.81528   1.19601
H    -1.00647   0.53288   2.17485
