68
Generated by autodE on: 2022-06-12. E = -1718.278717 Ha
C    -3.36910  -5.43173   5.50705
N    -2.85471  -4.08170   5.63313
C    -2.10757  -3.53488   4.66557
O    -1.73853  -4.17981   3.67916
C    -1.60246  -2.07088   4.88643
C    -2.68525  -1.06001   5.31839
O    -2.73440   0.07993   4.90439
O    -3.49479  -1.51498   6.27061
C    -4.51781  -0.62362   6.74664
C    -0.58307  -2.09377   6.06943
C     0.48766  -3.19125   6.07090
C     1.23284  -3.48441   4.76937
C     2.14918  -2.41162   4.19105
C     1.53321  -1.04466   3.80463
C     2.52043  -0.24590   2.85760
C     3.85716  -0.84406   2.52353
O     2.21730   0.86053   2.45753
C     1.52045  -0.06557   5.02872
C     0.61222   1.13003   4.97519
O     2.28944  -0.25243   5.95269
C     0.17254  -1.16319   3.13455
C    -1.04730  -1.56766   3.56890
N    -1.94373  -1.43786   2.45924
C    -3.25473  -1.78569   2.35072
O    -3.94098  -2.21780   3.27012
O    -3.72734  -1.56959   1.11462
C    -5.11801  -1.85384   0.91770
N    -1.29627  -0.66935   1.43355
C    -1.66812   0.74495   1.58489
N     0.08102  -0.83118   1.74019
C     0.80286  -1.69230   0.83807
C     0.85513  -3.07854   1.03185
C     1.60698  -3.87291   0.16291
C     2.30101  -3.28726  -0.90129
C     2.23664  -1.90365  -1.10046
C     1.49269  -1.10561  -0.22874
H    -4.07375  -5.51787   4.66292
H    -2.54997  -6.14683   5.33997
H    -3.89124  -5.69990   6.43380
H    -3.22898  -3.46898   6.35033
H    -5.06900  -1.18283   7.51060
H    -4.06425   0.27785   7.18107
H    -5.18383  -0.34427   5.91840
H    -1.17668  -2.21426   6.98579
H    -0.14285  -1.09696   6.15615
H     1.20831  -2.93153   6.86432
H     0.01018  -4.13098   6.39062
H     0.51167  -3.80159   4.00687
H     1.87103  -4.36470   4.95302
H     2.97632  -2.21042   4.88519
H     2.58907  -2.84459   3.28519
H     4.42941  -0.11233   1.94010
H     3.73188  -1.76645   1.93695
H     4.40680  -1.10909   3.43872
H     0.91741   1.85214   5.74374
H    -0.42711   0.82083   5.15712
H     0.63857   1.58175   3.97567
H    -5.73871  -1.23356   1.58034
H    -5.32540  -1.60945  -0.13064
H    -5.32803  -2.91643   1.10647
H    -1.43441   1.13374   2.58944
H    -1.11309   1.31606   0.82967
H    -2.74346   0.84730   1.38943
H     0.30272  -3.52835   1.85720
H     1.64892  -4.95367   0.31683
H     2.89303  -3.90971  -1.57627
H     2.77897  -1.44316  -1.92938
H     1.45463  -0.02182  -0.35074
