17
Generated by autodE on: 2022-06-17. E = -401.312959 Ha
C    -3.02136  -0.23000  -0.07126
N    -1.78982   0.21353   0.00265
C    -0.60290  -0.45094  -0.06410
C    -0.61268  -1.92713  -0.24827
C     0.53843   0.39598   0.05825
O     0.49704   1.62688   0.21474
O     1.72451  -0.26940  -0.01154
C     2.90381   0.52450   0.10021
H    -3.21285  -1.29323  -0.20848
H    -3.83175   0.49241   0.00827
H    -1.65973   1.22431   0.13240
H    -1.12577  -2.21797  -1.18526
H    -1.15276  -2.43624   0.57333
H     0.40940  -2.32138  -0.28153
H     2.94000   1.05135   1.06626
H     3.74901  -0.17150   0.02674
H     2.96284   1.26675  -0.71091
