20
Generated by autodE on: 2022-06-17. E = -457.715301 Ha
C    -3.12676   0.43380  -0.38252
N    -1.82058  -0.14579  -0.11581
C    -1.72800  -1.49126   0.26130
C    -0.55576  -2.09249   0.51864
C     0.77283  -1.38386   0.42313
C     0.57251   0.07029   0.02666
C     1.71351   0.98873  -0.11831
N     2.94085   0.45746   0.11226
O     1.59450   2.19067  -0.43328
C    -0.67031   0.57752  -0.21171
H    -3.63423  -0.09696  -1.20432
H    -3.77179   0.38605   0.50999
H    -3.00489   1.48567  -0.66937
H    -2.68290  -2.01518   0.33190
H    -0.56470  -3.14547   0.80928
H     1.31429  -1.45995   1.38829
H     1.43015  -1.90607  -0.30247
H     3.08005  -0.51018   0.37334
H     3.75325   1.05810   0.02558
H    -0.78663   1.62387  -0.49814
