72
Generated by autodE on: 2022-07-01. E = -1613.925667 Ha
C    -3.68886   1.20312  -3.17811
N    -3.03091   1.14527  -1.88825
C    -1.72983   0.80692  -1.78967
O    -1.04957   0.63249  -2.80437
C    -1.18248   0.55983  -0.37084
C    -2.04970   1.16804   0.77804
C    -2.16673   2.71292   0.64922
C    -0.80281   3.22248   1.18334
C    -0.00977   1.91258   1.35735
C    -1.10792   1.04205   1.98243
C     0.25966   1.20034  -0.04654
C     0.68885   2.36059  -0.95004
C     2.07021   2.94071  -0.78936
O    -0.11259   2.92690  -1.67561
C     1.27077  -0.02466   0.10808
C     2.09470  -0.41577  -1.14555
C     1.87620   0.07163  -2.43750
C     2.59606  -0.42650  -3.53104
C     3.54828  -1.43028  -3.35600
C     3.77192  -1.93697  -2.07052
C     3.05645  -1.43301  -0.98555
C     2.25045   0.13487   1.29760
C     1.92900  -0.37213   2.56493
C     2.79819  -0.21853   3.64953
C     4.01783   0.44232   3.48903
C     4.36395   0.92953   2.22524
C     3.49408   0.76843   1.14461
N     0.34226  -1.10382   0.42660
C    -0.96326  -1.02662  -0.18292
C    -1.11055  -1.90293  -1.48095
C    -0.08031  -2.97259  -1.72467
O    -2.09588  -1.82379  -2.19129
C    -2.01257  -1.71707   0.72820
C    -1.60780  -2.43562   1.86081
C    -2.54373  -3.09137   2.66824
C    -3.90305  -3.04106   2.35517
C    -4.31737  -2.33629   1.21952
C    -3.38142  -1.69090   0.41098
H    -4.73563   1.49706  -3.03075
H    -3.20275   1.93994  -3.83566
H    -3.65894   0.22419  -3.68480
H    -3.60414   1.17937  -1.05438
H    -3.02084   0.67718   0.89070
H    -3.00302   3.06536   1.27027
H    -2.35567   3.04388  -0.37685
H    -0.33348   3.97417   0.53805
H    -0.91126   3.68027   2.17734
H     0.91187   2.03794   1.93161
H    -0.80492   0.02021   2.20818
H    -1.52542   1.50282   2.89005
H     2.09692   3.91478  -1.29432
H     2.32855   3.05910   0.27157
H     2.82383   2.28491  -1.24486
H     1.10223   0.80793  -2.62711
H     2.39841  -0.02430  -4.52774
H     4.10839  -1.81908  -4.20968
H     4.50804  -2.72876  -1.91176
H     3.24122  -1.84897   0.00648
H     0.98625  -0.89614   2.70334
H     2.51686  -0.62341   4.62484
H     4.69888   0.56381   4.33474
H     5.32343   1.42974   2.07274
H     3.80921   1.12304   0.16605
H     0.77255  -2.02206   0.42352
H     0.07366  -3.58047  -0.81899
H     0.88885  -2.53014  -1.99222
H    -0.42970  -3.61685  -2.54122
H    -0.55234  -2.47501   2.12583
H    -2.20206  -3.64267   3.54761
H    -4.63532  -3.54991   2.98646
H    -5.37733  -2.28933   0.95847
H    -3.71829  -1.15973  -0.47785
