43
Generated by autodE on: 2022-07-27. E = -980.210287 Ha
C    -2.81375   0.14799  -2.35407
C    -1.69771   0.58317  -1.42139
O    -0.96705   1.53136  -1.79572
C    -1.50056  -0.09913  -0.17791
N    -0.37197   0.21477   0.57839
C     0.86567   0.50081   0.19551
C     1.35232   0.11578  -1.13838
C     2.13052   0.99778  -1.90566
C     2.62232   0.60456  -3.15235
C     2.34630  -0.67400  -3.64310
C     1.57509  -1.56142  -2.88028
C     1.07495  -1.16928  -1.64080
C     1.75270   1.13146   1.17373
C     1.22918   1.94017   2.20637
C     2.07202   2.49706   3.16780
C     3.45097   2.27156   3.11167
C     3.98407   1.48335   2.08436
C     3.14821   0.91986   1.12339
C    -2.41476  -1.03662   0.47828
C    -1.89070  -2.04007   1.32907
C    -2.72638  -2.92927   2.00744
C    -4.11339  -2.85558   1.85186
C    -4.65218  -1.86558   1.02038
C    -3.82286  -0.96443   0.35468
H    -3.14280  -0.88743  -2.19918
H    -2.44115   0.26226  -3.38313
H    -3.68905   0.81027  -2.24982
H    -0.52686   0.23527   1.59083
H     2.33980   1.99911  -1.52546
H     3.22195   1.30152  -3.74219
H     2.73299  -0.98334  -4.61688
H     1.36845  -2.56696  -3.25379
H     0.47725  -1.86476  -1.04886
H     0.16139   2.16630   2.23707
H     1.65071   3.12613   3.95511
H     4.11040   2.71485   3.86122
H     5.06000   1.30110   2.03665
H     3.57156   0.29081   0.33971
H    -0.80836  -2.13833   1.43920
H    -2.28653  -3.69450   2.65218
H    -4.76851  -3.55543   2.37564
H    -5.73577  -1.78093   0.90436
H    -4.27540  -0.17397  -0.24305
