72
Generated by autodE on: 2022-07-01. E = -1613.887020 Ha. Imaginary frequency = -336.9 cm-1
C    -2.29996   1.77930  -3.83834
N    -1.65396   1.70842  -2.54472
C    -2.11711   0.87216  -1.60945
O    -3.20147   0.27786  -1.75212
C    -1.33917   0.73394  -0.29852
C    -2.29997   0.98252   0.89575
C    -2.70675   2.48471   0.86137
C    -1.41335   3.21584   1.32781
C    -0.40616   2.03407   1.48493
C    -1.34769   0.97807   2.08944
C    -0.16741   1.54970   0.05330
C     0.82952   2.16494  -0.74926
C     1.85537   3.03877  -0.04612
O     0.91206   2.08685  -2.01283
C     1.65547  -0.57398   0.14513
C     2.26346  -0.84599  -1.17558
C     3.00405   0.10145  -1.90193
C     3.60925  -0.25099  -3.11005
C     3.50503  -1.55447  -3.60109
C     2.80259  -2.51645  -2.86639
C     2.19017  -2.16556  -1.66654
C     2.52976  -0.15503   1.25951
C     2.02949   0.06373   2.56294
C     2.86769   0.45630   3.60341
C     4.23340   0.65327   3.37709
C     4.75129   0.42963   2.09853
C     3.91752   0.02207   1.05890
N     0.47060  -1.13835   0.45230
C    -0.77373  -1.16838  -0.22731
C    -0.67806  -1.56004  -1.71971
C    -1.11156  -2.94474  -2.11507
O    -0.25304  -0.77638  -2.54519
C    -1.74484  -2.03937   0.54663
C    -1.31520  -2.90562   1.57026
C    -2.22267  -3.71407   2.26158
C    -3.57898  -3.69360   1.93373
C    -4.01577  -2.85762   0.90142
C    -3.11224  -2.04443   0.21770
H    -1.79660   2.54101  -4.44844
H    -2.25271   0.81306  -4.37159
H    -3.36074   2.05361  -3.73861
H    -0.64211   1.93381  -2.47720
H    -3.15224   0.30101   0.93544
H    -3.53684   2.65307   1.56318
H    -3.04827   2.80649  -0.13219
H    -1.05778   3.96525   0.60701
H    -1.56445   3.72019   2.29537
H     0.49004   2.28430   2.06216
H    -0.90657  -0.00027   2.30220
H    -1.82709   1.32977   3.01515
H     2.60309   3.37232  -0.77834
H     1.37094   3.93149   0.38235
H     2.35988   2.51519   0.77895
H     3.11458   1.11362  -1.52613
H     4.17026   0.50197  -3.66803
H     3.98212  -1.82515  -4.54586
H     2.73720  -3.54582  -3.22571
H     1.65999  -2.92413  -1.08906
H     0.97316  -0.05851   2.79005
H     2.44508   0.61816   4.59726
H     4.88795   0.97045   4.19182
H     5.81864   0.56056   1.90745
H     4.35820  -0.17643   0.08448
H     0.32635  -1.20047   1.45582
H    -0.71115  -3.17137  -3.11150
H    -0.78878  -3.69588  -1.38059
H    -2.21139  -2.98256  -2.15365
H    -0.26002  -2.98918   1.83461
H    -1.85620  -4.37329   3.05188
H    -4.28759  -4.32866   2.47043
H    -5.07259  -2.83401   0.62484
H    -3.45961  -1.38576  -0.57693
