45
Generated by autodE on: 2022-06-19. E = -943.499862 Ha
C    -4.53690   1.99837  -0.70324
O    -3.11353   1.82255  -0.63743
C    -2.62455   0.68457  -1.12681
O    -3.31564  -0.18152  -1.62349
C    -1.10749   0.58239  -0.93929
C    -0.85591   0.41638   0.56512
C     0.05597   1.22147   1.25515
C     0.31654   0.99477   2.61048
C    -0.33979  -0.03174   3.29369
C    -1.25864  -0.83586   2.61076
C    -1.51206  -0.61456   1.25580
C    -0.50358  -0.57685  -1.77376
C     0.83077  -0.00885  -2.29917
C     1.11576  -0.39163  -3.75903
C     2.04930  -0.28948  -1.44038
C     2.08454  -0.96425  -0.27492
C     3.28562  -1.12644   0.52597
C     3.37801  -1.75344   1.72395
C     2.22700  -2.41695   2.42592
C     4.68793  -1.82224   2.45794
C     0.53951   1.47809  -2.15809
N    -0.46876   1.81604  -1.45219
H    -4.88002   1.97367  -1.74742
H    -5.04609   1.20887  -0.13173
H    -4.74053   2.97974  -0.25969
H     0.57814   2.01902   0.72742
H     1.04093   1.62468   3.13232
H    -0.13390  -0.20880   4.35174
H    -1.77575  -1.64413   3.13315
H    -2.22148  -1.25612   0.72736
H    -1.16475  -0.78131  -2.62539
H    -0.40091  -1.50677  -1.20401
H     0.28467  -0.08488  -4.41330
H     1.24574  -1.48146  -3.84754
H     2.03729   0.09200  -4.11959
H     2.97818   0.15654  -1.81770
H     1.16448  -1.40352   0.11455
H     4.19727  -0.67582   0.11563
H     1.28315  -2.37126   1.86936
H     2.06003  -1.94993   3.41209
H     2.46222  -3.47773   2.62321
H     4.60152  -1.35570   3.45572
H     5.49922  -1.32148   1.90938
H     4.98257  -2.87198   2.63655
H     1.18733   2.23628  -2.61804
