45
Generated by autodE on: 2022-06-19. E = -943.402741 Ha. Imaginary frequency = -396.3 cm-1
C    -3.34108   1.44886  -3.51836
O    -2.09426   0.98585  -2.99287
C    -1.67150   1.57070  -1.85189
O    -2.27954   2.49466  -1.32845
C    -0.44884   0.95299  -1.32972
C     0.37806   1.51342  -0.24839
C     1.72549   1.11064  -0.12445
C     2.51943   1.57242   0.92271
C     1.99283   2.45043   1.87668
C     0.65928   2.85404   1.76711
C    -0.14349   2.39562   0.71985
C    -1.96823  -0.73210  -0.18622
C    -1.38650  -1.92646  -0.57421
C    -2.15591  -2.87019  -1.48234
C    -0.25866  -2.51242   0.18400
C     0.39968  -1.93640   1.21773
C     1.54372  -2.52973   1.87764
C     2.23297  -2.01809   2.92915
C     1.89311  -0.72683   3.61807
C     3.41895  -2.74423   3.49946
C     0.02485  -1.24438  -2.18733
N     0.06878  -0.04716  -2.05245
H    -4.15496   1.27957  -2.79739
H    -3.52038   0.86555  -4.42945
H    -3.29095   2.52040  -3.76172
H     2.15287   0.42684  -0.85977
H     3.55802   1.24130   0.99574
H     2.61459   2.81034   2.69933
H     0.23105   3.53322   2.50852
H    -1.18210   2.71092   0.65219
H    -1.64984  -0.19616   0.70704
H    -2.91531  -0.41936  -0.63104
H    -2.82177  -3.51800  -0.88520
H    -2.77924  -2.31076  -2.19574
H    -1.48657  -3.53196  -2.05328
H     0.08285  -3.49368  -0.16716
H     0.07147  -0.95438   1.56866
H     1.88182  -3.49119   1.47169
H     1.03961  -0.19992   3.17410
H     2.75865  -0.04230   3.60464
H     1.66631  -0.91371   4.68313
H     3.62234  -3.68771   2.97156
H     4.32575  -2.11459   3.44880
H     3.26503  -2.96980   4.57028
H     0.48635  -1.95927  -2.87672
