35
Generated by autodE on: 2022-07-27. E = -973.855865 Ha
C    -1.11733  -3.27115   2.16533
O    -0.84500  -1.88642   1.89815
C    -0.74367  -1.54090   0.62091
O    -0.94898  -2.28023  -0.31932
C    -0.51046  -0.06786   0.44727
N     0.32626   0.35014  -0.47584
C     1.35554  -0.28741  -1.15590
C     2.04790  -1.38311  -0.52884
C     3.26909  -1.98226  -1.18210
O     1.67063  -1.82457   0.57392
C     1.80701   0.39297  -2.35797
O     2.72390   0.05206  -3.09302
O     1.07431   1.51094  -2.60695
C     1.46319   2.29874  -3.73524
C    -1.33207   0.90340   1.16816
C    -0.88134   2.22832   1.35042
C    -1.68502   3.16478   1.99767
C    -2.94464   2.79649   2.48139
C    -3.39686   1.48240   2.31637
C    -2.60038   0.54010   1.67045
H    -2.07539  -3.56748   1.71513
H    -1.16322  -3.36402   3.25605
H    -0.30863  -3.89627   1.76084
H     0.23017   1.33504  -0.74521
H     3.01579  -2.39863  -2.16846
H     3.64989  -2.77872  -0.52921
H     4.04984  -1.22624  -1.34846
H     1.39146   1.71083  -4.66190
H     0.76410   3.14272  -3.77069
H     2.49323   2.66704  -3.61862
H     0.11586   2.52104   1.01437
H    -1.31894   4.18391   2.13863
H    -3.57035   3.53045   2.99399
H    -4.38007   1.19009   2.69104
H    -2.97358  -0.47612   1.53768
