35
Generated by autodE on: 2022-06-11. E = -973.856171 Ha
C    -2.62823  -3.07871   0.35941
O    -2.14264  -1.73654   0.52039
C    -1.15760  -1.36500  -0.28786
O    -0.70671  -2.03834  -1.19130
C    -0.76284   0.06928  -0.08488
N     0.50769   0.39929  -0.10955
C     1.67616  -0.33158   0.04544
C     1.66117  -1.53903   0.83042
C     2.94121  -2.27251   1.15097
O     0.58702  -1.97812   1.28645
C     2.82075   0.44709  -0.40716
O     2.70201   1.58177  -0.87191
O     4.01097  -0.15338  -0.28719
C     5.15504   0.59469  -0.71512
C    -1.77969   1.11937  -0.04282
C    -3.06249   0.90264  -0.59058
C    -4.01136   1.92214  -0.58447
C    -3.70552   3.16941  -0.02861
C    -2.44119   3.39204   0.52672
C    -1.48623   2.37731   0.52581
H    -3.02735  -3.22304  -0.65462
H    -1.81545  -3.79560   0.54317
H    -3.42280  -3.20259   1.10356
H     0.71615   1.39357  -0.27491
H     3.65150  -1.62980   1.68990
H     3.44155  -2.60265   0.22884
H     2.68654  -3.14518   1.76653
H     5.08014   0.84140  -1.78424
H     5.25308   1.52315  -0.13409
H     6.02072  -0.05415  -0.53764
H    -3.31330  -0.05851  -1.04073
H    -4.99649   1.74318  -1.02044
H    -4.45483   3.96409  -0.02084
H    -2.20178   4.35722   0.97802
H    -0.51842   2.55479   0.99920
