24
Generated by autodE on: 2022-06-11. E = -741.617982 Ha
N    -0.21264  -2.85861   1.79024
C    -0.14360  -1.92611   1.10560
C    -0.08585  -0.72544   0.25086
C     0.44767  -1.18242  -1.13228
F     1.67519  -1.70893  -1.01993
F    -0.34846  -2.11779  -1.66768
F     0.51994  -0.16230  -1.99223
C     0.78597   0.30015   0.82751
C     1.07883   1.42354   1.17559
C     0.96845   2.84452   1.46542
C    -0.24759   3.37521   0.66284
C    -1.51372   2.49240   0.70749
C    -1.63827   1.34882  -0.34072
C    -1.53300  -0.11154   0.14255
H     0.80255   2.97949   2.54771
H     1.88255   3.40222   1.20861
H     0.05549   3.51498  -0.38810
H    -0.48685   4.37603   1.05602
H    -1.64885   2.08790   1.72564
H    -2.36795   3.16784   0.54551
H    -0.94134   1.52488  -1.17301
H    -2.64327   1.41996  -0.78441
H    -1.98019  -0.19854   1.14331
H    -2.10930  -0.77402  -0.52007
