59
Generated by autodE on: 2022-06-11. E = -1715.459195 Ha. Imaginary frequency = -342.9 cm-1
C     9.04268  -3.85969   5.90543
O     8.55828  -4.83007   6.84345
C     9.22399  -5.99798   6.91451
O    10.19728  -6.23470   6.22389
C     8.66942  -6.88293   7.96326
C     9.09896  -8.28740   8.09750
C    10.30812  -8.80048   7.36175
O     8.48362  -9.04833   8.84647
N     7.46540  -6.45563   8.48211
C     6.92565  -6.79975   9.67434
C     6.45306  -8.22459   9.85613
O     5.73020  -8.75102   9.03282
O     6.71394  -8.72764  11.04915
C     6.21311 -10.04055  11.32344
C     6.04065  -5.76634  10.26823
C     6.44568  -4.41814  10.24425
C     5.63760  -3.42506  10.79558
C     4.41569  -3.76178  11.38648
C     4.00712  -5.09914  11.42054
C     4.81071  -6.09461  10.86679
C     8.99579  -6.61306  10.75950
C     9.81106  -6.31994   9.84316
C    11.06367  -5.73650   9.32306
C    11.94624  -5.08311  10.39937
C    12.64685  -6.05446  11.35062
C    11.72878  -7.05743  12.05909
C    10.52985  -6.41267  12.77748
C     9.13352  -6.87841  12.23823
C     9.06177  -8.33036  12.49757
N     9.12844  -9.45931  12.75195
C     8.05342  -6.17441  13.09878
F     6.82505  -6.66021  12.90687
F     8.02979  -4.86143  12.83177
F     8.31654  -6.31498  14.41047
H     9.00163  -4.26134   4.88301
H     8.37835  -2.99334   6.00019
H    10.07670  -3.57614   6.14799
H    10.14283  -8.75768   6.27529
H    10.47585  -9.83894   7.67542
H    11.20059  -8.19601   7.57010
H     7.28423  -5.48719   8.21769
H     5.11701 -10.05963  11.24072
H     6.64928 -10.76498  10.62071
H     6.52527 -10.27359  12.34692
H     7.41696  -4.14782   9.82505
H     5.97095  -2.38518  10.77698
H     3.78566  -2.98482  11.82537
H     3.05334  -5.36923  11.87914
H     4.47040  -7.13040  10.89974
H    11.63521  -6.50046   8.77228
H    10.80771  -4.96015   8.58476
H    11.33370  -4.36216  10.96492
H    12.71241  -4.48708   9.87783
H    13.41182  -6.62042  10.79223
H    13.19082  -5.46225  12.10659
H    11.37891  -7.80464  11.33042
H    12.32431  -7.62150  12.79260
H    10.55898  -6.64064  13.85039
H    10.54655  -5.31850  12.68214
