38
Generated by autodE on: 2022-10-21. E = -1047.142147 Ha
C     0.17387   1.31692   2.27796
O     0.03423   1.69015   0.90804
C    -0.13942   0.67143  -0.00722
C    -0.09158   1.25393  -1.47539
C    -1.09668   2.37956  -1.53866
C    -2.29492   1.77865  -1.55755
C    -2.00512   0.29204  -1.51389
O    -0.74738   0.20121  -2.18480
C    -1.54088  -0.09370  -0.03346
C    -2.54974   0.32349   1.04381
C    -3.12070  -0.72968   1.94744
O    -2.87687   1.49208   1.13390
C    -1.06028  -1.51959   0.02239
C    -1.87573  -2.67384  -0.10203
N    -2.56992  -3.60118  -0.22641
N     0.23085  -1.64329   0.11293
N     0.81058  -0.44627   0.16048
C     2.21699  -0.33580   0.11373
C     3.00930  -1.49540   0.04290
C     4.39840  -1.38637  -0.00056
C     5.02020  -0.13309   0.02059
C     4.22897   1.01578   0.09073
C     2.83613   0.92624   0.14187
H    -0.59502   0.59337   2.58892
H     0.05721   2.23744   2.86351
H     1.16769   0.88434   2.47231
H     0.92139   1.42914  -1.84959
H    -0.86193   3.44114  -1.47939
H    -3.28620   2.22653  -1.52915
H    -2.74342  -0.40172  -1.92943
H    -2.32084  -1.31689   2.42398
H    -3.73088  -1.43213   1.35672
H    -3.74908  -0.25415   2.71086
H     2.53033  -2.47257   0.01870
H     5.00048  -2.29643  -0.05573
H     6.10866  -0.05449  -0.01649
H     4.69514   2.00358   0.11109
H     2.23961   1.83346   0.21153
