57
Generated by autodE on: 2022-06-08. E = -1469.899265 Ha
C     3.47198  -2.58225   1.58735
N     2.42005  -1.92620   0.83896
C     2.42837  -0.61044   0.59934
O     3.37884   0.12633   0.88321
C     1.12088  -0.04653  -0.02559
C     1.43116   1.21627  -0.87949
O     0.74961   2.24248  -0.76201
N     2.41017   1.12117  -1.78683
C     2.66004   2.18685  -2.73933
N     0.45009  -1.07732  -0.79748
C     1.10568  -1.68169  -1.94654
C    -1.00158  -0.96025  -0.80073
C    -1.63969  -2.36071  -0.89772
C    -1.50982  -0.16085  -2.04815
C    -2.95902  -0.29660  -2.44663
O    -0.72747   0.45361  -2.74878
C    -1.31917  -0.22649   0.57324
C    -2.44695   0.79012   0.42914
O    -3.50208   0.72134   1.02706
O    -2.20305   1.69955  -0.50907
C    -3.19864   2.70141  -0.73621
C    -1.66410  -1.25673   1.72187
C    -1.95320  -0.50041   3.00739
C    -0.76289  -0.07495   3.44151
C     0.23349  -0.57181   2.41051
O    -0.36125  -1.79722   1.98550
C     0.07210   0.32600   1.08875
C     0.09729   1.78496   1.56210
C     1.40476   2.34176   2.05955
O    -0.94302   2.38935   1.77194
H     3.36656  -3.66894   1.47855
H     3.42564  -2.32646   2.66007
H     4.45718  -2.27816   1.20616
H     1.54479  -2.40984   0.64997
H     2.98695   0.28881  -1.82366
H     3.49453   1.89427  -3.38801
H     2.91853   3.12642  -2.22608
H     1.76959   2.37074  -3.36113
H     2.15965  -1.88265  -1.71320
H     0.64115  -2.65380  -2.16286
H     1.06527  -1.07079  -2.86207
H    -1.16028  -3.04173  -0.18441
H    -1.51123  -2.77586  -1.90639
H    -2.71598  -2.32513  -0.69121
H    -3.05513  -1.19330  -3.08095
H    -3.25225   0.57796  -3.04179
H    -3.63722  -0.42586  -1.59323
H    -3.32492   3.31309   0.16882
H    -2.82126   3.31623  -1.56106
H    -4.15884   2.24153  -1.00824
H    -2.37744  -2.03416   1.44481
H    -2.94262  -0.31250   3.41747
H    -0.52406   0.56370   4.29066
H     1.26351  -0.70480   2.74960
H     1.36961   3.43828   2.01292
H     2.28573   1.95187   1.54074
H     1.48999   2.05027   3.12158
