33
Generated by autodE on: 2022-07-27. E = -781.603676 Ha
C     2.09888  -1.27817   3.40348
N     1.20144  -0.85919   2.34467
C     1.65607  -0.55911   1.11272
O     2.86090  -0.53848   0.83316
C     0.60878  -0.21307   0.09863
C     0.84763   1.07793  -0.60378
O     1.49422   1.97124  -0.04099
N     0.45381   1.18137  -1.89204
C     0.49464   2.46175  -2.57188
N    -0.37296  -1.07890  -0.19559
C    -0.17218  -2.51646   0.09155
C    -1.59401  -0.71716  -0.72210
C    -2.41011  -1.75421  -1.43870
C    -2.16374   0.53871  -0.30090
C    -3.64580   0.74286  -0.54669
O    -1.52151   1.42415   0.29863
H     2.85732  -0.50614   3.60667
H     1.51545  -1.45144   4.31570
H     2.62593  -2.20829   3.13486
H     0.20211  -0.83822   2.52014
H    -0.20701   0.49276  -2.23980
H     0.16743   2.32415  -3.60999
H    -0.16614   3.20033  -2.08617
H     1.51579   2.86907  -2.57566
H     0.83903  -2.68868   0.46743
H    -0.28624  -3.07739  -0.84374
H    -0.92011  -2.86343   0.81555
H    -3.17212  -1.27299  -2.06359
H    -2.93300  -2.44875  -0.75650
H    -1.78464  -2.36207  -2.10912
H    -3.83804   0.86185  -1.62602
H    -3.96172   1.65894  -0.03091
H    -4.25307  -0.10565  -0.19745
