24
Generated by autodE on: 2022-06-08. E = -688.223205 Ha
C     3.62152  -1.33167  -0.23612
O     2.48929  -0.44942  -0.25449
C     1.28662  -1.01209  -0.43085
O     1.11979  -2.20595  -0.58817
C     0.24056   0.02681  -0.42254
C    -1.04192   0.03347   0.00259
C    -1.91984  -0.93080   0.70193
C    -1.61678  -2.39821   0.69026
O    -2.89444  -0.47537   1.29448
C    -1.47401   1.51847  -0.12143
C    -0.69987   2.29826   0.96324
C     0.56978   2.28958   0.54841
C     0.54079   1.50794  -0.78378
O    -0.74029   1.89011  -1.29760
H     4.49817  -0.69348  -0.07803
H     3.52625  -2.05986   0.58215
H     3.70474  -1.86581  -1.19360
H    -2.42437  -2.93960   1.19970
H    -0.65899  -2.58639   1.19979
H    -1.49855  -2.75983  -0.34150
H    -2.54826   1.70067  -0.21516
H    -1.13813   2.69282   1.87890
H     1.47010   2.67329   1.02602
H     1.35257   1.67820  -1.49692
