57
Generated by autodE on: 2022-06-08. E = -1469.815960 Ha. Imaginary frequency = -154.4 cm-1
C     3.59136  -2.11552   2.05255
N     2.54884  -1.76198   1.11050
C     2.65476  -0.64405   0.36065
O     3.69496   0.03611   0.38689
C     1.48405  -0.18389  -0.46242
C     1.87607   1.05640  -1.24846
O     2.15531   2.13710  -0.73377
N     2.10047   0.80355  -2.56066
C     2.39565   1.88817  -3.47645
N     0.57607  -1.08537  -0.98910
C     0.97835  -2.51276  -1.12365
C    -0.70905  -0.80559  -1.37159
C    -1.62266  -1.96336  -1.65442
C    -1.12022   0.51696  -1.92004
C    -2.40914   0.56986  -2.70493
O    -0.44574   1.53207  -1.79923
C    -1.40076   0.00629   0.86721
C    -2.70229   0.59362   0.50880
O    -3.73199  -0.06777   0.59057
O    -2.70464   1.86881   0.12638
C    -3.97775   2.46002  -0.16265
C    -1.53186  -1.34654   1.62075
C    -1.91888  -0.96974   3.06167
C    -0.81699  -0.40934   3.57237
C     0.22510  -0.47451   2.44277
O    -0.15369  -1.69973   1.79539
C    -0.20540   0.55612   1.35924
C     0.26969   1.95632   1.45503
C     1.43156   2.18918   2.39281
O    -0.24662   2.89193   0.85727
H     3.33193  -3.07255   2.52251
H     3.70549  -1.35123   2.84086
H     4.56053  -2.21997   1.54290
H     1.63086  -2.18036   1.23524
H     1.72881  -0.05608  -2.95108
H     2.57071   1.47340  -4.47699
H     3.29709   2.43096  -3.15694
H     1.56324   2.61020  -3.52956
H     2.06674  -2.57454  -1.12729
H     0.56571  -3.14020  -0.32558
H     0.61532  -2.87542  -2.09081
H    -1.43896  -2.81099  -0.98699
H    -1.52742  -2.31800  -2.69543
H    -2.66313  -1.65387  -1.50706
H    -2.33668  -0.08607  -3.58727
H    -2.56913   1.60536  -3.02886
H    -3.27814   0.22859  -2.12631
H    -4.61171   2.46187   0.73586
H    -3.76272   3.48759  -0.47748
H    -4.48953   1.91546  -0.96799
H    -2.10621  -2.13313   1.12628
H    -2.91207  -1.08453   3.49345
H    -0.65492   0.05947   4.54211
H     1.27252  -0.47543   2.74525
H     1.73174   3.24324   2.33961
H     2.28447   1.54741   2.12957
H     1.14093   1.94637   3.42843
