47
Generated by autodE on: 2022-06-21. E = -1202.397479 Ha
C    -2.09471   2.45059   2.26452
O    -1.51556   2.40270   0.94669
C    -0.37722   1.74176   0.80823
O     0.28557   1.28744   1.70999
C     0.01139   1.61267  -0.68456
C    -0.05517   2.93651  -1.32485
N    -0.08805   3.96633  -1.85749
O     1.31766   1.11103  -0.78866
C     1.35288  -0.22085  -1.39214
C     1.78847  -0.05989  -2.85015
C     2.35908  -1.06968  -0.63153
C     2.54479  -2.40879  -1.01066
C     3.45059  -3.22203  -0.32729
C     4.18958  -2.70663   0.74345
C     4.00912  -1.37520   1.12487
C     3.09761  -0.56094   0.44340
C    -0.10502  -0.72561  -1.25582
C    -0.40933  -1.38124   0.10626
C    -1.80355  -1.10158   0.60830
C    -2.30354  -1.72008   1.84809
N    -1.49840  -2.63964   2.43307
O    -3.39756  -1.41576   2.36665
C    -2.62720  -0.22137  -0.02261
N    -2.28210   0.49985  -1.12489
C    -3.17243   1.52494  -1.64822
C    -0.89727   0.56861  -1.47846
H    -2.38616   1.43538   2.57117
H    -1.37819   2.87286   2.98157
H    -2.97869   3.09153   2.17884
H     1.87454  -1.03981  -3.33952
H     2.76962   0.43542  -2.88515
H     1.07145   0.55089  -3.41755
H     1.96745  -2.82387  -1.83992
H     3.57861  -4.26372  -0.63132
H     4.89959  -3.34204   1.27815
H     4.57780  -0.96322   1.96218
H     2.94798   0.47131   0.75621
H    -0.33872  -1.42157  -2.07120
H    -0.24818  -2.46592   0.00068
H     0.32166  -1.04811   0.85886
H    -0.61669  -2.93064   2.03037
H    -1.80745  -3.07720   3.29414
H    -3.63857  -0.05994   0.35368
H    -3.01432   2.50001  -1.15822
H    -4.21490   1.21868  -1.49025
H    -3.00234   1.64508  -2.72797
H    -0.83177   0.86229  -2.53218
