20
Generated by autodE on: 2022-06-21. E = -457.715310 Ha
C    -3.11899  -0.60801  -0.04652
N    -1.82809   0.06052  -0.06281
C    -1.77391   1.45956  -0.02639
C    -0.61711   2.13929   0.01661
C     0.73402   1.46792   0.03279
C     0.57557  -0.04392   0.00897
C     1.74491  -0.93719   0.02672
N     2.95846  -0.33145   0.06614
O     1.66014  -2.18212   0.00715
C    -0.65429  -0.63024  -0.03249
H    -3.65250  -0.42887   0.90203
H    -2.96852  -1.68826  -0.16500
H    -3.75330  -0.25043  -0.87280
H    -2.74513   1.95759  -0.03827
H    -0.65672   3.23077   0.03863
H     1.34264   1.81575  -0.82733
H     1.30890   1.79183   0.92476
H     3.06961   0.67408   0.08493
H     3.78994  -0.91179   0.08179
H    -0.73852  -1.71804  -0.04632
