27
Generated by autodE on: 2022-07-27. E = -744.607642 Ha
C    -1.99386   1.01771   3.31989
O    -1.39777   0.81120   2.03584
C    -1.78218   1.65779   1.05491
O    -2.59835   2.55806   1.23660
C    -1.15096   1.39632  -0.21258
C    -1.42359   2.23092  -1.30632
N    -1.68901   2.97581  -2.17036
O    -0.24891   0.36910  -0.22160
C     0.42565  -0.22969  -1.13873
C     0.28131   0.16362  -2.55724
C     1.28872  -1.29074  -0.64450
C     2.13173  -2.01415  -1.51625
C     2.95300  -3.02537  -1.02165
C     2.94753  -3.33433   0.34176
C     2.11541  -2.62299   1.21742
C     1.29584  -1.61042   0.73537
H    -1.75420   2.01893   3.70788
H    -3.08685   0.90352   3.26766
H    -1.56841   0.24999   3.97725
H     0.81283  -0.51450  -3.22944
H    -0.78710   0.16939  -2.82657
H     0.66306   1.18656  -2.70931
H     2.15427  -1.78948  -2.58210
H     3.60132  -3.57569  -1.70639
H     3.59155  -4.12904   0.72486
H     2.10957  -2.86259   2.28273
H     0.64960  -1.05743   1.41676
