27
Generated by autodE on: 2022-06-21. E = -744.607673 Ha
C     3.18066  -2.34123   0.66360
O     2.19105  -1.34469   0.39090
C     2.64458  -0.08496   0.20622
O     3.83692   0.20696   0.25931
C     1.60036   0.86913  -0.06314
C     1.92436   2.22457  -0.22079
N     2.26557   3.33975  -0.32932
O     0.32767   0.36945  -0.05303
C    -0.82986   0.84813  -0.34581
C    -0.96813   2.23576  -0.83965
C    -1.92508  -0.08947  -0.15718
C    -1.65854  -1.40813   0.28575
C    -2.69852  -2.31042   0.46917
C    -4.02243  -1.92122   0.22199
C    -4.29875  -0.62148  -0.21251
C    -3.26246   0.29017  -0.40332
H     3.72958  -2.10687   1.58788
H     2.63460  -3.28479   0.78170
H     3.89516  -2.42240  -0.16903
H    -0.68145   2.95040  -0.05094
H    -1.98882   2.45857  -1.16100
H    -0.28201   2.39090  -1.68785
H    -0.62949  -1.71068   0.47900
H    -2.48088  -3.32530   0.80833
H    -4.83749  -2.63325   0.36938
H    -5.32874  -0.31442  -0.40445
H    -3.49882   1.29855  -0.74102
