47
Generated by autodE on: 2022-06-21. E = -1202.332686 Ha. Imaginary frequency = -300.9 cm-1
C    -0.90861   1.55948   2.98944
O    -0.12938   1.44434   1.79764
C    -0.56160   2.15361   0.72430
O    -1.54847   2.89342   0.78664
C     0.22029   1.94756  -0.45514
C     0.04517   2.77942  -1.56777
N    -0.12958   3.49495  -2.48172
O     1.24337   1.02699  -0.34985
C     1.58751   0.09349  -1.22971
C     1.75513   0.44849  -2.67563
C     2.45548  -0.92972  -0.61983
C     3.07315  -1.92307  -1.40595
C     3.84527  -2.91744  -0.80892
C     4.01954  -2.93876   0.58000
C     3.41717  -1.95489   1.36947
C     2.63969  -0.95888   0.77887
C    -0.32537  -1.10313  -1.32188
C    -0.60390  -1.60624   0.07723
C    -1.87778  -1.02419   0.64558
C    -2.32097  -1.36103   2.02201
N    -1.49855  -2.16964   2.72472
O    -3.37280  -0.91942   2.51531
C    -2.65264  -0.17399  -0.06163
N    -2.35061   0.22111  -1.35342
C    -3.11299   1.31688  -1.94618
C    -1.20956  -0.22882  -1.93281
H    -0.46450   0.86061   3.70816
H    -1.95618   1.28613   2.80509
H    -0.86646   2.58434   3.38855
H     1.73905  -0.44699  -3.30747
H     2.73864   0.93495  -2.79817
H     0.98627   1.13860  -3.03110
H     2.94236  -1.92951  -2.48806
H     4.31483  -3.68210  -1.43152
H     4.62582  -3.72001   1.04411
H     3.55350  -1.96123   2.45313
H     2.18094  -0.18692   1.39538
H     0.25171  -1.73810  -1.99279
H    -0.65487  -2.71019   0.07884
H     0.24214  -1.36332   0.74859
H    -0.63648  -2.53924   2.34274
H    -1.75251  -2.41473   3.67623
H    -3.56399   0.24658   0.36182
H    -2.83345   1.42434  -3.00075
H    -4.18835   1.10239  -1.87476
H    -2.89755   2.25719  -1.41860
H    -1.06037   0.08730  -2.96634
