49
Generated by autodE on: 2022-10-08. E = -1142.005041 Ha
C     2.44556  -0.16502  -3.50404
N     2.04362  -0.32072  -2.11883
C     1.69893   0.71208  -1.35648
O     1.80474   1.90413  -1.65765
C     1.16441   0.32674   0.06006
C     2.35062   0.05489   0.96586
C     2.66618  -1.25051   1.36532
C     3.78561  -1.48210   2.16874
C     4.59799  -0.41887   2.57039
C     4.29092   0.88229   2.16150
C     3.17589   1.11988   1.35646
N     0.21212  -0.74208   0.00728
C    -1.08760  -0.19259  -0.37057
C    -1.12613  -0.11690  -1.84947
N    -1.13608  -0.06086  -3.00662
C    -2.24417  -1.05798   0.13267
C    -2.16983  -1.66805   1.39470
C    -3.23933  -2.42506   1.87651
C    -4.39855  -2.57597   1.11108
C    -4.48072  -1.96549  -0.14252
C    -3.40996  -1.21277  -0.62958
C    -1.11170   1.33463   0.21390
N    -1.77774   1.36015   1.46994
N    -1.49922   2.37988  -0.68858
C    -2.92638   2.48659  -0.98572
N     0.38408   1.54986   0.50141
H     3.07055   0.73077  -3.61132
H     3.01994  -1.04617  -3.81606
H     1.56321  -0.06152  -4.15756
H     1.78383  -1.24556  -1.78443
H     2.05306  -2.09512   1.04939
H     4.02209  -2.50236   2.47800
H     5.47255  -0.60417   3.19788
H     4.92362   1.71883   2.46532
H     2.95826   2.13868   1.03014
H     0.15389  -1.22981   0.89833
H    -1.29335  -1.54589   2.03291
H    -3.16347  -2.89343   2.86004
H    -5.23477  -3.16673   1.49148
H    -5.38065  -2.07544  -0.75117
H    -3.49022  -0.74638  -1.61233
H    -2.67859   0.88674   1.42794
H    -1.93969   2.32759   1.75542
H    -0.95710   2.33154  -1.55268
H    -3.35675   1.59230  -1.46778
H    -3.07432   3.34005  -1.66094
H    -3.49204   2.68646  -0.06585
H     0.75529   2.36267  -0.02315
H     0.49636   1.70817   1.50984
