36
Generated by autodE on: 2022-10-08. E = -896.732184 Ha
C    -3.44494   3.53633   0.02654
N    -2.85911   2.21793  -0.10767
C    -1.52953   2.02714  -0.04653
O    -0.72720   2.96696   0.12914
C    -1.02201   0.63899  -0.16109
N     0.29424   0.59192   0.02650
C     1.24664  -0.36546  -0.05245
C     0.94358  -1.62898  -0.60277
N     0.75970  -2.68553  -1.06813
C     2.61276  -0.06910   0.38784
C     3.67812  -0.92211   0.02558
C     4.98418  -0.64421   0.42474
C     5.26735   0.49163   1.19152
C     4.21973   1.33972   1.56516
C     2.90781   1.06204   1.18072
C    -1.86995  -0.54871  -0.34382
C    -2.74305  -0.64977  -1.44357
C    -3.57003  -1.76522  -1.58899
C    -3.53726  -2.79316  -0.64193
C    -2.67341  -2.70094   0.45496
C    -1.84587  -1.58929   0.60537
H    -4.51957   3.46896  -0.18157
H    -3.30557   3.94124   1.04265
H    -2.98746   4.24159  -0.68378
H    -3.46893   1.41297  -0.20230
H     0.63788   1.54434   0.23893
H     3.47804  -1.80583  -0.58368
H     5.79009  -1.31952   0.12745
H     6.29186   0.70894   1.50122
H     4.42083   2.22226   2.17712
H     2.11230   1.72590   1.52750
H    -2.75988   0.14377  -2.19320
H    -4.23802  -1.83390  -2.45056
H    -4.18405  -3.66586  -0.75765
H    -2.64653  -3.49946   1.19992
H    -1.17749  -1.51975   1.46613
