49
Generated by autodE on: 2022-10-08. E = -1141.982045 Ha. Imaginary frequency = -393.5 cm-1
C     2.32633   0.66611  -3.62431
N     1.99241   0.11686  -2.32334
C     1.70656   0.89835  -1.28567
O     1.82252   2.12879  -1.27611
C     1.24802   0.12735  -0.02118
C     2.36465  -0.24798   0.90872
C     2.06124  -0.95548   2.08575
C     3.07439  -1.29844   2.97968
C     4.39773  -0.92999   2.71436
C     4.70102  -0.20901   1.55681
C     3.68964   0.13721   0.65824
N     0.31305  -0.85044  -0.24693
C    -0.98325  -0.48404  -0.70949
C    -1.07217   0.15500  -1.96267
N    -1.17269   0.82025  -2.92265
C    -2.13932  -1.21716  -0.19485
C    -2.08193  -1.92028   1.02926
C    -3.21527  -2.55281   1.54924
C    -4.43628  -2.49474   0.87542
C    -4.50889  -1.79775  -0.33896
C    -3.38232  -1.17512  -0.86784
C    -1.01291   1.54654   0.58294
N    -1.78486   1.17304   1.63768
N    -1.44325   2.50410  -0.27784
C    -2.86610   2.66134  -0.54451
N     0.38998   1.46431   0.78510
H     3.08179   1.45656  -3.52001
H     2.72511  -0.13463  -4.25834
H     1.43026   1.09523  -4.10254
H     1.76747  -0.87149  -2.24756
H     1.02783  -1.22409   2.31959
H     2.82812  -1.84841   3.89026
H     5.19114  -1.19806   3.41549
H     5.73082   0.08879   1.34921
H     3.94443   0.70820  -0.23514
H     0.31582  -1.60642   0.43035
H    -1.15170  -1.98179   1.59840
H    -3.13631  -3.09053   2.49721
H    -5.32120  -2.98520   1.28663
H    -5.45483  -1.74477  -0.88357
H    -3.45907  -0.64314  -1.81839
H    -1.41659   0.40704   2.19910
H    -2.77514   1.04682   1.43592
H    -0.84483   2.62211  -1.09523
H    -3.34067   1.72048  -0.86345
H    -2.98466   3.40215  -1.34372
H    -3.38407   3.03534   0.35099
H     0.90116   2.25953   0.35943
H     0.62944   1.37095   1.77739
