57
Generated by autodE on: 2022-06-24. E = -1192.184883 Ha
C    -2.12869  -2.45983  -1.24243
C    -2.46955  -1.50838  -0.36209
C    -3.82714  -1.48135   0.28825
C    -1.54050  -0.38918   0.05267
C    -0.03261  -0.62003  -0.15913
C     0.53130  -1.59440   0.83044
C     1.16277  -2.75588   0.57954
C     1.47121  -3.29473  -0.79076
C     1.62190  -3.63486   1.71251
C     0.54120   0.83900  -0.09478
C     0.92730   1.19423   1.36717
O     0.05396   1.54684   2.17360
N     2.20875   1.06837   1.72526
C     2.63856   1.25309   3.09865
C     1.68410   1.07128  -1.07668
C     2.69344   0.11277  -1.26289
C     3.74319   0.34888  -2.15540
C     3.79822   1.54398  -2.87739
C     2.79687   2.50294  -2.69650
C     1.74972   2.26997  -1.80141
O    -0.54819   1.69087  -0.42839
C    -1.77554   0.98083  -0.65504
C    -2.02918   0.86933  -2.15060
C    -2.89926   1.77865   0.03540
O    -4.03768   1.85213  -0.45008
N    -2.55822   2.34751   1.19726
C    -3.52556   3.05077   2.01312
H    -2.83903  -3.24667  -1.51366
H    -1.15038  -2.49550  -1.72395
H    -4.36464  -0.55338   0.03583
H    -3.72975  -1.49729   1.38740
H    -4.44459  -2.33646  -0.02275
H    -1.69376  -0.21374   1.12824
H     0.13799  -0.96739  -1.18356
H     0.35597  -1.33057   1.88010
H     2.55125  -3.50254  -0.88304
H     0.95571  -4.25869  -0.94432
H     1.18460  -2.61973  -1.60646
H     1.36916  -3.20939   2.69485
H     1.16616  -4.63802   1.63832
H     2.71459  -3.78828   1.66917
H     2.88707   0.76816   1.03345
H     2.18994   0.49557   3.76148
H     2.34575   2.24675   3.46951
H     3.73043   1.16273   3.14343
H     2.66635  -0.82497  -0.70799
H     4.51744  -0.41039  -2.28827
H     4.61605   1.72677  -3.57830
H     2.82909   3.44067  -3.25659
H     0.96903   3.01809  -1.66683
H    -1.24163   0.26904  -2.62740
H    -2.99947   0.39899  -2.35303
H    -2.02655   1.87312  -2.60047
H    -1.60498   2.18692   1.54296
H    -3.99445   3.87496   1.45280
H    -4.33124   2.38089   2.35790
H    -3.01619   3.46775   2.89099
