34
Generated by autodE on: 2022-07-27. E = -840.567410 Ha
C     3.47773  -1.09213   2.37887
N     2.63681  -0.80375   1.23653
C     1.31287  -0.55807   1.38073
O     0.76999  -0.57192   2.50354
C     0.54543  -0.26570   0.15814
O    -0.68602   0.08051   0.47708
C    -1.82681   0.31750  -0.09918
C    -2.07513   0.17662  -1.54912
C    -2.89838   0.63335   0.86522
O    -4.05323   0.89138   0.48072
N    -2.54977   0.62605   2.17324
C    -3.52517   0.86475   3.21396
C     1.08029  -0.17237  -1.20408
C     1.81441  -1.23594  -1.76986
C     2.36283  -1.11943  -3.04719
C     2.18825   0.05587  -3.78626
C     1.46911   1.12045  -3.23379
C     0.92471   1.01342  -1.95369
H     4.47807  -1.36780   2.02271
H     3.06908  -1.92754   2.96824
H     3.57084  -0.22245   3.05141
H     3.06504  -0.71583   0.32210
H    -1.65911  -0.77246  -1.92587
H    -3.15853   0.19640  -1.71939
H    -1.61336   0.98441  -2.14437
H    -1.60581   0.34194   2.42252
H    -4.05362   1.81669   3.04926
H    -4.28480   0.06529   3.26037
H    -3.00951   0.91216   4.18112
H     1.93476  -2.16494  -1.20945
H     2.91952  -1.95708  -3.47376
H     2.61443   0.14282  -4.78827
H     1.33945   2.04631  -3.79902
H     0.39500   1.86081  -1.51495
