57
Generated by autodE on: 2022-06-24. E = -1192.093631 Ha. Imaginary frequency = -273.0 cm-1
C    -1.42245  -1.40747  -2.72831
C    -2.21329  -1.19690  -1.65565
C    -3.71527  -1.15180  -1.78475
C    -1.70850  -0.98230  -0.29266
C    -0.43559  -1.32713   0.14640
C    -0.16424  -1.55762   1.55013
C     0.89043  -2.22474   2.08014
C     1.98035  -2.86870   1.27094
C     1.02907  -2.37811   3.56762
C     0.73384   0.93199  -0.06137
C     1.54076   0.86694   1.18026
O     1.04857   1.15216   2.28717
N     2.82237   0.46077   1.05896
C     3.67608   0.26362   2.21041
C     1.32338   0.98586  -1.41274
C     2.05051  -0.09716  -1.94583
C     2.62961  -0.01225  -3.21339
C     2.49196   1.15037  -3.97726
C     1.78673   2.23894  -3.45265
C     1.21870   2.16374  -2.18161
O    -0.43215   1.51279   0.21095
C    -1.63119   1.49519  -0.33694
C    -1.88080   1.79982  -1.76811
C    -2.68913   1.74325   0.67748
O    -3.88372   1.86428   0.35161
N    -2.27819   1.78316   1.96329
C    -3.22182   1.89907   3.05384
H    -1.85555  -1.55692  -3.72105
H    -0.33242  -1.42625  -2.65415
H    -4.11520  -0.23387  -1.32569
H    -4.17561  -1.99592  -1.24209
H    -4.04022  -1.19652  -2.83402
H    -2.47793  -0.87526   0.47631
H     0.27653  -1.71106  -0.58281
H    -0.90592  -1.14955   2.24513
H     2.97020  -2.51843   1.60804
H     1.97333  -3.96285   1.42573
H     1.89676  -2.68018   0.19301
H     0.21569  -1.87812   4.11362
H     1.04276  -3.44433   3.85800
H     1.99036  -1.95699   3.91339
H     3.19226   0.26021   0.13709
H     4.53354  -0.35608   1.91904
H     3.12578  -0.24182   3.01628
H     4.05696   1.21944   2.60994
H     2.14866  -1.02080  -1.37401
H     3.18092  -0.86781  -3.61019
H     2.93789   1.21150  -4.97253
H     1.68920   3.15974  -4.03264
H     0.69948   3.02809  -1.76648
H    -1.33922   1.13210  -2.44771
H    -2.95456   1.71325  -1.96864
H    -1.57457   2.83833  -1.98784
H    -1.29386   1.60644   2.15762
H    -3.84811   2.79831   2.94403
H    -3.89562   1.02690   3.10702
H    -2.66732   1.97086   3.99779
