49
Generated by autodE on: 2022-06-20. E = -1021.012734 Ha
C    -2.45087  -3.17676  -2.00483
N    -1.72866  -2.21499  -1.19825
C    -1.73288  -0.90342  -1.47183
O    -2.42180  -0.39227  -2.36142
C    -0.85327  -0.03524  -0.52947
C    -1.81006   0.56640   0.49340
C    -1.78549   0.15880   1.83277
C    -2.68343   0.70309   2.75745
C    -3.62262   1.65422   2.35228
C    -3.66270   2.05383   1.01171
C    -2.76617   1.51216   0.08891
O     0.10570  -0.85952   0.12833
C     1.41660  -0.77434  -0.48379
C     1.86455  -2.20510  -0.79073
C     2.40356  -0.15973   0.51200
C     2.05278   0.09201   1.84402
C     2.98612   0.62355   2.74088
C     4.28821   0.90611   2.32096
C     4.65043   0.65039   0.99399
C     3.71653   0.12112   0.10056
C     1.21572   0.13862  -1.73523
C     1.05165  -0.59908  -3.06522
C    -0.02167   0.98214  -1.35196
C     0.34009   2.25552  -0.58637
H    -2.51593  -4.12826  -1.46191
H    -1.95089  -3.35635  -2.97210
H    -3.46760  -2.81280  -2.21006
H    -1.04149  -2.53190  -0.52094
H    -1.06438  -0.59273   2.15142
H    -2.64743   0.37662   3.79966
H    -4.32291   2.08026   3.07468
H    -4.39551   2.79408   0.68167
H    -2.80968   1.82396  -0.95519
H     1.15465  -2.70777  -1.46027
H     2.85756  -2.21193  -1.26134
H     1.92560  -2.77660   0.14750
H     1.03769  -0.11481   2.17815
H     2.68930   0.81889   3.77445
H     5.01647   1.32270   3.02090
H     5.66555   0.86557   0.65116
H     4.01494  -0.07284  -0.93246
H     2.08558   0.80084  -1.83406
H     0.85833   0.12990  -3.86712
H     1.96542  -1.15101  -3.33027
H     0.21980  -1.31786  -3.06304
H    -0.58453   1.25757  -2.25329
H     0.78580   2.03575   0.39382
H    -0.54040   2.89087  -0.41946
H     1.07134   2.83962  -1.16596
