12
Generated by autodE on: 2022-06-20. E = -157.300303 Ha
C    -1.95750   0.16037   0.00803
C    -0.51764   0.08415   0.41664
C     0.51767  -0.08381  -0.41668
C     1.95748  -0.16061  -0.00800
H    -2.55429  -0.63105   0.49543
H    -2.41066   1.11958   0.31578
H    -2.07846   0.05848  -1.08197
H    -0.31344   0.17609   1.49267
H     0.31348  -0.17560  -1.49273
H     2.40910  -1.12168  -0.31226
H     2.07873  -0.05507   1.08162
H     2.55544   0.62805  -0.49838
