37
Generated by autodE on: 2022-06-20. E = -863.613821 Ha
C    -1.50002   3.76492   1.52922
N    -0.98768   2.47146   1.13591
C    -1.80109   1.52361   0.58883
O    -3.02595   1.74017   0.45802
C    -1.17327   0.26964   0.18977
O     0.18487   0.33574   0.25691
C     1.08748  -0.59451   0.42186
C     0.67226  -1.97261   0.74498
C     2.45317  -0.11915   0.34245
C     2.72574   1.24569   0.06989
C     4.03548   1.70908   0.01532
C     5.10892   0.82893   0.20917
C     4.85536  -0.52403   0.46022
C     3.54678  -0.99756   0.52698
C    -1.86303  -0.79429  -0.51865
C    -3.20126  -1.13597  -0.20251
C    -3.88452  -2.10700  -0.93025
C    -3.26310  -2.77622  -1.99297
C    -1.94341  -2.45111  -2.32034
C    -1.25098  -1.47831  -1.59810
H    -2.25101   3.68160   2.33307
H    -0.66773   4.37972   1.89462
H    -1.97749   4.28947   0.68510
H    -0.00472   2.26680   1.26635
H     0.36920  -2.54756  -0.14956
H     1.47600  -2.51845   1.25097
H    -0.21820  -1.93014   1.39611
H     1.89721   1.93344  -0.10099
H     4.22498   2.76529  -0.18948
H     6.13649   1.19542   0.15699
H     5.68570  -1.21879   0.60508
H     3.37449  -2.05624   0.72231
H    -3.69497  -0.63165   0.62651
H    -4.91392  -2.35397  -0.65775
H    -3.80117  -3.54196  -2.55627
H    -1.44492  -2.95430  -3.15271
H    -0.23489  -1.21866  -1.90104
