49
Generated by autodE on: 2022-06-20. E = -1020.904930 Ha. Imaginary frequency = -268.1 cm-1
C    -1.88164  -3.52323  -1.92097
N    -1.59941  -2.48272  -0.95150
C    -1.62816  -1.17372  -1.28934
O    -2.15357  -0.78013  -2.34126
C    -1.07672  -0.23714  -0.25353
C    -2.02380   0.45860   0.60406
C    -1.68120   0.84772   1.92012
C    -2.57966   1.56226   2.71063
C    -3.84545   1.90685   2.22235
C    -4.20251   1.51509   0.92623
C    -3.31214   0.80041   0.12724
O     0.12155  -0.46814   0.31035
C     1.28206  -0.82761  -0.22906
C     1.34724  -1.91012  -1.25387
C     2.43218  -0.47921   0.60006
C     2.32623   0.51136   1.60697
C     3.42674   0.86969   2.37964
C     4.67185   0.26035   2.17277
C     4.79494  -0.71591   1.17992
C     3.69415  -1.08536   0.40527
C     1.18118   1.11156  -1.90581
C     1.48721   0.43663  -3.21235
C    -0.05772   1.60652  -1.59876
C    -0.25276   2.68691  -0.57292
H    -1.90992  -4.49269  -1.40834
H    -1.11003  -3.56049  -2.71023
H    -2.85379  -3.34740  -2.40222
H    -1.10153  -2.74227  -0.10604
H    -0.70697   0.57342   2.32370
H    -2.28886   1.84887   3.72462
H    -4.54624   2.46775   2.84470
H    -5.18792   1.77263   0.52956
H    -3.59974   0.52001  -0.88640
H     0.61236  -1.78413  -2.05511
H     2.33690  -1.93617  -1.72122
H     1.16959  -2.89732  -0.78874
H     1.37111   1.00994   1.76774
H     3.31563   1.63882   3.14802
H     5.53528   0.54697   2.77732
H     5.75787  -1.20295   1.00746
H     3.82090  -1.85861  -0.35236
H     2.03707   1.47938  -1.33086
H     1.75475   1.19022  -3.97612
H     2.33957  -0.25431  -3.14534
H     0.61637  -0.11843  -3.59492
H    -0.87829   1.42781  -2.29977
H     0.37363   2.51913   0.31752
H    -1.29692   2.77663  -0.24614
H     0.04025   3.66634  -0.99345
