43
Generated by autodE on: 2022-05-31. E = -1204.035283 Ha
C    -4.21530  -1.82491   1.47392
N    -2.92724  -1.45623   0.91561
C    -2.57860  -0.17772   0.75875
O    -3.30727   0.76575   1.09211
C    -1.27220   0.15272   0.03300
C    -1.64550   0.08014  -1.52634
C    -0.55476   0.71063  -2.37403
C     0.46782  -0.15081  -2.33390
C    -0.00453  -1.28776  -1.44888
O    -1.41727  -1.31494  -1.72317
C    -0.04616  -0.81935   0.04610
F    -0.26858  -1.96221   0.80954
C     1.15555  -0.02569   0.63045
C     1.32150  -0.32903   2.13315
C     2.46910  -0.33997  -0.08324
C     3.27247   0.66372  -0.63679
C     4.47432   0.34046  -1.27527
C     4.88619  -0.99089  -1.37165
C     4.09142  -1.99909  -0.81579
C     2.89719  -1.67453  -0.17004
N     0.74108   1.36484   0.37923
C    -0.69132   1.50989   0.55678
C    -1.20860   2.66453  -0.21457
N    -1.60742   3.57587  -0.80818
C    -1.04487   1.79186   1.98156
N    -1.16201   2.08070   3.09876
H    -4.25195  -2.91520   1.58370
H    -4.36147  -1.36052   2.46071
H    -5.04159  -1.50328   0.81990
H    -2.28943  -2.18026   0.60605
H    -2.68195   0.36444  -1.73264
H    -0.61387   1.68518  -2.85416
H     1.45906  -0.06135  -2.77179
H     0.45336  -2.27272  -1.57648
H     1.70890  -1.34328   2.29095
H     0.37196  -0.23879   2.67776
H     2.04158   0.38750   2.55487
H     2.95545   1.70523  -0.58799
H     5.08809   1.13672  -1.70317
H     5.82195  -1.24296  -1.87602
H     4.40253  -3.04417  -0.88401
H     2.28725  -2.47068   0.26205
H     1.27457   2.04770   0.91621
