20
Generated by autodE on: 2022-05-31. E = -614.916299 Ha
C     3.76563  -0.53870   0.10128
N     2.41012  -0.03725   0.19136
C     1.37647  -0.58000  -0.48318
O     1.49766  -1.54996  -1.23163
C     0.05969   0.03982  -0.28367
C    -0.42487   0.92503   0.59855
F     0.19957   1.58580   1.56126
C    -1.94763   0.99035   0.40042
C    -2.51127  -0.36924   0.88106
C    -2.06270  -1.25500  -0.01277
C    -1.22346  -0.42778  -1.01376
O    -1.98207   0.80351  -1.02359
H     4.37997   0.05664  -0.59572
H     4.24272  -0.51142   1.09131
H     3.74618  -1.57538  -0.25649
H     2.23673   0.77583   0.77309
H    -2.44757   1.90660   0.73196
H    -3.09568  -0.51731   1.78801
H    -2.18175  -2.33736  -0.04283
H    -1.07660  -0.83752  -2.01758
