23
Generated by autodE on: 2022-05-31. E = -589.065393 Ha
C     0.46745  -2.00873  -0.32713
C    -0.00591  -0.60946  -0.15615
N     0.86503   0.37304  -0.07613
C     2.26459   0.34110   0.00639
C     2.96722  -0.72717   0.58605
N     3.58276  -1.59092   1.08367
C     2.96540   1.49383  -0.38719
N     3.55376   2.45364  -0.71171
C    -1.43018  -0.26588  -0.06190
C    -2.40071  -1.05127  -0.71740
C    -3.74861  -0.70148  -0.66185
C    -4.15714   0.42620   0.05806
C    -3.20654   1.20405   0.72667
C    -1.85646   0.86187   0.67278
H    -0.34096  -2.65978  -0.67566
H     0.83129  -2.41555   0.63101
H     1.30550  -2.04784  -1.04021
H     0.47484   1.31921  -0.07486
H    -2.09951  -1.92331  -1.29829
H    -4.48537  -1.31294  -1.18720
H    -5.21528   0.69291   0.10538
H    -3.51892   2.07421   1.30795
H    -1.13652   1.45677   1.23893
