23
Generated by autodE on: 2022-07-27. E = -589.065279 Ha
C    -1.01450  -1.52135   1.01558
C    -0.19939  -0.55128   0.23634
N    -0.71248   0.61029  -0.10671
C    -1.92756   1.21328   0.24686
C    -2.40896   2.23864  -0.58539
N    -2.81363   3.09626  -1.27337
C    -2.59826   0.93469   1.44850
N    -3.17494   0.74687   2.45079
C     1.18319  -0.83345  -0.17120
C     2.11510   0.21151  -0.35616
C     3.41426  -0.06333  -0.77947
C     3.81331  -1.38221  -1.01843
C     2.90389  -2.42723  -0.82545
C     1.60420  -2.15998  -0.39914
H    -0.58142  -2.52581   0.97239
H    -1.06194  -1.22628   2.07687
H    -2.04713  -1.55100   0.63530
H    -0.14560   1.18110  -0.73907
H     1.84072   1.24530  -0.13433
H     4.12370   0.75698  -0.90753
H     4.83328  -1.59578  -1.34565
H     3.20759  -3.45977  -1.01065
H     0.90538  -2.98677  -0.27060
