43
Generated by autodE on: 2022-05-31. E = -1203.962713 Ha. Imaginary frequency = -386.4 cm-1
C    -3.83750  -1.30274   2.37633
N    -2.71813  -1.24193   1.45792
C    -2.68183  -0.34196   0.45324
O    -3.64313   0.40380   0.20625
C    -1.44492  -0.27495  -0.35510
C    -1.56586   0.10807  -1.85965
C    -0.36247   0.93582  -2.31897
C     0.67153   0.08648  -2.31668
C     0.08721  -1.24036  -1.83753
O    -1.23377  -1.18013  -2.43986
C    -0.31292  -1.09696  -0.34302
F    -0.24578  -2.23422   0.40571
C     1.22233   0.08217   0.79689
C     0.97335  -0.55126   2.14076
C     2.53264  -0.20780   0.15522
C     3.39492   0.81560  -0.27798
C     4.59164   0.50733  -0.92798
C     4.95006  -0.82474  -1.15074
C     4.10737  -1.84994  -0.70759
C     2.91469  -1.54655  -0.05298
N     0.70721   1.31409   0.53788
C    -0.58363   1.70584   0.81880
C    -1.14593   2.75883   0.04421
N    -1.63535   3.60481  -0.59027
C    -1.18005   1.54526   2.10232
N    -1.73644   1.46128   3.12221
H    -3.62710  -2.06219   3.13924
H    -3.99413  -0.33294   2.87367
H    -4.76938  -1.57384   1.85523
H    -1.90609  -1.82391   1.62962
H    -2.56254   0.45173  -2.14920
H    -0.37995   1.99777  -2.55581
H     1.71893   0.27014  -2.54671
H     0.62089  -2.16427  -2.08109
H     1.36994  -1.57089   2.16385
H    -0.08121  -0.58370   2.42811
H     1.51871   0.03993   2.89586
H     3.14875   1.86358  -0.09501
H     5.25031   1.31556  -1.25335
H     5.88556  -1.06430  -1.66117
H     4.37882  -2.89454  -0.87512
H     2.25827  -2.35559   0.26935
H     1.08273   1.76333  -0.29680
