30
Generated by autodE on: 2022-06-17. E = -858.255511 Ha
C     4.33304  -0.98142   0.87372
O     3.25079  -0.46607   0.07486
C     2.06095  -0.38760   0.65174
O     1.80274  -0.69834   1.78794
C     1.00028   0.09134  -0.35362
C     1.52842   1.18428  -1.19912
N     1.88759   2.06061  -1.86815
C     0.49438  -1.09241  -1.21732
C    -0.94347  -0.67084  -1.49548
C    -1.33883   0.01807  -0.17082
C    -1.90646  -0.96936   0.88658
C    -3.04883  -1.84920   0.47695
O    -1.40143  -1.01037   1.98929
C    -2.35447   1.15066  -0.42084
C    -1.96135   2.52622   0.01812
O    -3.40990   0.89612  -0.96973
O    -0.12609   0.56915   0.35110
H     4.10947  -2.00969   1.19072
H     5.21721  -0.96268   0.22743
H     4.48696  -0.34453   1.75573
H     1.10342  -1.24002  -2.11680
H     0.52639  -2.00490  -0.60464
H    -0.98210   0.06172  -2.31470
H    -1.59707  -1.51143  -1.75235
H    -3.58178  -2.20245   1.36956
H    -2.63257  -2.72458  -0.05070
H    -3.72718  -1.33741  -0.21753
H    -1.69597   2.51750   1.08668
H    -1.05791   2.84210  -0.52821
H    -2.78578   3.22462  -0.17327
