24
Generated by autodE on: 2022-06-17. E = -779.519661 Ha
C     4.49646  -0.36809  -0.28969
O     3.23517   0.30312  -0.12742
C     2.14592  -0.45676  -0.15271
O     2.12780  -1.66126  -0.29859
C     0.91664   0.36316   0.00447
C     0.99523   1.74748   0.28543
N     1.20150   2.85302   0.59410
O    -0.15962  -0.36119   0.02155
C    -1.46277  -0.23563   0.07780
C    -2.09176   1.06673  -0.20658
C    -3.56708   1.24452  -0.01997
O    -1.37414   1.96201  -0.64795
C    -2.14247  -1.54042   0.24158
C    -1.26962  -2.76498   0.31722
O    -3.36310  -1.59599   0.33184
H     4.64706  -1.09226   0.52346
H     4.52720  -0.88682  -1.25838
H     5.25984   0.41659  -0.25030
H    -3.86684   0.95951   0.99927
H    -3.81898   2.29438  -0.21857
H    -4.11918   0.58766  -0.70890
H    -1.91081  -3.65364   0.36599
H    -0.59708  -2.82402  -0.55152
H    -0.62903  -2.71777   1.21229
