30
Generated by autodE on: 2022-06-17. E = -858.155476 Ha. Imaginary frequency = -205.2 cm-1
C     4.17270  -1.75093   0.41030
O     3.18156  -0.73011   0.20694
C     1.93204  -1.03446   0.54209
O     1.56830  -2.09361   1.00969
C     1.00274   0.08493   0.23320
C     1.52507   1.34713  -0.15996
N     2.09133   2.29733  -0.52662
C     0.42336  -0.51940  -2.15356
C    -0.88719  -0.15917  -2.20478
C    -1.41195   0.26826   0.23778
C    -2.47224  -0.75077   0.44793
C    -2.02826  -2.10187   0.94090
O    -3.64022  -0.49874   0.18159
C    -1.64318   1.72173   0.07544
C    -2.94511   2.20987  -0.48470
O    -0.76319   2.49014   0.44942
O    -0.22402  -0.17680   0.60155
H     3.92350  -2.64460  -0.17938
H     5.12037  -1.31968   0.06970
H     4.23225  -2.01514   1.47566
H     1.21359   0.16517  -2.46760
H     0.71210  -1.55633  -1.96233
H    -1.18257   0.84196  -2.52945
H    -1.68218  -0.90199  -2.11309
H    -2.90796  -2.74920   1.04258
H    -1.50753  -2.01231   1.90636
H    -1.31124  -2.54579   0.23310
H    -3.74009   2.06602   0.26374
H    -3.24067   1.64442  -1.37853
H    -2.84624   3.27942  -0.71282
