19
Generated by autodE on: 2022-10-07. E = -609.785527 Ha
C     0.25809   0.38976   2.77011
O     0.69164   0.14962   1.60600
C     0.10040   0.04606   0.38345
C     1.03533  -0.25503  -0.68517
O     0.74392  -0.39734  -1.86483
O     2.30848  -0.36861  -0.23978
C     3.29761  -0.66374  -1.22903
C    -1.32455   0.23581   0.28231
O    -2.04747   0.49078   1.24570
O    -1.81288   0.11098  -0.96504
C    -3.22575   0.28823  -1.11269
H    -0.80319   0.56885   2.94727
H     1.02984   0.39816   3.54488
H     4.25286  -0.72107  -0.69312
H     3.34199   0.12952  -1.99042
H     3.08648  -1.62405  -1.72308
H    -3.77874  -0.45752  -0.52238
H    -3.53015   1.29709  -0.79659
H    -3.43432   0.15091  -2.18046
