29
Generated by autodE on: 2022-10-07. E = -1064.849217 Ha. Imaginary frequency = -233.0 cm-1
C    -1.10289   3.96495  -0.23013
O    -0.85112   2.72675   0.43794
C    -1.44211   1.63300  -0.08752
O    -2.26949   1.70363  -0.98559
C    -0.95765   0.40113   0.51668
C    -1.55364  -0.89123   0.21983
O    -2.29579  -1.12706  -0.72354
O    -1.20863  -1.84066   1.11421
C    -1.67295  -3.16971   0.85397
O    -0.03389   0.59576   1.49033
C     0.84688  -0.22863   1.94539
C     1.93362  -0.80710  -0.06285
C     1.86976  -2.31671   0.08734
O     1.19557  -2.96665  -0.75720
O     2.49166  -2.80324   1.07108
C     1.18882  -0.12395  -0.97935
C     1.35886   1.35492  -1.24520
O     0.74895   1.81161  -2.25348
O     2.07670   2.01686  -0.44905
H    -2.17569   4.20772  -0.22890
H    -0.54538   4.72732   0.32740
H    -0.73641   3.91496  -1.26579
H    -1.25286  -3.79395   1.65140
H    -1.31046  -3.51654  -0.12272
H    -2.77158  -3.20900   0.88054
H     0.64628  -1.29308   2.01568
H     1.60747   0.25068   2.56559
H     2.75720  -0.28866   0.43655
H     0.51464  -0.67206  -1.64083
