31
Generated by autodE on: 2022-06-07. E = -3712.837504 Ha
C     4.52790   0.47717  -0.72884
C     3.28996   0.48166   0.11661
O     3.23166   1.01253   1.20808
C     2.02680  -0.18452  -0.45956
Br    2.39702  -2.17125  -0.21288
C     0.81819   0.11331   0.27567
C    -0.35682   0.32954   0.46452
C    -1.76117   0.57513   0.15080
C    -2.11608   2.04884   0.47206
F    -1.88552   2.35037   1.75675
F    -1.37897   2.88635  -0.27000
F    -3.40414   2.31284   0.21670
C    -2.66236  -0.38170   0.97051
F    -3.94744  -0.28313   0.60974
F    -2.28267  -1.65192   0.77429
F    -2.58785  -0.14232   2.28671
C    -1.95269   0.27786  -1.37923
C    -0.79662   0.67140  -2.32046
C     0.38467  -0.32611  -2.48873
C     1.76194   0.10795  -1.95112
H     4.42123   1.26271  -1.49631
H     4.67160  -0.47705  -1.25304
H     5.40008   0.71038  -0.10488
H    -2.13457  -0.80163  -1.47629
H    -2.87691   0.78293  -1.69409
H    -0.41380   1.66756  -2.05693
H    -1.26652   0.79206  -3.30797
H     0.52376  -0.49270  -3.56705
H     0.11952  -1.31174  -2.07213
H     1.87540   1.19944  -2.07208
H     2.56369  -0.35827  -2.54018
