12
Generated by autodE on: 2022-06-07. E = -411.042459 Ha
C    -2.42717   0.56010  -0.29464
C    -1.20059  -0.09261   0.24899
O    -0.73564   0.09523   1.35966
N    -0.65711  -1.07853  -0.60920
N     0.59709  -1.27421  -0.67405
N     1.64620  -0.56747  -0.37933
C     1.51997   0.68971   0.01511
N     1.58777   1.82014   0.31100
H    -3.14219  -0.20161  -0.64038
H    -2.88276   1.19952   0.47125
H    -2.14674   1.16701  -1.17200
H     0.85917  -2.17886  -1.09525
