43
Generated by autodE on: 2022-06-07. E = -4123.856910 Ha. Imaginary frequency = -362.7 cm-1
C     0.88571   2.24798  -3.51590
C     0.80626   1.06268  -2.58856
O     0.61903  -0.07202  -2.96647
N     1.15180   1.34125  -1.23769
N     0.65085   2.36087  -0.61314
N    -0.63969   2.58343  -0.45201
C    -1.48306   2.33062  -1.43987
N    -2.34715   2.20623  -2.22205
C    -0.65458  -0.02616   0.06681
C     0.56277  -0.17458  -0.15637
C     1.72416  -0.96120   0.35490
C     2.45584  -1.71590  -0.78572
F     1.60959  -2.53672  -1.41990
F     2.99626  -0.90860  -1.70302
F     3.45202  -2.46701  -0.28452
C     2.72930  -0.02257   1.09222
F     3.52135  -0.71554   1.91914
F     2.06920   0.88474   1.83461
F     3.52639   0.66016   0.26328
C     1.16757  -2.03393   1.34857
C     0.22628  -1.50585   2.45324
C    -1.22223  -2.01285   2.38479
C    -1.98207  -1.84077   1.06658
C    -2.00034  -0.42318   0.42564
Br   -2.74739   0.89980   1.72458
C    -2.88614  -0.54862  -0.85826
C    -4.35377  -0.27622  -0.77006
O    -2.33756  -0.94238  -1.86429
H     0.17257   2.09578  -4.33643
H     1.90513   2.26711  -3.93608
H     0.70500   3.20790  -3.01755
H     1.20842   2.70703   0.17432
H     2.02857  -2.55088   1.78846
H     0.64426  -2.77544   0.73086
H     0.63358  -1.80849   3.42939
H     0.22365  -0.40819   2.47528
H    -1.23782  -3.09404   2.60101
H    -1.79026  -1.53014   3.19497
H    -3.02608  -2.16147   1.20636
H    -1.55281  -2.49027   0.28758
H    -4.79115  -0.69065   0.14945
H    -4.84569  -0.69594  -1.65684
H    -4.51399   0.81324  -0.74928
