35
Generated by autodE on: 2022-10-21. E = -986.269216 Ha
C     4.30828  -0.43955  -1.00096
N     2.90818  -0.74004  -0.76814
C     2.50914  -1.18442   0.43394
O     3.24083  -1.47884   1.37852
N     1.10695  -1.39706   0.58756
C     0.48566  -0.77416   1.70871
C    -0.49965   0.04256   1.31008
O    -1.35934   0.80205   1.99623
C    -1.17438   0.82852   3.41110
C    -0.59151   0.01328  -0.20699
C    -0.13573   1.35963  -0.84463
O     0.97855   1.44328  -1.36717
N    -0.99238   2.37697  -0.73368
C    -0.69487   3.69268  -1.26852
C    -2.01378  -0.39355  -0.65300
O    -2.94984   0.39675  -0.48917
N    -2.11825  -1.61677  -1.17314
C    -3.37413  -2.19674  -1.60528
O     0.34036  -1.00239  -0.56147
H     4.93600  -1.26748  -0.64466
H     4.47380  -0.31176  -2.07861
H     4.62888   0.48118  -0.48372
H     2.20405  -0.22226  -1.29991
H     0.85221  -0.99915   2.70549
H    -1.94062   1.49984   3.81673
H    -1.29935  -0.18174   3.83447
H    -0.17030   1.20843   3.66147
H    -1.93063   2.15145  -0.40348
H    -0.70513   3.69605  -2.37105
H    -1.44828   4.40236  -0.90571
H     0.29893   4.02507  -0.93537
H    -1.26409  -2.16597  -1.22105
H    -3.76156  -2.91365  -0.86334
H    -3.23415  -2.72313  -2.55972
H    -4.11352  -1.39795  -1.74001
