27
Generated by autodE on: 2022-10-26. E = -794.201044 Ha
C     4.32923  -0.89101   0.76220
N     2.91833  -0.67883   0.50888
C     2.10390  -1.71518   0.22284
O     2.48401  -2.88955   0.15905
N     0.73963  -1.47799  -0.02227
O     0.49999  -0.16378   0.08942
C    -0.61978   0.43786  -0.06876
C    -0.44578   1.92214   0.15309
O     0.66583   2.37204   0.44839
N    -1.55003   2.66116   0.00679
C    -1.52316   4.09574   0.19827
C    -1.90651  -0.24202  -0.42353
O    -2.94603   0.42657  -0.55888
N    -1.85990  -1.56975  -0.58009
C    -3.05164  -2.31578  -0.92958
H     4.79713   0.07735   0.97767
H     4.83320  -1.33944  -0.10918
H     4.48833  -1.55848   1.62433
H     2.54108   0.26217   0.54357
H    -2.40957   2.15917  -0.23621
H    -0.82561   4.57630  -0.50617
H    -1.19952   4.35281   1.21964
H    -2.53058   4.49458   0.03181
H    -0.95268  -2.03209  -0.44925
H    -3.46608  -1.96666  -1.88846
H    -2.79138  -3.37705  -1.01342
H    -3.83128  -2.19276  -0.16136
