27
Generated by autodE on: 2022-10-21. E = -794.187123 Ha
C     3.82586  -2.14789   0.90031
N     3.26329  -0.81416   0.91336
C     1.93061  -0.60535   0.78647
O     1.12769  -1.50742   0.48932
N     1.58119   0.69537   1.11075
O     0.27501   0.97069   0.86054
C    -0.47839   0.53069  -0.07995
C     0.06094  -0.09194  -1.34595
O     1.02457   0.48037  -1.86335
N    -0.59050  -1.13085  -1.86947
C    -1.62274  -1.91451  -1.21675
C    -1.87796   1.07249  -0.05009
O    -2.54478   1.08409  -1.08923
N    -2.31358   1.50605   1.14020
C    -3.63083   2.09274   1.29264
H     3.69243  -2.67363   1.86246
H     3.34299  -2.74631   0.11596
H     4.90072  -2.08496   0.68552
H     3.81254  -0.05627   1.30722
H    -0.22346  -1.46349  -2.75911
H    -2.61971  -1.69825  -1.62863
H    -1.63012  -1.71328  -0.13805
H    -1.40642  -2.98359  -1.35291
H    -1.67843   1.48815   1.93264
H    -4.39519   1.43519   0.85265
H    -3.69522   3.07284   0.79245
H    -3.83967   2.22289   2.36081
