20
Generated by autodE on: 2022-06-18. E = -552.863883 Ha
C     2.91778  -0.50236   0.11590
C     1.77276   0.44289   0.40830
O     1.98613   1.54742   0.93214
C     0.45919  -0.01225   0.04870
C     0.09370  -1.23701  -0.55502
O     0.66233  -2.23985  -0.94782
O    -1.34219  -1.15449  -0.68697
C    -1.75705   0.00928  -0.20220
C    -3.19319   0.35766  -0.21012
N    -0.74338   0.71675   0.24195
C    -0.85454   2.04344   0.84186
H     2.97280  -0.73245  -0.95958
H     3.85504  -0.03337   0.44301
H     2.77906  -1.46175   0.63817
H    -3.55655   0.52590   0.81557
H    -3.75637  -0.46716  -0.66232
H    -3.36628   1.27731  -0.79001
H    -0.43633   2.02392   1.85439
H    -1.91088   2.32826   0.88202
H    -0.29618   2.76867   0.23859
