25
Generated by autodE on: 2022-07-27. E = -833.903463 Ha
C    -1.98102  -3.03913   2.53802
N    -1.93930  -2.59332   1.16120
C    -1.38300  -1.41727   0.81078
O    -0.77823  -0.67579   1.60316
N    -1.66192  -1.09431  -0.51831
O    -1.02581  -0.00205  -0.95656
C     0.11355   0.48155  -0.59949
C     0.48337   1.76102  -1.26698
O     1.61811   2.19295  -1.24888
O    -0.55163   2.33867  -1.86041
C    -0.28341   3.56472  -2.56390
C     1.14178  -0.31345   0.14247
O     1.34604  -1.47738  -0.13496
O     1.82389   0.41287   1.00522
C     2.85627  -0.26756   1.74407
H    -2.13151  -4.12605   2.56009
H    -2.79681  -2.56037   3.10685
H    -1.03093  -2.79880   3.03404
H    -2.53264  -3.05064   0.47478
H     0.11086   4.32022  -1.86955
H    -1.24489   3.88794  -2.97734
H     0.44297   3.38838  -3.36991
H     3.61048  -0.67410   1.05616
H     3.30136   0.48895   2.39913
H     2.41389  -1.08011   2.33742
