31
Generated by autodE on: 2022-06-14. E = -891.418179 Ha
C    -0.59188   3.43779  -2.94740
O    -0.14736   2.15680  -2.46757
C    -0.60806   1.76151  -1.28435
O    -1.37272   2.39875  -0.59623
C    -0.01411   0.39990  -0.90707
C    -0.21293  -0.56524  -2.12228
C    -1.62306  -0.98024  -2.41787
O     0.74186  -0.93889  -2.76674
C    -0.63230  -0.15146   0.28868
C    -0.76954  -0.72254   1.34827
C    -0.23186  -1.32784   2.56878
F    -0.97163  -2.40109   2.98981
F    -0.29314  -0.41482   3.59725
C     1.21385  -1.75050   2.33406
C     2.11855  -0.68028   1.69368
C     2.17977  -0.60784   0.14174
C     1.50026   0.58285  -0.56504
H    -0.11304   3.57498  -3.92320
H    -0.28124   4.23081  -2.25281
H    -1.68591   3.44404  -3.05212
H    -2.30752  -0.11832  -2.38454
H    -1.95534  -1.68371  -1.63651
H    -1.67278  -1.47448  -3.39632
H     1.18675  -2.65725   1.71016
H     1.60269  -2.04028   3.32337
H     3.13658  -0.89561   2.05021
H     1.86595   0.30807   2.11283
H     3.24269  -0.54287  -0.13611
H     1.82221  -1.55423  -0.29463
H     2.00675   0.78716  -1.51756
H     1.59598   1.48549   0.05844
