56
Generated by autodE on: 2022-06-14. E = -1725.306702 Ha. Imaginary frequency = -61.7 cm-1
C    -0.86592  -3.83675  13.26249
N    -1.22431  -2.48340  12.88383
C    -1.34689  -1.48256  13.78621
O    -1.34225  -1.64259  15.00417
N    -1.66602  -0.20560  13.25046
O    -1.03274   0.16037  12.13644
C     0.18017  -0.01419  11.72715
C     0.51081   0.72214  10.47025
O     1.65369   0.87775  10.09075
O    -0.57029   1.16965   9.85062
C    -0.35144   1.95175   8.66307
C     1.18201  -1.00821  12.25702
O     1.85997  -1.66709  11.49977
O     1.22214  -1.06408  13.57101
C     2.14490  -1.98638  14.17449
C     0.81610   2.07086  13.53282
C     0.01121   1.72243  14.38104
C    -0.26456   1.85963  15.82014
F    -1.36273   1.17342  16.25336
F    -0.57980   3.19268  16.03976
C     0.95832   1.48129  16.66391
C     2.34198   1.51527  15.99677
C     2.97631   2.83291  15.50270
C     2.37589   3.66836  14.35550
C     1.93129   2.89332  13.05257
C     3.13926   2.06615  12.52453
C     4.14432   2.76056  11.65747
O     3.25993   0.90600  12.85770
C     1.40869   3.86313  11.98396
O     0.43061   3.63587  11.30378
O     2.14335   4.96104  11.88266
C     1.78360   5.89443  10.84920
H    -0.13297  -4.23843  12.54812
H    -1.74325  -4.50467  13.27869
H    -0.42124  -3.82633  14.26476
H    -1.38624  -2.29338  11.89933
H     0.22452   2.85358   8.90878
H    -1.34841   2.22088   8.29734
H     0.18536   1.35588   7.91152
H     1.98104  -2.99906  13.78328
H     3.17353  -1.66303  13.96506
H     1.93725  -1.94761  15.24866
H     0.77883   0.44771  16.99619
H     0.92179   2.12600  17.55652
H     2.35545   0.77759  15.18519
H     3.03754   1.12258  16.75623
H     4.01053   2.57384  15.22205
H     3.06758   3.52645  16.35607
H     1.48083   4.20791  14.69622
H     3.11645   4.42407  14.06017
H     3.68751   2.96897  10.67583
H     5.01530   2.10753  11.52126
H     4.44324   3.72594  12.08927
H     0.74964   6.23807  10.98957
H     1.88770   5.42010   9.86285
H     2.48353   6.73161  10.94596
