36
Generated by autodE on: 2022-06-17. E = -725.773898 Ha
C    -3.47401   0.54265   1.08412
C    -2.36348   0.59408   0.03741
C    -1.00969   0.99884   0.66138
C    -0.51639  -0.36148   1.16424
C     0.99574  -0.47413   1.35880
C     1.73858   0.11222   0.18658
C     3.09850  -0.27629  -0.18637
N     3.71424  -1.19268   0.60984
O     3.69900   0.18389  -1.18272
C     1.14224   1.11020  -0.53249
N    -0.09363   1.60896  -0.30896
C    -0.59137   2.71296  -1.11015
N    -1.02041  -1.32921   0.16778
C    -1.43080  -2.58344   0.77202
N    -2.11181  -0.72408  -0.57300
C    -1.76558  -0.66518  -1.98926
H    -3.66056   1.54567   1.49945
H    -3.22119  -0.13046   1.91712
H    -4.40578   0.17834   0.62668
H    -2.66874   1.29319  -0.75037
H    -1.15687   1.69980   1.49882
H    -1.00421  -0.53840   2.13994
H     1.24105  -1.53760   1.50616
H     1.26763   0.03684   2.30117
H     3.31184  -1.51236   1.48136
H     4.67772  -1.43351   0.40631
H     1.69314   1.57843  -1.35131
H    -1.20240   2.37547  -1.96506
H     0.25378   3.29576  -1.50007
H    -1.20969   3.37972  -0.48929
H    -1.74891  -3.29355  -0.00574
H    -2.26066  -2.46550   1.49944
H    -0.57363  -3.03089   1.29915
H    -2.59217  -0.19751  -2.54528
H    -0.83486  -0.10733  -2.20283
H    -1.64318  -1.68819  -2.37627
