16
Generated by autodE on: 2022-06-17. E = -268.004813 Ha
C    -2.16778  -0.63016  -0.38282
C    -0.70135  -0.73979  -0.12002
N     0.08767   0.32115   0.01318
C    -0.52085   1.65697  -0.10353
N     1.38960   0.35838   0.24500
C     1.96411  -0.94811   0.35707
H    -2.59805  -1.63912  -0.45353
H    -2.71220  -0.09456   0.41650
H    -2.40063  -0.10504  -1.32734
H    -0.23730  -1.71792  -0.03024
H     0.27639   2.39304   0.02935
H    -1.29029   1.78884   0.66845
H    -0.98373   1.77506  -1.09202
H     1.52896  -1.55439   1.18432
H     1.83729  -1.56845  -0.55963
H     3.04153  -0.84294   0.54688
