20
Generated by autodE on: 2022-06-17. E = -457.715321 Ha
C     3.14745   0.34303  -0.30277
N     1.82175  -0.17828  -0.01379
C     1.68873  -1.47336   0.50239
C     0.49604  -2.02545   0.77554
C    -0.81369  -1.30986   0.55417
C    -0.57050   0.08289  -0.00442
C    -1.68958   0.98911  -0.30636
N    -2.93068   0.51089  -0.03684
O    -1.54248   2.13280  -0.78413
C     0.68977   0.54245  -0.24708
H     3.77362   0.35256   0.60395
H     3.65607  -0.26695  -1.06728
H     3.05959   1.37042  -0.67717
H     2.63024  -2.00044   0.66711
H     0.47333  -3.04079   1.17793
H    -1.46037  -1.90140  -0.12602
H    -1.38555  -1.26207   1.50368
H    -3.73102   1.10510  -0.22298
H    -3.08905  -0.40365   0.36629
H     0.83629   1.54526  -0.65148
