36
Generated by autodE on: 2022-06-17. E = -725.698615 Ha. Imaginary frequency = -383.0 cm-1
C    -3.60656   0.29297   0.89194
C    -2.56595   0.32822  -0.18774
C    -0.91189   1.20607   0.96118
C    -0.41131   0.07244   1.60899
C     1.03399  -0.34452   1.46380
C     1.63548   0.20296   0.18821
C     2.85275  -0.34175  -0.41215
N     3.45043  -1.37101   0.24719
O     3.35016   0.08821  -1.47736
C     1.05841   1.28672  -0.41660
N    -0.08780   1.87331  -0.00086
C    -0.68120   2.93604  -0.79217
N    -1.49903  -1.54867   0.49984
C    -0.63465  -2.65622   0.15958
N    -1.89164  -0.79714  -0.53023
C    -1.18317  -0.82308  -1.81497
H    -3.99986   1.30699   1.05721
H    -4.45583  -0.34980   0.59281
H    -3.22018  -0.08820   1.84545
H    -2.77811   0.98216  -1.03495
H    -1.60395   1.87606   1.47420
H    -0.89354  -0.20342   2.54679
H     1.12864  -1.44181   1.50920
H     1.60558   0.01934   2.34549
H     3.06508  -1.77093   1.09284
H     4.26601  -1.80505  -0.17006
H     1.52377   1.72476  -1.30159
H    -1.32760   2.54505  -1.59736
H     0.11002   3.54813  -1.24550
H    -1.29321   3.58252  -0.14632
H    -1.13272  -3.37411  -0.51838
H    -0.40359  -3.19866   1.08748
H     0.32810  -2.37871  -0.31062
H    -1.33409  -1.79332  -2.30833
H    -0.10497  -0.66532  -1.67057
H    -1.58550  -0.03461  -2.46040
