22
Generated by autodE on: 2022-07-27. E = -537.719824 Ha
C    -4.35195   1.33355   1.05166
C    -2.96351   1.07087   0.50479
O    -2.59122   1.65502  -0.55099
C    -2.16736   0.17028   1.22787
O    -0.90294  -0.17441   0.86058
C    -0.19377   0.22405  -0.13815
C     1.12697  -0.30642  -0.31324
C     1.68905  -1.26076   0.56700
C     2.97467  -1.73910   0.34200
C     3.71922  -1.28019  -0.75520
C     3.17126  -0.33604  -1.63146
C     1.88426   0.15021  -1.41564
H    -4.46280   2.41153   1.25448
H    -4.56947   0.77185   1.97103
H    -5.09861   1.07038   0.28441
H    -2.46852  -0.34924   2.13357
H    -0.63350   0.95589  -0.81746
H     1.10663  -1.61578   1.41878
H     3.40636  -2.47596   1.02295
H     4.72875  -1.66112  -0.92530
H     3.75159   0.02023  -2.48524
H     1.44784   0.88696  -2.09401
