34
Generated by autodE on: 2022-06-17. E = -695.021541 Ha. Imaginary frequency = -312.7 cm-1
C    -3.92152   1.71680   0.96332
C    -2.49281   1.60306   0.47269
O    -2.15967   2.16652  -0.59638
C    -1.63148   0.80662   1.27402
O    -0.31166   0.63624   1.03947
C     0.19856   0.58019  -0.17389
C     1.60287   0.25540  -0.29234
C     2.36404  -0.21015   0.79984
C     3.69952  -0.56437   0.62087
C     4.29344  -0.47022  -0.64440
C     3.54335  -0.01207  -1.73447
C     2.20910   0.35127  -1.56163
C    -0.95389  -1.33982  -0.82505
C     0.01285  -2.40447  -0.37873
C    -2.17811  -1.15500  -0.21457
C    -2.67161  -2.00088   0.92444
H    -4.20460   2.78050   1.01053
H    -4.58964   1.23529   0.22996
H    -4.08121   1.25373   1.94673
H    -1.89437   0.52752   2.29231
H    -0.31134   1.13200  -0.95869
H     1.89981  -0.28785   1.78415
H     4.28413  -0.92020   1.47248
H     5.33991  -0.75285  -0.78001
H     4.00374   0.06400  -2.72219
H     1.61830   0.70728  -2.40919
H    -0.83859  -0.96111  -1.84367
H    -0.40799  -3.41280  -0.54362
H     0.24317  -2.32747   0.69637
H     0.96158  -2.34655  -0.92977
H    -2.92841  -0.57646  -0.75910
H    -2.99606  -2.99118   0.55048
H    -1.88731  -2.18686   1.67335
H    -3.53257  -1.54140   1.43058
