21
Generated by autodE on: 2022-06-19. E = -590.877279 Ha
C     0.24867   2.92228  -0.46873
C    -0.48513   1.73223  -1.04523
O    -1.17760   1.83898  -2.05835
C    -0.32665   0.45504  -0.35298
O     0.46471   0.55340   0.73918
C     1.14976  -0.33985   1.37066
C     1.80211   0.05430   2.63858
C     1.32642  -1.63821   0.82156
N     1.57044  -2.68514   0.37109
C    -1.12084  -0.73981  -0.64260
C    -1.58128  -1.61215   0.50908
O    -1.54815  -0.95440  -1.77673
H    -0.02628   3.81579  -1.04344
H     1.33778   2.76682  -0.52752
H    -0.00121   3.06790   0.59355
H     1.83162   1.15007   2.71028
H     1.22246  -0.34063   3.49274
H     2.81554  -0.36949   2.70033
H    -1.30259  -1.24838   1.50785
H    -1.20243  -2.63785   0.38309
H    -2.67959  -1.65241   0.44180
