21
Generated by autodE on: 2022-07-27. E = -590.877260 Ha
C     0.00477   0.89591  -2.13631
C     0.50603   1.19758  -0.73703
O     1.30281   2.11968  -0.56278
C    -0.11032   0.51423   0.40024
O    -0.70068  -0.69795   0.28823
C    -0.41398  -1.71615  -0.45083
C    -1.35167  -2.86031  -0.45080
C     0.80164  -1.75931  -1.18548
N     1.82220  -1.87960  -1.73533
C    -0.38902   1.15233   1.68520
C    -1.28149   0.40048   2.64725
O     0.08470   2.25039   1.97967
H    -0.28076   1.86438  -2.57487
H    -0.85933   0.21853  -2.18245
H     0.81861   0.48046  -2.75015
H    -2.03968  -2.77085   0.40071
H    -0.80049  -3.81186  -0.41020
H    -1.94154  -2.85657  -1.38531
H    -1.47798   1.04161   3.51596
H    -0.79128  -0.52857   2.97955
H    -2.23092   0.11398   2.16937
