20
Generated by autodE on: 2022-06-19. E = -457.715337 Ha
C     3.06867  -0.82166   0.00054
N     1.82407  -0.08393  -0.14036
C     1.86207   1.30165  -0.34127
C     0.75446   2.05916  -0.37997
C    -0.63548   1.49709  -0.20970
C    -0.57559  -0.00259   0.03075
C    -1.79983  -0.79196   0.24157
N    -2.96666  -0.10055   0.20717
O    -1.79928  -2.02351   0.44323
C     0.61086  -0.67281   0.05487
H     3.74259  -0.60381  -0.84209
H     3.59056  -0.56169   0.93737
H     2.85529  -1.89799   0.00608
H     2.86250   1.71946  -0.46813
H     0.86500   3.13276  -0.54895
H    -1.25218   1.73086  -1.10199
H    -1.15424   2.01150   0.62495
H    -3.83501  -0.60576   0.34489
H    -3.00733   0.89635   0.03797
H     0.62493  -1.74912   0.23402
