41
Generated by autodE on: 2022-06-19. E = -1048.604931 Ha. Imaginary frequency = -227.0 cm-1
C    -1.46543   1.53228  -2.14944
C    -0.87217   1.58173  -0.75624
O     0.03389   2.37401  -0.50926
C    -1.52601   0.80599   0.31814
C    -1.94538   1.49944   1.54952
C    -3.13839   0.93620   2.28344
O    -1.32975   2.47467   1.97528
O    -2.32019  -0.25459   0.03346
C    -1.95066  -1.35277  -0.61573
C    -2.89781  -2.49898  -0.51038
C    -0.98041  -1.32030  -1.63771
N    -0.12094  -1.38892  -2.42778
C     0.11439  -1.76899   0.91426
C     0.10334  -0.52114   1.52077
C     1.30642   0.37674   1.45818
C     2.17095   0.02053   0.26743
C     3.18818   0.94308  -0.27214
N     3.33965   2.12060   0.38054
O     3.89593   0.66527  -1.25889
C     2.07236  -1.20667  -0.30480
N     1.14768  -2.14660   0.08293
C     1.17888  -3.50554  -0.44045
H    -1.75249   2.56581  -2.40029
H    -2.34631   0.88601  -2.24597
H    -0.69932   1.21273  -2.87094
H    -3.34079   1.56329   3.16091
H    -4.02149   0.90888   1.62675
H    -2.94299  -0.09879   2.60432
H    -3.21682  -2.62049   0.53553
H    -2.41635  -3.42306  -0.85648
H    -3.79701  -2.32579  -1.12807
H    -0.56014  -2.56245   1.23055
H    -0.58106  -0.40067   2.35791
H     0.97680   1.42523   1.42004
H     1.87808   0.27929   2.40509
H     2.72184   2.41079   1.12784
H     3.98783   2.80174   0.00005
H     2.73958  -1.50271  -1.11425
H     1.87132  -3.55409  -1.28916
H     1.51309  -4.21560   0.33370
H     0.17817  -3.80644  -0.78129
