49
Generated by autodE on: 2022-06-20. E = -1003.931567 Ha
C    -0.50683  -2.73217   1.91449
O    -1.02248  -1.86477   0.89173
C    -0.77773  -2.20877  -0.36819
O    -0.19049  -3.22641  -0.68493
C    -1.34565  -1.23409  -1.40724
C    -2.43277  -1.97867  -2.18538
C    -0.22960  -0.67730  -2.31701
C     0.13430   0.68130  -1.69732
C     0.68293   1.67049  -2.73319
C     1.10393   0.59567  -0.54133
C     1.80365  -0.47979  -0.13332
C     2.71402  -0.46701   1.00067
C     3.39142  -1.52691   1.50369
C     4.30368  -1.36768   2.68777
C     3.30582  -2.92573   0.95779
C    -1.29091   1.10962  -1.20995
C    -1.33667   2.15797  -0.13055
C    -1.31946   1.80609   1.22714
C    -1.29566   2.79555   2.21324
C    -1.28353   4.14809   1.85544
C    -1.30480   4.50549   0.50364
C    -1.33764   3.51509  -0.48241
O    -1.91536  -0.09451  -0.76260
H    -0.87917  -3.75657   1.77494
H     0.59156  -2.73096   1.89253
H    -0.86556  -2.32125   2.86488
H    -2.00565  -2.84893  -2.70361
H    -3.22492  -2.32514  -1.50429
H    -2.87418  -1.29944  -2.92908
H    -0.64633  -0.51241  -3.32070
H     0.61638  -1.36719  -2.41889
H     1.62803   1.29553  -3.15458
H     0.88415   2.65019  -2.27291
H    -0.03357   1.81700  -3.55690
H     1.25045   1.53797  -0.00167
H     1.69433  -1.42697  -0.66365
H     2.84795   0.50375   1.49291
H     3.97228  -2.00648   3.52607
H     5.32875  -1.69696   2.43970
H     4.34899  -0.32691   3.04092
H     2.56636  -3.04499   0.15611
H     3.04674  -3.63227   1.76550
H     4.28978  -3.24888   0.57329
H    -1.83061   1.49110  -2.09585
H    -1.32191   0.75169   1.50445
H    -1.28429   2.50897   3.26780
H    -1.26335   4.92086   2.62772
H    -1.30402   5.55943   0.21513
H    -1.36714   3.79628  -1.53810
