23
Generated by autodE on: 2022-06-20. E = -351.521382 Ha
C     3.55857  -0.97049   0.83247
C     2.55287  -0.19998   0.36264
C     2.82169   1.14910  -0.25378
C     1.17211  -0.67192   0.44585
C     0.07813   0.00157   0.00951
C    -1.27147  -0.51408   0.11647
C    -2.41328   0.09236  -0.29603
C    -2.46827   1.44238  -0.95320
C    -3.74713  -0.57560  -0.11513
H     4.60054  -0.64228   0.78277
H     3.36009  -1.94964   1.27924
H     3.89603   1.38108  -0.25127
H     2.46115   1.18898  -1.29514
H     2.29317   1.94811   0.29231
H     1.03019  -1.65824   0.90386
H     0.21153   0.98512  -0.44902
H    -1.36473  -1.50237   0.58283
H    -2.93594   1.36238  -1.95052
H    -1.48555   1.91608  -1.07388
H    -3.10994   2.12551  -0.36905
H    -4.25269  -0.71050  -1.08832
H    -3.65770  -1.55890   0.36957
H    -4.42097   0.05407   0.49339
