26
Generated by autodE on: 2022-06-20. E = -652.317266 Ha
C     3.41573   1.52289  -1.57128
O     2.38580   0.84535  -0.85294
C     2.79937  -0.01466   0.12075
O     3.99589  -0.19337   0.36601
C     1.72906  -0.66921   0.80760
C     1.89736  -1.64894   1.90087
O     0.49914  -0.34331   0.39630
C    -0.64040  -0.77803   0.83195
C    -1.84140  -0.27503   0.23284
C    -1.81585   0.67759  -0.81482
C    -3.00581   1.14100  -1.36556
C    -4.23966   0.67134  -0.89148
C    -4.27478  -0.27094   0.14371
C    -3.08990  -0.74295   0.70358
H     4.02818   2.14292  -0.89858
H     2.90680   2.16194  -2.30360
H     4.07223   0.80957  -2.09310
H     2.96478  -1.79404   2.10553
H     1.44912  -2.62832   1.64296
H     1.40001  -1.31113   2.83099
H    -0.65793  -1.51111   1.64159
H    -0.85468   1.04191  -1.18186
H    -2.97681   1.87610  -2.17335
H    -5.17009   1.04020  -1.32880
H    -5.23373  -0.63902   0.51554
H    -3.11525  -1.47792   1.51182
