49
Generated by autodE on: 2022-06-20. E = -1003.849721 Ha. Imaginary frequency = -277.0 cm-1
C    -2.00084   4.49567  -0.33717
O    -1.46250   3.25251  -0.79442
C    -2.16710   2.60974  -1.75297
O    -3.21199   3.05816  -2.21522
C    -1.61706   1.31141  -2.10315
C    -2.03456   0.61312  -3.35385
C    -2.71886   0.03825  -0.50749
C    -1.84108  -0.95763  -0.10616
C    -1.86215  -2.32149  -0.75449
C    -1.03113  -0.74816   1.07496
C    -0.18359  -1.65257   1.63916
C     0.65718  -1.34982   2.77463
C     1.62268  -2.13629   3.31592
C     2.45871  -1.65061   4.46642
C     1.96130  -3.51596   2.82619
C     0.21102  -0.06976  -1.65681
C     1.39343  -0.27456  -0.88970
C     1.90423   0.71646  -0.01505
C     3.00159   0.44021   0.79113
C     3.60745  -0.82567   0.76161
C     3.10731  -1.81383  -0.09341
C     2.01154  -1.54615  -0.91194
O    -0.38626   1.09718  -1.60625
H    -1.30873   4.86229   0.43048
H    -3.00163   4.35279   0.09727
H    -2.06667   5.22270  -1.16052
H    -1.30358   0.80683  -4.16181
H    -3.01322   0.99581  -3.66814
H    -2.11512  -0.47632  -3.23025
H    -3.51539  -0.17713  -1.22180
H    -2.86917   0.90345   0.14163
H    -2.33820  -3.06055  -0.08524
H    -0.85099  -2.70117  -0.96845
H    -2.42908  -2.30570  -1.69603
H    -1.08836   0.25232   1.52104
H    -0.10385  -2.64763   1.19474
H     0.52117  -0.35172   3.20895
H     2.38421  -2.33596   5.33038
H     3.52813  -1.62470   4.18861
H     2.16434  -0.64325   4.79652
H     3.03271  -3.57809   2.56759
H     1.79472  -4.26132   3.62491
H     1.38262  -3.82398   1.94603
H    -0.14543  -0.81179  -2.36980
H     1.41896   1.69320   0.02403
H     3.38619   1.21083   1.46347
H     4.46243  -1.03938   1.40669
H     3.57012  -2.80286  -0.11517
H     1.61791  -2.31932  -1.57583
