23
Generated by autodE on: 2022-06-27. E = -572.032424 Ha
C    -4.98685   0.56138   0.56794
N    -3.99585  -0.17995   1.31826
C    -2.66164  -0.24375   1.04307
O    -1.89337  -0.92563   1.76148
C    -2.19227   0.50529  -0.10159
N    -0.89341   0.44175  -0.36363
C     0.26322   0.30370  -0.48645
C     1.65689   0.12792  -0.61730
C     2.33549  -0.68700   0.31879
C     3.71058  -0.86754   0.19734
C     4.42142  -0.25062  -0.83933
C     3.74680   0.55583  -1.76376
C     2.37159   0.75222  -1.66443
H    -5.96719   0.41337   1.03846
H    -5.05893   0.21993  -0.47857
H    -4.77694   1.64424   0.55804
H    -4.29351  -0.72042   2.12327
H    -2.80838   1.11263  -0.76063
H     1.77307  -1.16337   1.12348
H     4.23304  -1.49719   0.92093
H     5.49982  -0.39832  -0.92674
H     4.29809   1.03872  -2.57361
H     1.84247   1.37948  -2.38330
