49
Generated by autodE on: 2022-06-27. E = -1261.505826 Ha. Imaginary frequency = -309.2 cm-1
C    -3.57593   3.53244  -0.61945
N    -2.35272   3.15158   0.05838
C    -1.36172   2.49653  -0.58284
O    -1.32274   2.32800  -1.80848
C    -0.30728   1.96983   0.32048
N     0.74289   1.37471  -0.21383
C     1.34124   0.31344  -0.22829
C     2.55456  -0.21319  -0.80000
C     2.97680   0.26210  -2.06048
C     4.12753  -0.26167  -2.64269
C     4.86806  -1.24572  -1.97520
C     4.44996  -1.71659  -0.72669
C     3.28745  -1.21731  -0.13999
C     0.04247  -0.85272   1.25330
O     0.89968  -1.15968   2.26925
C     1.58798  -0.10254   2.93978
C    -0.00996  -1.86053   0.17659
O     0.72106  -2.85049   0.18303
C    -0.96497  -1.62347  -0.95131
C    -0.66768  -2.42734  -2.17955
C    -2.02322  -0.78722  -0.78532
C    -3.10266  -0.54107  -1.79440
C    -2.20190  -0.07129   0.51533
O    -3.28457   0.44621   0.80956
C    -1.05652   0.01676   1.42849
O    -1.28657   0.61512   2.64704
C    -1.87032  -0.25379   3.62462
H    -4.25899   2.67480  -0.73735
H    -3.33941   3.92775  -1.61576
H    -4.08593   4.31227  -0.03894
H    -2.38635   3.05835   1.07009
H    -0.16803   2.43422   1.30148
H     2.39075   1.03024  -2.56796
H     4.45384   0.10268  -3.61915
H     5.77367  -1.64888  -2.43397
H     5.02800  -2.48506  -0.20941
H     2.94146  -1.59572   0.82040
H     2.20125   0.47190   2.22589
H     0.89691   0.57690   3.45543
H     2.24953  -0.58514   3.67057
H     0.36729  -2.23414  -2.50728
H    -1.34396  -2.19807  -3.01006
H    -0.72833  -3.50550  -1.96091
H    -3.05422   0.50217  -2.14707
H    -4.09090  -0.67258  -1.32891
H    -3.03123  -1.20506  -2.66277
H    -1.21422  -1.11425   3.83049
H    -2.85577  -0.61405   3.28957
H    -1.99297   0.33881   4.54112
