40
Generated by autodE on: 2022-05-29. E = -1121.959610 Ha
C     1.98916   3.13375  -0.09081
N     1.88691   1.78206   0.42448
C     1.54928   0.77007  -0.40563
O     1.58821   0.82719  -1.63594
N     1.18932  -0.43132   0.23957
C     0.29554  -1.32148  -0.45040
C     0.70952  -2.03293  -1.70061
F     0.18356  -1.48042  -2.81358
F     2.04113  -2.05971  -1.85559
F     0.28871  -3.31793  -1.69047
C    -0.87457  -1.41627   0.19610
C    -2.08204  -2.22599  -0.11346
C    -0.79244  -0.45759   1.39560
C    -1.50042  -1.00236   2.63298
C    -1.32301   0.93784   1.01052
C    -1.32807   1.95411   1.98060
C    -1.72183   3.25238   1.65607
C    -2.12258   3.56121   0.35049
C    -2.12002   2.55985  -0.62122
C    -1.72029   1.25824  -0.29382
N     0.69250  -0.31007   1.57632
C     1.34162  -1.30974   2.42265
H     2.41349   3.78319   0.68575
H     1.00655   3.53804  -0.39040
H     2.65237   3.15805  -0.96602
H     1.55588   1.65191   1.37856
H    -2.23288  -3.00660   0.65073
H    -2.97620  -1.58233  -0.08726
H    -2.02499  -2.70831  -1.09695
H    -2.58496  -0.99781   2.45643
H    -1.29732  -0.38228   3.51643
H    -1.19466  -2.03427   2.85124
H    -1.00116   1.73491   2.99863
H    -1.71200   4.02915   2.42457
H    -2.42827   4.57830   0.09420
H    -2.42184   2.78791  -1.64624
H    -1.69888   0.49934  -1.07657
H     2.42438  -1.12827   2.39154
H     1.14597  -2.34993   2.10163
H     1.00584  -1.18735   3.46011
