30
Generated by autodE on: 2022-05-29. E = -667.976938 Ha
C     3.49296   1.14721  -1.02315
N     2.43396   0.19677  -1.28597
C     1.66932  -0.29600  -0.25025
O     1.63416   0.29704   0.85046
N     1.02616  -1.44855  -0.58317
N     0.09816  -1.86661   0.32648
C     0.29274  -3.25782   0.75592
C    -0.87212  -1.13168   0.81764
C    -1.72313  -1.66787   1.92793
C    -1.18631   0.19560   0.24796
C    -1.45137   1.28302   1.09687
C    -1.79363   2.52826   0.56617
C    -1.89377   2.69805  -0.81744
C    -1.64433   1.61528  -1.66904
C    -1.28249   0.37559  -1.14407
H     3.10534   1.98825  -0.43175
H     4.34598   0.71243  -0.46789
H     3.87178   1.54272  -1.97577
H     2.57718  -0.45016  -2.05447
H    -0.66174  -3.75340   0.96313
H     0.92468  -3.27372   1.65691
H     0.81448  -3.77131  -0.05793
H    -1.12075  -2.12002   2.72927
H    -2.34101  -0.86967   2.35440
H    -2.40694  -2.44380   1.54225
H    -1.37057   1.15791   2.17825
H    -1.98434   3.36830   1.23787
H    -2.16717   3.67067  -1.23310
H    -1.73103   1.73838  -2.75109
H    -1.07333  -0.46000  -1.81203
