40
Generated by autodE on: 2022-05-29. E = -1121.855430 Ha. Imaginary frequency = -283.8 cm-1
C     1.77242   3.24089   0.25000
N     1.77546   1.87296   0.73327
C     1.62577   0.84067  -0.16174
O     1.84854   1.01204  -1.37162
N     1.34136  -0.40636   0.33640
C    -0.07734  -1.71608  -0.73550
C     0.64783  -2.05915  -1.96047
F     0.44803  -1.14910  -2.94100
F     1.97624  -2.18679  -1.81232
F     0.20834  -3.24338  -2.45581
C    -1.11221  -1.81514  -0.05980
C    -2.45834  -2.22585   0.34150
C    -0.56414  -0.23677   1.68793
C    -1.27241  -0.76203   2.90492
C    -1.14508   1.00350   1.06646
C    -1.54205   2.00956   1.97127
C    -2.06191   3.22314   1.51918
C    -2.21689   3.45407   0.15019
C    -1.83612   2.46181  -0.75595
C    -1.30253   1.25158  -0.30752
N     0.73464  -0.54482   1.52774
C     1.34412  -1.58684   2.36322
H     1.93060   3.91756   1.10008
H     0.82275   3.51298  -0.24256
H     2.58629   3.39848  -0.47180
H     1.39412   1.73266   1.66179
H    -2.44091  -2.77225   1.29662
H    -3.10641  -1.34574   0.48089
H    -2.91527  -2.87766  -0.42105
H    -2.34814  -0.57120   2.81666
H    -0.91497  -0.25963   3.81974
H    -1.11648  -1.84028   3.03306
H    -1.42508   1.85175   3.04419
H    -2.34926   3.98841   2.24383
H    -2.62986   4.39997  -0.20746
H    -1.95086   2.62637  -1.82973
H    -1.00887   0.50387  -1.03680
H     2.41805  -1.58103   2.15351
H     0.92540  -2.57217   2.10335
H     1.17474  -1.38100   3.42642
