44
Generated by autodE on: 2022-06-12. E = -959.550016 Ha
C     1.32871   4.24114   1.82715
N     1.77243   2.93930   1.37319
C     0.94283   1.97936   0.94254
O    -0.28356   2.10588   0.87425
C     1.63764   0.67432   0.44022
C     2.83868   0.29283   1.32683
O     3.79930   1.06937   1.44073
N     2.78125  -0.90555   1.91997
C     3.83575  -1.44268   2.75663
C     0.63194  -0.37372   0.29138
C    -0.19833  -1.04021  -0.27194
C    -1.05326  -1.55931  -1.33518
C    -2.51521  -1.71198  -0.95488
C    -3.13992  -0.77239  -0.12031
C    -4.49960  -0.88384   0.17988
C    -5.25399  -1.93523  -0.35329
C    -4.63914  -2.87269  -1.18858
C    -3.27734  -2.75996  -1.48709
C    -0.88589  -0.55924  -2.52546
C     0.55509  -0.11583  -2.84990
C     1.12008   1.13179  -2.11117
C     2.18463   0.92363  -1.01676
H     1.46377   4.35324   2.91529
H     1.89862   5.03736   1.32497
H     0.26486   4.36238   1.59142
H     2.76162   2.69095   1.42789
H     1.95859  -1.47782   1.74841
H     4.63293  -0.69596   2.84753
H     3.45166  -1.67993   3.76043
H     4.25481  -2.36144   2.31783
H    -0.66973  -2.54181  -1.65620
H    -2.55149   0.05006   0.29532
H    -4.97275  -0.14746   0.83424
H    -6.31700  -2.02386  -0.11650
H    -5.22025  -3.69787  -1.60768
H    -2.79747  -3.49518  -2.13871
H    -1.33514  -1.04083  -3.40859
H    -1.49858   0.33065  -2.30665
H     1.24462  -0.96930  -2.73048
H     0.56567   0.11877  -3.92590
H     1.60215   1.76611  -2.87118
H     0.28898   1.73584  -1.71164
H     2.81896   0.06084  -1.27578
H     2.84500   1.80066  -0.96572
