23
Generated by autodE on: 2022-06-12. E = -625.465459 Ha
C    -0.16480   3.71223   0.06313
N     0.47116   2.41792  -0.02993
N    -0.33309   1.45016   0.05724
C    -0.14082   0.10342   0.01793
C    -1.43183  -0.60738   0.16394
O    -2.48578   0.05309   0.30337
N    -1.42551  -1.94867   0.14137
C    -2.64502  -2.71655   0.27583
C     1.13760  -0.55694  -0.14303
O     1.27536  -1.78201  -0.18411
O     2.18589   0.27202  -0.24599
C     3.47231  -0.33595  -0.40928
H     0.26618   4.26505   0.91385
H     0.06852   4.29407  -0.84336
H    -1.26078   3.65732   0.18587
H    -1.35979   1.62499   0.18275
H    -0.52024  -2.40167   0.02226
H    -3.35942  -2.48622  -0.53124
H    -2.39719  -3.78410   0.22940
H    -3.14751  -2.51339   1.23544
H     3.50454  -0.94061  -1.32749
H     3.71481  -0.97423   0.45304
H     4.18758   0.49225  -0.47798
