67
Generated by autodE on: 2022-06-12. E = -1585.014746 Ha. Imaginary frequency = -287.0 cm-1
C    -3.41900  -6.05939   2.73156
N    -4.86336  -6.08762   2.62614
C    -5.63628  -6.34249   3.68459
O    -5.17102  -6.63259   4.79513
C    -7.17382  -6.35895   3.47567
C    -7.67636  -5.61085   2.21690
O    -7.04500  -5.63141   1.14695
N    -8.88756  -5.05171   2.33095
C    -9.55513  -4.33862   1.26119
C    -7.57829  -7.86743   3.23136
C    -7.39658  -8.78962   4.45088
C    -8.68836  -9.30207   5.10624
C    -9.78082  -8.28872   5.46049
C    -9.40571  -7.10469   6.39351
C    -8.74539  -7.55948   7.68865
C    -7.36099  -7.46883   7.89489
C    -6.78571  -7.92889   9.08330
C    -7.58575  -8.48899  10.08384
C    -8.96803  -8.58192   9.88811
C    -9.54091  -8.11783   8.70097
C    -8.58566  -6.10953   5.66717
C    -7.82433  -5.86041   4.70910
C    -7.29497  -3.56785   5.18163
C    -7.48823  -2.78543   3.91741
O    -8.59973  -2.27122   3.69027
N    -6.45007  -2.71697   3.07255
C    -6.53632  -2.16552   1.73744
C    -5.95393  -3.86983   5.71119
O    -4.92194  -3.71264   5.06438
O    -5.94154  -4.30506   6.96894
C    -4.66832  -4.66625   7.52074
N    -8.39434  -3.48804   5.97081
N    -8.68204  -4.38084   6.86994
C   -10.00442  -4.17073   7.43150
H    -3.09169  -5.30415   3.46381
H    -3.02032  -7.03544   3.05139
H    -2.99586  -5.80924   1.75078
H    -5.34820  -5.87252   1.75157
H    -9.29346  -5.01345   3.26241
H    -9.03872  -4.54131   0.31574
H    -9.54976  -3.25501   1.45135
H   -10.59939  -4.67459   1.17641
H    -8.62730  -7.86969   2.89999
H    -6.98144  -8.21696   2.37628
H    -6.81196  -9.67053   4.14140
H    -6.77881  -8.28134   5.20029
H    -9.15472 -10.04635   4.43711
H    -8.40478  -9.85480   6.01797
H   -10.60002  -8.83975   5.95092
H   -10.21161  -7.85579   4.54315
H   -10.36477  -6.64146   6.66950
H    -6.72935  -7.02421   7.12551
H    -5.70536  -7.84530   9.22656
H    -7.13635  -8.84697  11.01326
H    -9.60402  -9.01181  10.66602
H   -10.62263  -8.18540   8.55610
H    -5.58992  -3.16545   3.38782
H    -6.69016  -2.95954   0.98818
H    -5.60427  -1.63581   1.49410
H    -7.37122  -1.45676   1.67840
H    -4.87975  -5.04886   8.52607
H    -4.00653  -3.78976   7.57810
H    -4.19707  -5.44558   6.90738
H    -9.15690  -2.97347   5.49510
H   -10.77469  -3.96732   6.66306
H    -9.97500  -3.31559   8.12789
H   -10.29033  -5.05311   8.01541
