36
Generated by autodE on: 2022-06-02. E = -1251.793601 Ha
C    -2.58183   2.41958  -1.45953
C    -1.80915   1.23839  -1.96815
O    -1.36405   1.16688  -3.10792
C    -1.54612   0.11564  -1.04240
N    -1.95204   0.12380   0.18602
N    -1.57222  -1.02875   0.78845
C    -1.89373  -1.33253   2.09486
C    -2.66510  -0.30178   2.86400
O    -1.52041  -2.40650   2.55640
C    -0.80072  -1.91713  -0.08933
C     0.73306  -2.04874   0.22607
O     1.24153  -2.21316  -1.10086
C     0.78386  -0.96681  -1.62575
C     1.28782   0.01125  -0.56938
C     1.63501   1.44409  -0.84933
F     2.82243   1.79286  -0.33770
F     1.69467   1.66337  -2.17751
F     0.71436   2.29973  -0.36161
C     1.24391  -0.65787   0.60052
C     1.53699  -0.15534   1.97399
C     1.66640  -1.18275   3.05762
O     1.66843   1.04246   2.17650
C    -0.77227  -1.11959  -1.41614
H    -3.54736   2.10037  -1.03913
H    -2.73934   3.13661  -2.27500
H    -2.01671   2.90064  -0.64537
H    -2.06441   0.61545   2.96326
H    -2.89134  -0.70580   3.85788
H    -3.59477  -0.03285   2.34255
H    -1.26291  -2.90869  -0.14702
H     1.00814  -2.88406   0.87413
H     1.10451  -0.80630  -2.65777
H     1.92889  -0.69770   4.00608
H     0.71886  -1.73465   3.16523
H     2.43569  -1.92262   2.78129
H    -1.20059  -1.64784  -2.27659
