21
Generated by autodE on: 2022-06-02. E = -797.432679 Ha
C     2.81073  -1.77385  -0.19215
C     2.02193  -0.51178   0.00563
O     2.52058   0.60302  -0.07980
C     0.58313  -0.67836   0.31286
C    -0.41860   0.21228   0.20734
C    -0.40184   1.63775  -0.24370
F     0.20128   2.44728   0.64378
F     0.22318   1.79934  -1.42301
F    -1.65921   2.09717  -0.40354
C    -1.70850  -0.58402   0.51887
C    -1.92426  -1.55372  -0.66660
C    -0.93806  -2.44734  -0.55857
C    -0.13640  -2.00522   0.68658
O    -1.19138  -1.48298   1.50997
H     3.82933  -1.53761  -0.52501
H     2.30891  -2.42675  -0.92546
H     2.85018  -2.33416   0.75711
H    -2.56895  -0.00957   0.87454
H    -2.69727  -1.44543  -1.42600
H    -0.67546  -3.28441  -1.20391
H     0.46121  -2.76173   1.20356
