36
Generated by autodE on: 2022-06-02. E = -1251.663563 Ha. Imaginary frequency = -273.3 cm-1
C    -2.65459   2.20247  -1.68389
C    -1.99769   0.93282  -2.14756
O    -1.77795   0.65084  -3.30950
C    -1.59492   0.03473  -1.05126
N    -1.81383  -0.25034   0.09733
N    -1.62994  -1.10398   1.00846
C    -1.78054  -0.68291   2.33840
C    -2.14490   0.75384   2.59794
O    -1.58316  -1.49825   3.22652
C    -0.02092  -2.41234  -0.87078
C     1.38412  -2.17572  -0.28670
O     2.10042  -1.79847  -1.47915
C     1.20956  -0.73217  -1.84109
C     1.25042   0.09384  -0.53385
C     1.18281   1.58802  -0.47914
F     2.34496   2.13009  -0.08093
F     0.90952   2.09151  -1.70251
F     0.22565   2.05868   0.34474
C     1.35609  -0.81664   0.45395
C     1.43027  -0.62577   1.92354
C     1.55111  -1.86512   2.76095
O     1.41498   0.49774   2.40922
C    -0.14968  -1.48738  -1.85660
H    -3.54368   1.96509  -1.07903
H    -2.93141   2.80482  -2.55840
H    -1.95515   2.75944  -1.04079
H    -1.33384   1.40423   2.23541
H    -2.28621   0.90446   3.67479
H    -3.06015   1.02953   2.05243
H    -0.69398  -3.21350  -0.57699
H     1.85332  -3.01440   0.23394
H     1.50703  -0.22208  -2.76103
H     1.50847  -1.60404   3.82539
H     0.74820  -2.57548   2.51321
H     2.50960  -2.36289   2.53609
H    -0.84754  -1.46005  -2.69382
