39
Generated by autodE on: 2022-06-20. E = -1138.721436 Ha
C    -2.64903   3.54033  -1.58716
N    -2.36121   2.15323  -1.27376
C    -1.54815   1.83178  -0.25845
O    -1.00793   2.64061   0.49982
N    -1.29126   0.46376  -0.08563
N    -1.87057  -0.47391  -0.85022
C    -1.46150  -1.63837  -0.46313
C    -1.89506  -2.83663  -1.08865
N    -2.23816  -3.84117  -1.56518
C    -0.37848  -1.56457   0.61924
C    -0.44612  -2.65008   1.69010
C     0.92935  -1.72133  -0.19291
O     1.17055  -2.79669  -0.71950
C     1.83450  -0.57222  -0.38312
O     2.79918  -0.81491  -1.28519
C     3.36625   0.25747  -2.05003
C     1.73250   0.54743   0.40729
O     2.70540   1.46508   0.38713
C     2.43518   2.82624   0.76508
C     0.67575   0.60435   1.44387
O     0.86882   1.15311   2.51310
C    -0.63923  -0.10792   1.12454
C    -1.60070  -0.02347   2.30450
H    -3.36205   3.56893  -2.41959
H    -3.09252   4.05928  -0.72372
H    -1.73765   4.08374  -1.88340
H    -2.75012   1.40866  -1.84307
H     0.30466  -2.45856   2.47005
H    -0.22885  -3.62357   1.23031
H    -1.44115  -2.69406   2.14941
H     3.79306  -0.21197  -2.94619
H     2.58806   0.97679  -2.34648
H     4.15631   0.77428  -1.49041
H     3.20171   3.43003   0.26296
H     2.51696   2.94760   1.85298
H     1.43619   3.13461   0.42781
H    -1.15261  -0.46514   3.20308
H    -1.82625   1.03023   2.51196
H    -2.53516  -0.55263   2.07275
