13
Generated by autodE on: 2022-06-20. E = -449.174368 Ha
C    -3.81106  -0.00839  -0.03612
N    -2.53192   0.33755  -0.61876
C    -1.35513   0.01808  -0.05645
O    -1.19217  -0.59423   0.99448
N    -0.26795   0.49231  -0.85656
N     0.86099   0.24992  -0.42029
C     1.96048   0.04937  -0.05744
C     3.24163  -0.16482   0.33821
N     4.34537  -0.34953   0.67951
H    -4.40672  -0.61925  -0.73213
H    -4.38912   0.89491   0.21515
H    -3.64069  -0.58368   0.88134
H    -2.50911   0.85292  -1.49337
