26
Generated by autodE on: 2022-06-20. E = -689.460824 Ha
C     2.91936  -1.44434   0.02615
O     2.05303  -0.73702   0.91994
C     0.84846  -0.34737   0.40900
C     0.53313   0.95585   0.16312
O     1.28892   2.04553   0.29878
C     2.68188   1.98362   0.62294
C    -0.84979   1.31491  -0.31185
O    -1.11681   2.49193  -0.51235
C    -1.84748   0.23870  -0.54147
C    -3.20362   0.64039  -1.03367
C    -1.51869  -1.05594  -0.30722
C    -2.49006  -2.17258  -0.52555
C    -0.16276  -1.40844   0.21277
O     0.11842  -2.57236   0.49314
H     3.83622  -1.66458   0.58882
H     3.16886  -0.82010  -0.84797
H     2.46391  -2.38611  -0.31293
H     3.03121   3.02349   0.59488
H     2.83760   1.56443   1.62511
H     3.23177   1.39158  -0.12271
H    -3.98584   0.31757  -0.32694
H    -3.42897   0.15248  -1.99628
H    -3.27398   1.72646  -1.16461
H    -2.84817  -2.17911  -1.56807
H    -2.03591  -3.14408  -0.29903
H    -3.38145  -2.04201   0.11072
