39
Generated by autodE on: 2022-06-20. E = -1138.636871 Ha. Imaginary frequency = -339.0 cm-1
C    -2.32634   3.96938  -0.54105
N    -2.26799   2.57454  -0.15034
C    -1.91860   1.62768  -1.03424
O    -1.74356   1.79684  -2.23553
N    -1.79701   0.35406  -0.39302
N    -1.40303  -0.61903  -1.05712
C    -0.76756  -1.65176  -0.94291
C    -0.58887  -2.90255  -1.49746
N    -0.35553  -3.97404  -1.89794
C    -0.09366  -1.54140   1.24613
C    -0.67764  -2.82530   1.77065
C     1.28323  -1.61183   0.67397
O     1.91468  -2.65988   0.65244
C     1.86193  -0.35716   0.10575
O     2.95855  -0.39369  -0.66472
C     3.16892  -1.47836  -1.58262
C     1.37726   0.84995   0.51772
O     2.03431   1.98502   0.16993
C     1.29093   2.97802  -0.55175
C     0.20480   0.93277   1.41271
O    -0.10973   2.00346   1.93248
C    -0.59284  -0.30614   1.65226
C    -1.75691  -0.20556   2.58454
H    -3.04707   4.11044  -1.35985
H    -2.64930   4.56280   0.32244
H    -1.34446   4.33781  -0.88053
H    -2.23113   2.33755   0.83784
H    -0.46333  -2.92546   2.84796
H    -1.76909  -2.84522   1.64778
H    -0.24416  -3.69358   1.25926
H     2.21517  -1.83244  -2.00157
H     3.78994  -1.06789  -2.38995
H     3.69342  -2.31049  -1.09645
H     0.79040   2.52918  -1.42375
H     2.02370   3.71954  -0.89579
H     0.55016   3.46700   0.09424
H    -2.58280  -0.85330   2.26192
H    -2.11502   0.82779   2.66231
H    -1.45509  -0.54058   3.59275
