45
Generated by autodE on: 2022-06-20. E = -1013.964045 Ha
C     4.89813   0.03925   1.72584
N     3.65750   0.21641   1.00367
C     2.48099  -0.26596   1.41419
O     2.30067  -0.94296   2.43037
C     1.28643   0.11713   0.50369
C     0.75044  -1.17481  -0.12975
O     0.87108  -1.42905  -1.31204
O     0.17298  -1.98485   0.74484
C    -0.35441  -3.22033   0.22968
C     0.22651   0.86325   1.35808
C    -0.42926   1.84184   0.37113
C    -1.09564   3.03838   1.05685
C    -1.40253   1.15895  -0.56898
C    -2.14752   0.07555  -0.27785
C    -3.08060  -0.53906  -1.20634
C    -3.83734  -1.64028  -0.97918
C    -4.75618  -2.17453  -2.04182
C    -3.84521  -2.41758   0.30737
C     0.86714   2.26542  -0.39286
C     0.63149   2.96230  -1.65372
N     0.42905   3.51998  -2.65104
N     1.66892   1.04421  -0.57467
H     4.77665  -0.77067   2.45609
H     5.70901  -0.22418   1.03135
H     5.18788   0.95621   2.26516
H     3.60975   0.79908   0.16852
H    -1.06938  -3.01850  -0.57874
H     0.46353  -3.85015  -0.14822
H    -0.85373  -3.70856   1.07312
H    -0.47188   0.17877   1.84887
H     0.73926   1.43612   2.14329
H    -1.49333   3.74297   0.30961
H    -1.93382   2.69754   1.68237
H    -0.37657   3.57686   1.69465
H    -1.52518   1.62671  -1.55331
H    -2.04742  -0.38745   0.70604
H    -3.16352  -0.05663  -2.18751
H    -4.72321  -1.57220  -2.96148
H    -4.49327  -3.21673  -2.29681
H    -5.79928  -2.20262  -1.67913
H    -4.86157  -2.42486   0.73936
H    -3.58546  -3.47312   0.11631
H    -3.15398  -2.02897   1.06561
H     1.41421   2.97237   0.25420
H     1.44706   0.59702  -1.46571
