23
Generated by autodE on: 2022-06-20. E = -351.521385 Ha
C     3.16378  -1.92092   0.77341
C     2.36265  -0.84269   0.62743
C     2.86952   0.55147   0.89458
C     0.97528  -1.01638   0.20193
C     0.07305  -0.01958   0.01971
C    -1.29327  -0.24716  -0.40461
C    -2.25216   0.69168  -0.60664
C    -2.04760   2.16786  -0.41659
C    -3.63195   0.29815  -1.05262
H     4.20545  -1.81980   1.09061
H     2.79294  -2.93205   0.57888
H     2.27987   1.04412   1.68553
H     2.78158   1.18516  -0.00359
H     3.92335   0.53895   1.20657
H     0.65614  -2.04975   0.02015
H     0.38368   1.01343   0.19809
H    -1.56723  -1.29496  -0.57760
H    -1.03800   2.43408  -0.07812
H    -2.77170   2.56231   0.31799
H    -2.24692   2.70559  -1.36052
H    -4.39063   0.63827  -0.32494
H    -3.73390  -0.78968  -1.17933
H    -3.88788   0.78703  -2.00992
