45
Generated by autodE on: 2022-06-20. E = -1013.896612 Ha. Imaginary frequency = -382.7 cm-1
C     4.30997  -0.28577   2.69916
N     3.10615  -0.67094   1.99085
C     2.67600   0.02767   0.92639
O     3.31016   1.00232   0.49236
C     1.37867  -0.38441   0.28769
C     0.76558  -1.73191   0.41917
O     0.05367  -2.22274  -0.44255
O     0.99059  -2.32144   1.59459
C     0.36757  -3.59782   1.82128
C     0.10401   0.86210   1.55189
C    -0.37780   1.90006   0.73025
C     0.09307   3.31778   0.97690
C    -1.61400   1.72369  -0.02982
C    -2.21316   0.54026  -0.32185
C    -3.39565   0.42475  -1.14904
C    -4.01808  -0.72077  -1.52682
C    -5.25265  -0.68149  -2.38297
C    -3.55700  -2.09978  -1.14469
C     1.05196   1.50976  -1.10804
C     0.41805   2.04191  -2.25391
N    -0.15550   2.51745  -3.15222
N     1.06577   0.16905  -0.92948
H     4.23193   0.74088   3.09195
H     4.46017  -0.97530   3.53873
H     5.19473  -0.32817   2.04423
H     2.55660  -1.46270   2.30896
H    -0.72593  -3.49322   1.79164
H     0.69416  -3.91400   2.81799
H     0.69362  -4.32155   1.06189
H    -0.55481   0.02913   1.80196
H     0.83408   1.11278   2.32391
H     0.03578   3.93410   0.06633
H    -0.53625   3.80622   1.74221
H     1.13098   3.33093   1.34081
H    -2.04390   2.63664  -0.45798
H    -1.78249  -0.38332   0.07160
H    -3.82051   1.37181  -1.50411
H    -5.09193  -1.22567  -3.33136
H    -5.56078   0.34731  -2.62141
H    -6.09560  -1.18965  -1.88027
H    -3.44569  -2.72719  -2.04658
H    -2.60124  -2.11371  -0.60632
H    -4.31632  -2.60083  -0.51735
H     1.82916   2.09720  -0.62984
H     0.36566  -0.37295  -1.44358
