20
Generated by autodE on: 2022-06-24. E = -457.715309 Ha
C     3.13265  -0.49879   0.21326
N     1.82268   0.12272   0.10909
C     1.71858   1.51921   0.12592
C     0.54008   2.15871   0.06181
C    -0.78366   1.44101  -0.03392
C    -0.57232  -0.06459  -0.03889
C    -1.70798  -0.99651  -0.12396
N    -2.94068  -0.43145  -0.17599
O    -1.58015  -2.23779  -0.15039
C     0.67591  -0.60815   0.03137
H     3.61823  -0.24664   1.17041
H     3.79126  -0.16824  -0.60590
H     3.02180  -1.58854   0.15425
H     2.66993   2.04981   0.19478
H     0.54031   3.25102   0.07822
H    -1.32851   1.76693  -0.94388
H    -1.44249   1.74649   0.80483
H    -3.75078  -1.03920  -0.22781
H    -3.08776   0.56908  -0.14147
H     0.79920  -1.69227   0.02604
