69
Generated by autodE on: 2022-06-15. E = -2273.356883 Ha
C   -22.91743  18.35888  31.68330
N   -23.23913  18.41880  30.26948
C   -22.56340  17.68026  29.38015
O   -21.68611  16.88442  29.71809
C   -22.94923  17.84633  27.88526
Cl  -24.44530  16.72811  27.70464
C   -23.50428  19.23401  27.54563
C   -23.72431  19.52808  26.05322
C   -22.79055  20.62228  25.54308
C   -21.32473  20.25253  25.30700
C   -20.50532  19.50506  26.41319
C   -20.63051  20.10724  27.82564
O   -20.52600  19.48095  28.85561
O   -20.77296  21.42847  27.77452
C   -20.80745  22.12147  29.03391
C   -18.98479  19.79763  26.16883
O   -18.17372  19.82574  27.07134
O   -18.68780  20.07810  24.91283
C   -17.31169  20.38085  24.61816
C   -20.80458  17.99250  26.41440
C   -21.82264  17.32043  27.00032
C   -21.72506  15.81917  26.65455
C   -22.85460  15.32584  25.72441
O   -23.26114  14.18615  25.67318
O   -23.21321  16.27823  24.86635
C   -24.20225  15.93578  23.88763
C   -21.63932  14.90940  27.90625
O   -22.56778  14.35185  28.43793
O   -20.37285  14.77994  28.30355
C   -20.13829  14.04052  29.50974
N   -20.51839  15.70414  25.84177
C   -19.93372  17.02905  25.58186
C   -19.99101  17.31234  24.07561
C   -18.45429  17.01993  26.06678
O   -17.51863  17.24454  25.29418
N   -18.27060  16.72823  27.36369
C   -16.95645  16.74842  27.97303
H   -23.57827  19.04593  32.22508
H   -21.87091  18.65464  31.85858
H   -23.05651  17.34115  32.07948
H   -23.94654  19.07347  29.95857
H   -24.45758  19.33468  28.08000
H   -22.86065  20.00060  27.99102
H   -23.61852  18.61216  25.45434
H   -24.76093  19.86777  25.91351
H   -23.16254  20.98823  24.57225
H   -22.84885  21.48018  26.23158
H   -21.25418  19.62932  24.40705
H   -20.79050  21.18250  25.07717
H   -20.94345  23.18073  28.78979
H   -21.64609  21.75637  29.64353
H   -19.86287  21.96837  29.57449
H   -17.27344  20.56044  23.53823
H   -16.67847  19.52791  24.89268
H   -16.99998  21.27821  25.17022
H   -25.13961  15.64619  24.38447
H   -23.84875  15.10979  23.25429
H   -24.35577  16.83868  23.28584
H   -19.05445  14.06614  29.66993
H   -20.48566  13.00404  29.39653
H   -20.66257  14.52097  30.34686
H   -19.85564  15.07201  26.27791
H   -19.56134  18.28130  23.80496
H   -21.03757  17.27081  23.74737
H   -19.42903  16.52787  23.55027
H   -19.07806  16.54336  27.95240
H   -16.24617  16.14084  27.39265
H   -17.02982  16.33910  28.98830
H   -16.56281  17.77674  28.02969
