39
Generated by autodE on: 2022-06-15. E = -1435.856472 Ha
C     4.06013   0.15712  -2.67833
N     2.70988   0.28994  -2.16861
C     1.62245  -0.07413  -2.86066
O     1.64291  -0.58464  -3.98106
C     0.27363   0.18775  -2.15930
Cl   -0.36902   1.73975  -2.96626
C     0.31389   0.41239  -0.72784
C    -0.03006   0.30706   0.42494
C    -0.86666  -0.06409   1.55953
C    -1.04552   1.10436   2.54656
O    -2.10752   1.59121   2.85392
O     0.13359   1.50055   3.01685
C     0.12675   2.57554   3.97274
C    -0.30077  -1.23456   2.38186
O    -0.74454  -1.52567   3.47209
O     0.66205  -1.89307   1.75957
C     1.20291  -3.04340   2.43490
C    -2.24175  -0.49750   0.95481
C    -2.17167  -1.47113  -0.23852
C    -2.06900  -0.87459  -1.67150
C    -0.72242  -0.96181  -2.41312
H     4.03901  -0.45763  -3.58586
H     4.70428  -0.32731  -1.93009
H     4.49078   1.14057  -2.92644
H     2.58016   0.71862  -1.25630
H     1.17646   2.75435   4.23061
H    -0.31794   3.47650   3.52736
H    -0.44320   2.28338   4.86607
H     1.96271  -3.45417   1.76107
H     1.65690  -2.74174   3.38915
H     0.40977  -3.78190   2.61678
H    -2.76654   0.42273   0.66030
H    -2.81922  -0.94596   1.77654
H    -3.10746  -2.04865  -0.20032
H    -1.36829  -2.20942  -0.07970
H    -2.78662  -1.42350  -2.29951
H    -2.41917   0.17084  -1.67292
H    -0.88428  -1.00508  -3.49895
H    -0.19933  -1.89155  -2.13243
