69
Generated by autodE on: 2022-06-15. E = -2273.279445 Ha. Imaginary frequency = -325.0 cm-1
C   -25.37577  15.52444  29.77448
N   -24.96102  16.34953  28.65837
C   -23.96915  17.23865  28.73472
O   -23.40025  17.58293  29.77554
C   -23.54961  17.98338  27.45174
Cl  -24.33366  17.25039  25.91618
C   -24.07451  19.43369  27.55946
C   -23.61583  20.37815  26.43826
C   -22.56660  21.41848  26.85173
C   -21.30159  20.93810  27.56817
C   -20.41109  19.88029  26.81798
C   -19.11147  19.77237  27.64360
O   -18.83817  18.79670  28.31357
O   -18.37968  20.87644  27.63731
C   -17.17527  20.86258  28.42025
C   -20.24813  20.36021  25.36739
O   -20.93013  19.93499  24.45792
O   -19.39462  21.36483  25.22938
C   -19.22705  21.88751  23.90242
C   -21.07867  18.54629  26.84218
C   -22.10019  17.93202  27.22234
C   -21.19757  15.68746  27.52191
C   -22.05152  14.77159  26.74394
O   -23.18028  14.42830  27.04583
O   -21.42413  14.30091  25.65257
C   -22.21613  13.52941  24.74378
C   -21.16772  15.60463  29.00084
O   -20.28637  16.14973  29.65406
O   -22.13311  14.87606  29.55408
C   -22.13772  14.80660  30.98687
N   -19.98489  16.13586  27.05232
C   -19.80220  16.95548  25.99122
C   -20.53084  16.79886  24.69096
C   -18.40255  17.50679  25.84376
O   -18.21303  18.57993  25.25503
N   -17.39881  16.77421  26.35151
C   -16.03429  17.26694  26.37140
H   -24.90821  14.52895  29.71754
H   -26.46803  15.40148  29.76377
H   -25.07891  16.00530  30.71373
H   -25.23673  16.05601  27.72594
H   -25.17159  19.36562  27.60138
H   -23.74588  19.80225  28.54283
H   -23.24756  19.79144  25.58592
H   -24.49162  20.92877  26.06218
H   -22.28034  21.99803  25.95831
H   -23.03990  22.14276  27.53632
H   -21.54650  20.49541  28.54508
H   -20.66827  21.81520  27.76005
H   -16.75248  21.86990  28.33546
H   -17.39997  20.62654  29.46954
H   -16.47304  20.11994  28.01462
H   -20.18334  22.26419  23.51308
H   -18.83910  21.10399  23.23582
H   -18.50217  22.70453  23.99181
H   -23.08426  14.11179  24.40121
H   -22.56601  12.60299  25.22195
H   -21.56160  13.29211  23.89695
H   -22.26361  15.81051  31.41382
H   -22.98898  14.17125  31.25419
H   -21.20097  14.36212  31.35196
H   -19.38492  16.38230  27.84825
H   -20.33715  17.68073  24.07249
H   -21.61204  16.68702  24.82271
H   -20.14361  15.90884  24.16885
H   -17.60048  15.88411  26.79408
H   -15.35936  16.43654  26.61080
H   -15.90948  18.05816  27.12912
H   -15.76166  17.68217  25.39100
