48
Generated by autodE on: 2022-10-22. E = -1442.425855 Ha
C    -3.19827  -1.24968  -4.18292
N    -2.63580  -1.31872  -2.84564
C    -1.53345  -0.63907  -2.53255
O    -0.93856   0.14911  -3.24714
N    -1.03701  -0.94349  -1.20180
N    -1.18348  -2.21038  -0.75669
N    -0.52266  -2.31703   0.34373
C     0.06808  -1.12367   0.65592
C    -0.26876  -0.20694  -0.33125
C     0.23079   1.21651  -0.51671
O     0.59751   1.64156   0.77963
C     1.33532   2.85191   0.94260
C    -0.93207   2.18759  -1.01167
F    -0.63415   2.79559  -2.16585
F    -2.11182   1.55782  -1.17709
F    -1.17211   3.15329  -0.11312
C     1.44126   1.19506  -1.47242
C     2.44970   0.06961  -1.18722
C     3.05426  -0.05583   0.23061
C     2.51462  -1.14916   1.16843
C     1.08565  -1.08793   1.76737
C     0.87607  -2.40523   2.61263
C    -0.41515  -2.59234   3.36425
O     1.76887  -3.22315   2.69281
C     0.81858   0.04219   2.79080
C     2.00042   0.61508   3.51629
O    -0.32427   0.34229   3.08481
H    -2.55250  -1.75479  -4.91923
H    -3.32160  -0.20171  -4.48993
H    -4.17987  -1.73748  -4.17527
H    -2.98671  -2.00403  -2.18250
H     1.06090   3.62260   0.21054
H     1.09392   3.22097   1.94863
H     2.41918   2.67661   0.87773
H     1.93181   2.17787  -1.42291
H     1.07134   1.07423  -2.49608
H     3.27734   0.23947  -1.89323
H     2.01098  -0.89741  -1.48392
H     4.11577  -0.31981   0.10019
H     3.07141   0.92009   0.73058
H     3.21680  -1.24871   2.00768
H     2.57027  -2.10820   0.63141
H    -1.25188  -2.02258   2.94957
H    -0.64959  -3.66487   3.39921
H    -0.24838  -2.24820   4.39928
H     2.72526   1.06339   2.82416
H     1.65779   1.36391   4.24141
H     2.52393  -0.19979   4.04387
