11
Generated by autodE on: 2022-10-22. E = -372.989613 Ha
C    -2.68422   0.86231   0.25666
N    -1.27147   0.90724   0.57938
C    -0.39822   0.07917  -0.00902
O    -0.67414  -0.76530  -0.85345
N     0.93171   0.30187   0.47421
N     1.80611  -0.41488  -0.01505
N     2.67404  -1.02461  -0.40564
H    -3.19775   1.65211   0.81744
H    -3.12754  -0.10941   0.52689
H    -2.85021   1.02675  -0.81929
H    -0.92947   1.56091   1.27592
