37
Generated by autodE on: 2022-10-22. E = -1069.350834 Ha
C     3.26064  -1.23207   0.41306
O     2.19719  -1.89863  -0.26039
C     0.87023  -1.64311   0.15278
C     0.56081  -2.44283   1.43817
F     1.33946  -2.05995   2.46591
F    -0.71548  -2.26889   1.82736
F     0.75574  -3.75508   1.25397
C     0.57517  -0.21847   0.35394
C     0.09999   0.86171   0.08431
C    -0.64961   1.87533  -0.64495
C    -2.08667   2.04446  -0.04805
C    -2.25190   1.77583   1.41562
O    -2.99449   2.40670  -0.76690
C     0.01708   3.27180  -0.52964
C    -0.40409   4.31993  -1.51405
O     0.84053   3.47437   0.34169
C    -0.73098   1.38115  -2.12077
C    -1.15855  -0.08989  -2.30468
C    -0.07470  -1.20281  -2.23553
C    -0.05407  -2.11942  -0.99671
H     4.14803  -1.34150  -0.22533
H     3.47052  -1.67594   1.39865
H     3.04327  -0.15811   0.53980
H    -3.23905   2.11572   1.75335
H    -1.44955   2.27162   1.98428
H    -2.14681   0.69366   1.59693
H    -1.49498   4.32350  -1.64921
H     0.04172   4.08736  -2.49523
H    -0.04813   5.30348  -1.18185
H     0.25025   1.54490  -2.59246
H    -1.45326   2.02850  -2.63532
H    -1.98166  -0.32639  -1.60928
H    -1.60556  -0.13967  -3.30939
H     0.92870  -0.77309  -2.38846
H    -0.24097  -1.86736  -3.09656
H    -1.07376  -2.23635  -0.60171
H     0.30866  -3.12048  -1.27449
