48
Generated by autodE on: 2022-10-22. E = -1442.303238 Ha. Imaginary frequency = -380.1 cm-1
C    -3.56752  -0.20381  -3.98818
N    -3.06478  -0.43487  -2.64816
C    -2.11060  -1.34674  -2.40276
O    -1.75557  -2.23443  -3.16859
N    -1.52804  -1.16583  -1.10391
N    -1.12062  -2.17465  -0.48998
N    -0.42800  -2.45285   0.40336
C     0.41306  -0.65194   0.89469
C     0.04987   0.17807   0.03981
C     0.34652   1.49070  -0.59611
O     0.48370   2.48566   0.40628
C    -0.65125   2.82504   1.20149
C    -0.71938   1.95015  -1.62106
F    -0.71305   1.19823  -2.73404
F    -1.97162   1.90446  -1.12201
F    -0.48818   3.21562  -1.99198
C     1.72379   1.43291  -1.32803
C     2.73075   0.38279  -0.85546
C     3.14392   0.39185   0.63683
C     2.81210  -0.90240   1.39819
C     1.38136  -0.95588   1.98397
C     1.10683  -2.35557   2.62582
C    -0.15429  -2.50302   3.42752
O     1.91766  -3.25014   2.51355
C     1.20309   0.06540   3.14570
C     2.31574   0.14655   4.15259
O     0.19213   0.72895   3.25281
H    -2.87545   0.42407  -4.57523
H    -4.53912   0.30292  -3.92803
H    -3.69815  -1.16146  -4.50809
H    -3.19755   0.29391  -1.95446
H    -0.26024   3.30859   2.10613
H    -1.22195   1.93375   1.49849
H    -1.31277   3.53068   0.67413
H     2.13585   2.44779  -1.22845
H     1.54804   1.25896  -2.39775
H     3.62722   0.53112  -1.47786
H     2.35140  -0.61485  -1.12529
H     4.23269   0.53687   0.69952
H     2.70077   1.25902   1.15222
H     3.52164  -1.05776   2.22142
H     2.93068  -1.76911   0.73191
H    -0.96797  -1.86952   3.05291
H    -0.45705  -3.55780   3.45628
H     0.07144  -2.17994   4.45928
H     3.14587   0.73151   3.72401
H     2.71478  -0.84777   4.40255
H     1.95053   0.65383   5.05452
