68
Generated by autodE on: 2022-06-11. E = -1569.842107 Ha
C     4.82938  -0.85136   2.20218
N     3.79433  -0.85080   1.18806
C     3.26923   0.29236   0.72654
O     3.73057   1.40626   1.00393
C     2.08965   0.15612  -0.27828
C     2.71288  -0.41605  -1.57097
N     1.53325   1.47786  -0.54135
C     0.18131   1.63004   0.00100
C    -0.57088   2.75862  -0.69947
C    -1.96981   2.79582  -0.82597
C    -2.61194   3.87743  -1.43459
C    -1.87157   4.95437  -1.92963
C    -0.47994   4.93394  -1.80828
C     0.15904   3.84829  -1.20249
C    -0.44550   0.19256  -0.04008
C    -1.49101  -0.03170   1.07039
C    -1.98098   1.00998   1.87185
C    -2.90355   0.76965   2.89544
C    -3.35630  -0.52529   3.15069
C    -2.87244  -1.57854   2.36954
C    -1.95558  -1.33079   1.34768
C    -1.06516  -0.04485  -1.44257
C    -0.40016   0.40677  -2.59901
C    -0.94307   0.22861  -3.87055
C    -2.18241  -0.39791  -4.03171
C    -2.87445  -0.82064  -2.89754
C    -2.32713  -0.63830  -1.62217
C     0.87759  -0.69815   0.29910
C     0.97341  -0.69262   1.85754
O     1.18166   0.37063   2.45293
N     0.76489  -1.83049   2.53287
C     0.60225  -1.82186   3.97323
C     1.01559  -2.14216  -0.22402
O     1.97155  -2.82414   0.19288
N     0.16258  -2.64638  -1.11546
C     0.31941  -3.98951  -1.64287
H     4.46876  -0.40153   3.14302
H     5.13430  -1.88656   2.40061
H     5.70982  -0.28075   1.86980
H     3.30599  -1.72195   0.95703
H     3.43422   0.32143  -1.95189
H     1.95154  -0.58151  -2.34104
H     3.24395  -1.35888  -1.39771
H     2.16434   2.16252  -0.12484
H     0.24205   1.90583   1.06374
H    -2.57869   1.96757  -0.46994
H    -3.70081   3.87065  -1.52732
H    -2.37391   5.79869  -2.40774
H     0.11727   5.76583  -2.19006
H     1.24669   3.85068  -1.12936
H    -1.64404   2.03332   1.72172
H    -3.26199   1.60705   3.49865
H    -4.07379  -0.71388   3.95260
H    -3.20486  -2.60226   2.55616
H    -1.58784  -2.17600   0.76725
H     0.54712   0.92854  -2.49321
H    -0.39331   0.59189  -4.74213
H    -2.60776  -0.54081  -5.02769
H    -3.85537  -1.29180  -2.99346
H    -2.91024  -0.96542  -0.76473
H     0.61694  -2.69840   2.03375
H     1.50428  -1.43752   4.47373
H    -0.25024  -1.18809   4.26737
H     0.41771  -2.84819   4.31279
H    -0.59555  -2.06935  -1.46597
H     1.26836  -4.09103  -2.19253
H    -0.51419  -4.19430  -2.32535
H     0.31269  -4.73344  -0.83184
