40
Generated by autodE on: 2022-06-11. E = -957.200638 Ha
C    -1.98649  -0.96128   2.28571
N    -2.68168   0.06244   1.52794
C    -2.15133   0.94468   0.66332
O    -2.83329   1.81370   0.09965
C    -0.66499   0.90140   0.42692
C     0.00983   2.12767   0.96597
O    -0.20935   2.48935   2.13073
N     0.80516   2.80842   0.11911
C     1.69091   3.85892   0.57891
C    -0.00951  -0.12492  -0.17286
C     1.47657  -0.15877  -0.25255
C     2.26606   0.10916   0.87999
C     3.65916   0.08899   0.79422
C     4.28384  -0.19922  -0.42370
C     3.50723  -0.47836  -1.55315
C     2.11381  -0.46808  -1.46669
C    -0.73198  -1.28581  -0.75246
C    -0.24614  -2.59066  -0.54533
C    -0.92833  -3.69268  -1.06118
C    -2.09726  -3.50905  -1.80824
C    -2.57768  -2.21617  -2.03728
C    -1.90137  -1.11237  -1.51420
H    -1.94583  -1.92187   1.74753
H    -0.96161  -0.64054   2.50898
H    -2.51296  -1.11875   3.23694
H    -3.69293   0.12124   1.62782
H     0.99935   2.38386  -0.78218
H     1.17124   4.49374   1.30842
H     2.00125   4.47509  -0.27468
H     2.59249   3.44149   1.06152
H     1.78302   0.32417   1.83523
H     4.25899   0.29380   1.68396
H     5.37416  -0.21309  -0.49099
H     3.98943  -0.70627  -2.50663
H     1.51023  -0.68774  -2.34971
H     0.66442  -2.73877   0.03817
H    -0.54608  -4.70004  -0.88066
H    -2.62753  -4.37202  -2.21769
H    -3.48076  -2.06391  -2.63286
H    -2.27201  -0.10579  -1.71256
