28
Generated by autodE on: 2022-06-11. E = -612.620770 Ha
C    -5.05162   0.96142   0.02099
N    -3.92032   0.46700   0.77509
C    -2.66565   0.47378   0.25368
O    -2.44690   0.98151  -0.87729
C    -1.58700  -0.10699   1.03138
C    -1.65195  -0.71502   2.38723
N    -0.40092  -0.06837   0.38959
C     0.79933  -0.50197   0.75603
C     1.97316  -0.38293  -0.07416
C     3.20799  -0.85693   0.43260
C     4.37723  -0.77015  -0.31972
C     4.35614  -0.20803  -1.60217
C     3.14266   0.26388  -2.11967
C     1.96820   0.17993  -1.37482
H    -5.93995   0.95378   0.66538
H    -5.26275   0.34577  -0.87119
H    -4.87738   1.99290  -0.32179
H    -4.09813  -0.04201   1.63168
H    -0.94190  -0.22147   3.07786
H    -2.65035  -0.63782   2.83576
H    -1.37237  -1.78597   2.36748
H    -0.50420   0.38462  -0.52921
H     0.88513  -0.97000   1.73627
H     3.23414  -1.29607   1.43327
H     5.31545  -1.14406   0.09806
H     5.27264  -0.13928  -2.19230
H     3.11064   0.70266  -3.12020
H     1.04156   0.55395  -1.81766
