68
Generated by autodE on: 2022-06-11. E = -1569.796786 Ha. Imaginary frequency = -216.4 cm-1
C     4.96607  -1.17318   1.82354
N     3.96769  -0.58381   0.95535
C     3.16494   0.41776   1.36710
O     3.26013   0.98046   2.46809
C     2.11478   0.83700   0.37540
C     2.48635   0.79609  -1.07208
N     1.20142   1.66386   0.91356
C    -0.06370   1.95882   0.45622
C    -0.29818   2.72809  -0.78333
C    -1.61186   2.88806  -1.26883
C    -1.86764   3.61372  -2.43081
C    -0.81891   4.22089  -3.13038
C     0.48266   4.12017  -2.63098
C     0.73916   3.39086  -1.46788
C    -0.84803  -0.12596   0.27065
C    -1.93604  -0.17480   1.33376
C    -2.74444   0.90884   1.71186
C    -3.79871   0.74923   2.61652
C    -4.08356  -0.50506   3.16098
C    -3.30515  -1.60170   2.77877
C    -2.25414  -1.43566   1.87582
C    -1.41399  -0.13182  -1.12339
C    -0.58462  -0.09129  -2.26218
C    -1.10524  -0.05829  -3.55286
C    -2.48964  -0.06632  -3.75738
C    -3.33250  -0.12873  -2.64723
C    -2.80373  -0.16483  -1.35320
C     0.34193  -0.90994   0.55241
C     0.73969  -1.02339   1.97777
O     0.38251  -0.18279   2.82754
N     1.49929  -2.08589   2.36121
C     2.03378  -2.15117   3.70702
C     0.83725  -1.99887  -0.34510
O     2.05031  -2.28467  -0.46181
N    -0.09436  -2.75692  -0.96112
C     0.23988  -3.68710  -2.01980
H     4.55352  -1.99797   2.42782
H     5.79319  -1.57015   1.21811
H     5.35988  -0.40890   2.50485
H     3.56779  -1.18350   0.22849
H     1.71098   1.20233  -1.71871
H     2.70973  -0.22799  -1.39464
H     3.39969   1.39812  -1.22092
H     1.23634   1.59218   1.93458
H    -0.69278   2.27338   1.28725
H    -2.44155   2.42371  -0.73975
H    -2.89429   3.70285  -2.79358
H    -1.01761   4.78372  -4.04538
H     1.30762   4.62113  -3.14328
H     1.75451   3.36069  -1.07366
H    -2.57516   1.89987   1.29557
H    -4.40227   1.61732   2.89289
H    -4.90642  -0.62828   3.86905
H    -3.51765  -2.59491   3.18235
H    -1.66369  -2.30456   1.58001
H     0.49245  -0.08864  -2.14046
H    -0.42245  -0.01938  -4.40494
H    -2.90224  -0.03053  -4.76821
H    -4.41678  -0.14957  -2.78140
H    -3.49328  -0.21436  -0.51265
H     1.97390  -2.61011   1.63299
H     2.66493  -1.28017   3.94621
H     1.22127  -2.18947   4.44867
H     2.63592  -3.06340   3.80477
H    -1.06165  -2.46164  -0.88737
H     0.48274  -3.15827  -2.95880
H    -0.61692  -4.34836  -2.20174
H     1.10696  -4.29671  -1.73304
