60
Generated by autodE on: 2022-06-30. E = -1711.976227 Ha
C     2.00632  -1.63668   0.46034
N     2.19661  -1.72592  -0.97328
C     2.07530  -0.65416  -1.76548
O     1.67982   0.44211  -1.35837
C     2.38153  -0.88448  -3.28080
C     0.99778  -1.44898  -3.74222
O     0.63911  -2.58313  -3.40608
N     0.18843  -0.64460  -4.44145
C    -1.14597  -1.07260  -4.82047
C     2.67777   0.45643  -4.00306
C     4.10089   0.99974  -4.00091
C     4.73687   1.33959  -2.65485
C     4.98333   0.19852  -1.66254
C     5.64638  -1.09611  -2.21699
C     6.92225  -0.60857  -2.97919
C     8.16268  -0.25223  -2.21436
O     6.86047  -0.46927  -4.18418
C     6.01948  -1.97041  -0.98920
F     6.61842  -1.28043  -0.00791
F     4.93193  -2.54405  -0.44738
F     6.86481  -2.97194  -1.32018
C     4.78478  -1.95917  -3.14386
C     3.48915  -1.91040  -3.53454
C     3.18554  -3.13815  -4.38356
C     2.51666  -4.21853  -3.52076
O     2.76168  -4.39058  -2.33765
O     1.76476  -5.04182  -4.24137
C     1.14396  -6.13084  -3.54143
N     4.51004  -3.58882  -4.81915
C     4.62417  -4.95774  -5.30213
C     5.38858  -3.26417  -3.70350
C     6.79491  -3.27652  -4.13448
N     7.89448  -3.40104  -4.48090
H     2.73759  -0.94979   0.91815
H     0.99696  -1.27192   0.70579
H     2.13834  -2.63463   0.89613
H     2.54651  -2.60057  -1.36429
H     0.48868   0.28953  -4.69119
H    -1.62736  -0.26573  -5.38548
H    -1.75512  -1.30230  -3.93222
H    -1.10694  -1.97609  -5.44801
H     2.41047   0.31635  -5.05991
H     1.99365   1.20644  -3.58045
H     4.07510   1.92836  -4.59442
H     4.75314   0.31420  -4.55558
H     5.69927   1.83624  -2.85926
H     4.11687   2.08433  -2.12961
H     4.06909  -0.08886  -1.14088
H     5.64197   0.58869  -0.87683
H     8.86097   0.25184  -2.89383
H     7.94187   0.38683  -1.34846
H     8.63250  -1.17306  -1.83363
H     2.54366  -2.93138  -5.25054
H     1.90469  -6.77344  -3.07610
H     0.57986  -6.69229  -4.29474
H     0.46589  -5.74235  -2.76786
H     5.62859  -5.11159  -5.72269
H     4.46732  -5.72005  -4.51384
H     3.89129  -5.12623  -6.10214
H     5.34083  -4.03515  -2.90430
