42
Generated by autodE on: 2022-06-30. E = -1218.303804 Ha
C    -3.48079  -2.82757  -3.13358
N    -2.39650  -1.89026  -2.91726
C    -1.93200  -1.62213  -1.69388
O    -2.37513  -2.14526  -0.66565
C    -0.71680  -0.66327  -1.60659
C    -0.74126   0.44656  -2.68208
O    -0.82722   0.14878  -3.88255
N    -0.64343   1.71098  -2.26125
C    -0.61024   2.82434  -3.19146
C    -0.58931  -0.13829  -0.25502
C    -0.08227   0.21221   0.78571
C     0.96797   0.33509   1.78955
C     0.82311  -0.72689   2.93563
C    -0.49893  -1.40746   3.09303
O     1.78048  -0.94590   3.64644
C     0.92974   1.72817   2.43818
F     1.98132   1.93835   3.24044
F    -0.18130   1.89195   3.18092
F     0.93088   2.69981   1.50958
C     2.32146   0.13093   1.04185
C     2.37129  -1.08242   0.09167
C     1.90882  -0.89079  -1.38136
C     0.58019  -1.53526  -1.82159
H    -3.68499  -2.89168  -4.20923
H    -4.39861  -2.50449  -2.61693
H    -3.21917  -3.83061  -2.76115
H    -1.97161  -1.38311  -3.69469
H    -0.51719   1.88685  -1.26838
H     0.28679   2.78561  -3.82982
H    -0.60030   3.76061  -2.62096
H    -1.49527   2.81237  -3.84510
H    -1.28982  -0.64961   3.21323
H    -0.47575  -2.08114   3.95852
H    -0.74250  -1.96594   2.17532
H     3.09344   0.02752   1.81646
H     2.54132   1.04967   0.47772
H     1.84013  -1.93677   0.54436
H     3.42913  -1.38376   0.05917
H     2.68025  -1.34517  -2.02169
H     1.91182   0.18099  -1.63989
H     0.61566  -1.77574  -2.89368
H     0.42940  -2.47985  -1.27697
