18
Generated by autodE on: 2022-06-30. E = -493.585625 Ha
C     3.83484   0.22674  -0.19404
O     2.57928   0.49103  -0.82412
C     1.47147   0.11649  -0.14191
O     1.53135  -0.42554   0.96026
C     0.28369   0.44247  -0.88600
N    -0.96430   0.18920  -0.45478
C    -2.06344   0.59201  -1.36311
C    -1.30522  -0.38685   0.71056
C    -2.64736  -0.60024   1.05374
N    -3.75150  -0.80030   1.38787
H     3.91028   0.75561   0.76816
H     3.96876  -0.85204  -0.02214
H     4.60418   0.59390  -0.88390
H     0.37984   0.92117  -1.85550
H    -2.66365  -0.29221  -1.61135
H    -2.69344   1.33392  -0.85628
H    -1.63846   1.02223  -2.27363
H    -0.50817  -0.68481   1.38748
