60
Generated by autodE on: 2022-06-30. E = -1711.898147 Ha. Imaginary frequency = -186.4 cm-1
C     1.20157  -2.16909   0.32442
N     1.90700  -1.92396  -0.91908
C     1.29163  -1.45567  -2.01245
O     0.07108  -1.23648  -2.03590
C     2.21217  -1.07512  -3.19787
C     1.60233  -1.25495  -4.60993
O     2.34971  -1.29925  -5.59629
N     0.27128  -1.27700  -4.70903
C    -0.39505  -1.36319  -5.99232
C     2.48416   0.47597  -3.01598
C     3.73291   0.99992  -3.74792
C     4.93797   1.33749  -2.85029
C     5.39456   0.34236  -1.77666
C     5.86599  -1.07909  -2.24880
C     6.96897  -0.87801  -3.32321
C     8.37923  -0.61049  -2.89154
O     6.64145  -0.87409  -4.49359
C     6.35210  -1.84209  -0.99951
F     7.24126  -1.14633  -0.27412
F     5.31770  -2.12166  -0.18141
F     6.93551  -3.01644  -1.30367
C     4.70408  -1.79205  -2.81849
C     3.50744  -1.77824  -3.11909
C     3.15624  -3.99038  -4.16584
C     2.62686  -4.51937  -2.91838
O     3.25800  -4.98781  -1.97960
O     1.28132  -4.43491  -2.92701
C     0.58265  -4.95786  -1.79272
N     4.45321  -4.04984  -4.51711
C     4.78493  -3.63548  -5.89010
C     5.43867  -4.04725  -3.59598
C     6.79336  -4.02843  -3.99224
N     7.92714  -3.98855  -4.26712
H     1.01748  -1.23130   0.87503
H     0.23252  -2.64673   0.12845
H     1.80922  -2.83225   0.95264
H     2.90955  -2.08518  -0.95789
H    -0.25105  -1.22811  -3.83069
H    -1.47980  -1.36697  -5.82945
H    -0.11445  -2.28407  -6.52830
H    -0.13569  -0.50763  -6.63627
H     1.57686   0.99815  -3.35093
H     2.57049   0.67108  -1.93676
H     3.46348   1.92686  -4.27767
H     4.02985   0.28970  -4.52975
H     5.78964   1.59339  -3.50121
H     4.70227   2.26121  -2.29520
H     4.58731   0.17088  -1.05013
H     6.22549   0.80501  -1.22507
H     8.97504  -0.33042  -3.76913
H     8.41374   0.18623  -2.13400
H     8.80821  -1.51674  -2.43597
H     2.44915  -3.83665  -4.97455
H     1.07220  -4.66263  -0.85704
H     0.54394  -6.05663  -1.84936
H    -0.43064  -4.54278  -1.84240
H     5.62415  -4.23570  -6.26129
H     3.91220  -3.78644  -6.53189
H     5.06499  -2.57293  -5.87857
H     5.19503  -4.37959  -2.59184
