51
Generated by autodE on: 2022-06-23. E = -1109.697485 Ha
C    -2.89084   3.42814   1.73142
N    -1.94928   2.59254   1.01596
C    -2.33121   1.68522   0.11560
O    -3.52088   1.54251  -0.22283
C    -1.21613   0.79017  -0.47706
C    -1.38042   0.76534  -2.00699
N     0.11158   1.24650  -0.04177
C     0.70782   2.38264  -0.71813
C     0.97453   0.12856   0.38316
C     2.35067   0.08064  -0.24714
C     2.51914  -0.06130  -1.63520
C     3.79584  -0.13664  -2.19391
C     4.92903  -0.07937  -1.37304
C     4.77337   0.05758   0.00845
C     3.49151   0.14109   0.56329
C     0.14543  -1.12780   0.05557
N     0.48468  -2.29334   0.85860
C     1.24713  -3.32959   0.18430
C    -0.36985  -2.66253   1.87902
C    -1.40786  -1.91758   2.31306
C    -1.73619  -0.60990   1.65264
C    -1.31452  -0.64900   0.16133
C    -2.24005  -1.60983  -0.60528
N    -3.53998  -1.26828  -0.65178
O    -1.81227  -2.65250  -1.11241
H    -3.48522   2.84227   2.45282
H    -3.58766   3.90965   1.02983
H    -2.34035   4.20518   2.27620
H    -0.96520   2.56462   1.27342
H    -2.39482   0.46395  -2.29205
H    -0.66470   0.06594  -2.46112
H    -1.20184   1.76432  -2.42838
H     1.56676   2.74785  -0.13531
H     1.06726   2.17664  -1.74307
H    -0.01984   3.20506  -0.77948
H     1.12081   0.16865   1.47677
H     1.64248  -0.11647  -2.28406
H     3.90909  -0.24491  -3.27540
H     5.92813  -0.14264  -1.81090
H     5.65098   0.10045   0.65817
H     3.37096   0.25111   1.64419
H     0.32383  -1.39002  -0.99384
H     2.13939  -2.89628  -0.29030
H     0.65612  -3.84661  -0.59540
H     1.58360  -4.07776   0.91658
H    -0.12787  -3.62242   2.34434
H    -2.00249  -2.26577   3.15914
H    -2.80872  -0.38532   1.73544
H    -1.21101   0.22711   2.14269
H    -3.81177  -0.30256  -0.44322
H    -4.15904  -1.84533  -1.21391
