51
Generated by autodE on: 2022-06-23. E = -1109.628771 Ha. Imaginary frequency = -470.8 cm-1
C    -1.87518   2.24514   2.87200
N    -1.29974   2.04045   1.55845
C    -2.05661   1.64949   0.50565
O    -3.29430   1.55506   0.63145
C    -1.41751   1.41962  -0.81504
C    -2.25670   1.83237  -1.98581
N    -0.07825   1.23358  -0.97977
C     0.51644   1.53919  -2.28782
C     0.63397   0.43176  -0.09830
C     2.11367   0.36943  -0.10397
C     2.87273  -0.11557  -1.18622
C     4.25765  -0.25257  -1.08019
C     4.91432   0.08432   0.10828
C     4.17319   0.56188   1.19412
C     2.78839   0.69892   1.08761
C    -0.12444  -1.45990  -0.33248
N     0.42865  -2.14856   0.76935
C     1.78444  -2.66674   0.73563
C    -0.21245  -2.01706   1.99298
C    -1.50164  -1.64137   2.09613
C    -2.36524  -1.46925   0.87208
C    -1.52843  -1.24283  -0.37397
C    -2.16187  -1.15901  -1.67563
N    -3.53627  -1.13514  -1.69254
O    -1.53453  -1.17387  -2.76330
H    -2.35131   1.32471   3.24555
H    -2.63578   3.04285   2.86591
H    -1.07342   2.52919   3.56505
H    -0.30958   2.21110   1.43462
H    -3.31107   1.68740  -1.72775
H    -2.03163   1.23857  -2.88167
H    -2.12023   2.90062  -2.23407
H     1.56839   1.80896  -2.14927
H     0.44950   0.67467  -2.96161
H     0.00302   2.39347  -2.73694
H     0.23941   0.46333   0.91161
H     2.37529  -0.42557  -2.10557
H     4.82758  -0.63914  -1.92852
H     5.99783  -0.03042   0.18901
H     4.67520   0.82443   2.12850
H     2.20901   1.05852   1.94191
H     0.36242  -1.69063  -1.28157
H     2.10730  -2.77749  -0.30663
H     2.51043  -2.01690   1.25192
H     1.81845  -3.66126   1.20943
H     0.40400  -2.23273   2.87016
H    -1.95205  -1.53816   3.08543
H    -3.00335  -2.36916   0.73129
H    -3.08064  -0.64369   1.02547
H    -4.02494  -0.80703  -0.86610
H    -3.95145  -0.85331  -2.57555
