26
Generated by autodE on: 2022-06-10. E = -557.193283 Ha
C    -2.61694   1.23855   1.32633
N    -1.40851   1.11829   0.82825
C    -0.56957   2.33740   0.81510
C    -0.82847  -0.04318   0.30546
C    -1.53617  -1.27211   0.26192
C    -0.80420  -2.46862  -0.33173
O    -2.71577  -1.44130   0.67571
C     0.57150   0.04563  -0.20823
C     0.82718   0.35477  -1.55544
C     2.13524   0.41095  -2.04453
C     3.21330   0.15479  -1.19119
C     2.97574  -0.15882   0.15091
C     1.66582  -0.21359   0.63515
H    -3.25649   0.36201   1.34792
H    -2.92213   2.21652   1.69467
H    -1.13777   3.16374   1.25265
H    -0.29001   2.57979  -0.21641
H     0.34259   2.16189   1.39638
H    -0.49922  -2.28102  -1.37282
H     0.11245  -2.70218   0.23165
H    -1.47525  -3.33811  -0.30393
H    -0.01520   0.55215  -2.22308
H     2.31361   0.65374  -3.09497
H     4.23668   0.19736  -1.57190
H     3.81329  -0.36307   0.82244
H     1.48026  -0.46161   1.68319
