63
Generated by autodE on: 2022-06-10. E = -4051.606396 Ha. Imaginary frequency = -219.8 cm-1
C    -3.48334  -0.85731   1.41555
O    -2.37443  -1.70236   1.76293
C    -1.89184  -1.58642   2.99552
O    -2.35901  -0.84455   3.83351
C    -0.71134  -2.54004   3.23082
C     0.50884  -2.13743   2.38380
O     1.49425  -2.83381   2.28060
O     0.38175  -0.93710   1.83033
C     1.51307  -0.42883   1.10047
C    -1.12151  -3.99710   2.86170
C    -2.22986  -4.55865   3.77330
C    -1.81951  -5.73689   4.66825
C    -0.58190  -5.59152   5.56262
C    -0.49242  -4.36461   6.51471
Br   -2.18394  -4.24813   7.57546
C     0.68280  -4.64307   7.49228
C     2.04898  -4.67199   6.85653
O     0.50922  -4.91279   8.65836
C    -0.31832  -3.13617   5.73758
C    -0.32196  -2.51791   4.66621
C     0.88946  -0.59278   4.94313
N     0.33417  -0.15629   6.07178
C    -0.58091   0.99769   5.93194
C     0.42724  -0.83719   7.27201
C     1.67095  -1.43993   7.70735
C     2.98329  -1.18314   6.98578
O     1.71793  -2.11273   8.75669
C    -0.68887  -0.67854   8.23732
C    -2.02438  -0.84170   7.82553
C    -3.08269  -0.64487   8.71272
C    -2.83125  -0.29572  10.04267
C    -1.50848  -0.14020  10.47259
C    -0.45135  -0.32386   9.58033
H    -3.73520  -1.10350   0.37801
H    -3.19450   0.20011   1.49901
H    -4.33811  -1.05976   2.07615
H     2.38329  -0.34846   1.76699
H     1.74942  -1.09283   0.25764
H     1.21419   0.56061   0.73766
H    -1.43225  -4.00163   1.80804
H    -0.20782  -4.60352   2.92677
H    -2.64641  -3.75719   4.40306
H    -3.06758  -4.90225   3.14701
H    -2.68248  -6.00449   5.29696
H    -1.62246  -6.61461   4.02921
H     0.32456  -5.55426   4.93914
H    -0.50079  -6.49941   6.18204
H     2.11954  -4.03260   5.96817
H     2.79660  -4.38069   7.60468
H     2.25127  -5.71091   6.54627
H     1.68660  -1.32334   4.96844
H     0.80940   0.05930   4.07459
H    -0.69995   1.49367   6.89934
H    -1.55623   0.67771   5.54995
H    -0.13071   1.69861   5.21878
H     3.00536  -0.23975   6.42335
H     3.22116  -2.00251   6.29048
H     3.76805  -1.17031   7.75558
H    -2.23260  -1.14579   6.80011
H    -4.10965  -0.78422   8.36625
H    -3.65860  -0.14922  10.74133
H    -1.29831   0.13642  11.50883
H     0.57340  -0.18741   9.92667
