34
Generated by autodE on: 2022-05-27. E = -3319.023524 Ha
C     3.44429  -1.56819  -1.40630
N     2.55945  -1.06329  -0.37511
C     1.26761  -0.77118  -0.64300
O     0.77579  -0.99323  -1.74486
C     0.50082  -0.18217   0.55594
C     0.39256  -1.29337   1.66559
C    -0.13262  -2.58788   1.00342
C    -1.60090  -2.23006   0.63599
C    -1.78195  -0.82808   1.25227
C    -0.85040  -0.89021   2.47915
C    -1.01747   0.20859   0.40761
Br   -1.83714   0.46387  -1.38891
C    -1.06208   1.58675   1.00163
N     0.04363   2.13261   1.32169
C     1.15369   1.19597   1.03039
C     2.06808   1.11892   2.25940
C     1.90448   1.81620  -0.08242
N     2.47315   2.33730  -0.94912
H     3.05847  -2.50440  -1.83931
H     3.55912  -0.83681  -2.22309
H     4.42909  -1.76145  -0.96345
H     2.93952  -0.90392   0.54988
H     1.32411  -1.43294   2.22506
H    -0.09749  -3.39670   1.74720
H     0.45714  -2.91786   0.13909
H    -1.77280  -2.21856  -0.44880
H    -2.31604  -2.93508   1.08247
H    -2.82194  -0.53002   1.43464
H    -1.14865  -1.67570   3.18837
H    -0.75843   0.05809   3.02422
H    -2.01800   2.10078   1.15456
H     1.49960   0.75461   3.12399
H     2.44939   2.12336   2.48892
H     2.92619   0.45460   2.08983
