10
Generated by autodE on: 2022-05-27. E = -264.352638 Ha
C     1.06966   2.10368   0.08843
N     0.42008   1.08644   0.16110
C    -0.34817   0.04395   0.10653
C    -1.80812   0.10978   0.47348
C     0.22986  -1.18547  -0.31345
N     0.66498  -2.21376  -0.65345
H     1.67290   2.51463   0.91258
H    -2.08404   1.14347   0.72186
H    -2.02385  -0.53203   1.34291
H    -2.43418  -0.23369  -0.36561
