46
Generated by autodE on: 2022-06-05. E = -3680.540232 Ha
C     3.69175   0.46609  -1.30335
C     2.29243   0.89511  -0.94515
O     1.86928   1.99965  -1.22512
C     1.45581  -0.05623  -0.04193
C     1.53594  -1.54005  -0.38150
C     1.71095  -1.98245  -1.70000
C     1.68139  -3.34591  -2.00300
C     1.47351  -4.28767  -0.99174
C     1.30295  -3.85599   0.32700
C     1.33544  -2.49315   0.62872
N     2.03917   0.28401   1.27561
C     1.02808   0.85852   2.15581
C     0.79591   0.02538   3.35234
N     0.63420  -0.65149   4.28061
C    -0.21790   0.94170   1.28821
C     0.00659   0.41668   0.07319
C    -1.08367   0.15175  -0.91861
Br   -0.57120   0.45677  -2.81963
C    -1.70703  -1.24383  -0.78565
C    -2.17103  -1.56772   0.63899
C    -3.12663  -0.54136   1.27971
C    -2.53359   0.38335   2.34376
C    -1.52607   1.49712   1.86175
C    -2.20052   2.39559   0.90099
N    -2.75978   3.10325   0.17329
C    -1.23271   2.33746   3.04374
N    -1.02362   2.96762   3.99311
H     4.36080   1.33520  -1.23033
H     3.69652   0.13037  -2.35312
H     4.06049  -0.35867  -0.68046
H     1.85007  -1.26554  -2.50749
H     1.81806  -3.67078  -3.03695
H     1.44699  -5.35359  -1.22944
H     1.13938  -4.58203   1.12653
H     1.18597  -2.17653   1.66228
H     2.56022  -0.48284   1.69043
H     1.31845   1.85973   2.52296
H    -1.86938   0.89972  -0.79411
H    -0.99636  -2.01043  -1.12199
H    -2.56949  -1.27587  -1.46940
H    -1.29866  -1.72302   1.29241
H    -2.68026  -2.54199   0.58433
H    -3.92598  -1.08648   1.80427
H    -3.64313   0.05022   0.50502
H    -3.34892   0.91368   2.85735
H    -1.99802  -0.20657   3.10110
