24
Generated by autodE on: 2022-07-27. E = -610.161414 Ha
C     1.39143   1.67164  -2.02196
C     0.62559   1.76937  -0.72349
O     0.47525   2.88162  -0.18938
C     0.10632   0.56260  -0.10230
N    -0.48002   0.63732   1.11577
C    -0.72351   1.65552   1.94784
C    -1.36458   1.40585   3.17324
N    -1.89709   1.23490   4.20077
C     0.20952  -0.79487  -0.68146
C    -0.14650  -1.04613  -2.02066
C    -0.06933  -2.33582  -2.54759
C     0.35293  -3.40326  -1.74805
C     0.70035  -3.16964  -0.41440
C     0.63562  -1.87841   0.11271
H     1.96984   0.74267  -2.11074
H     2.05994   2.54097  -2.08939
H     0.69325   1.71605  -2.87389
H    -0.79913  -0.27270   1.46470
H    -0.42727   2.65855   1.65718
H    -0.50920  -0.23012  -2.64656
H    -0.35454  -2.51004  -3.58777
H     0.40995  -4.41227  -2.16272
H     1.03754  -3.99419   0.21807
H     0.93922  -1.70595   1.14848
