22
Generated by autodE on: 2022-06-05. E = -3070.278610 Ha
N    -0.93187  -1.34822  -4.07033
C    -0.99017  -1.40899  -2.91486
C    -1.08230  -1.43677  -1.43824
C    -1.45573  -2.80209  -1.01661
N    -1.76930  -3.85798  -0.65778
C     0.18620  -0.98677  -0.84897
C     0.92314  -0.16234  -0.35515
C     1.37811   1.08855   0.20414
Br    1.46100   0.91173   2.20488
C     0.37394   2.17764  -0.21247
C    -1.11988   1.84268  -0.03949
C    -1.84801   1.06802  -1.17365
C    -2.18910  -0.41688  -0.95309
H     2.40415   1.35611  -0.07353
H     0.58447   2.39658  -1.27376
H     0.62204   3.08996   0.35042
H    -1.27390   1.33015   0.92501
H    -1.63184   2.81131   0.06017
H    -1.31076   1.19304  -2.12902
H    -2.82017   1.56025  -1.32502
H    -2.34935  -0.62631   0.11472
H    -3.11111  -0.68421  -1.48939
