46
Generated by autodE on: 2022-06-05. E = -3680.432652 Ha. Imaginary frequency = -171.0 cm-1
C     3.11378   0.44251  -1.62310
C     2.48867   0.58252  -0.25880
O     2.61095   1.63917   0.36610
C     1.79545  -0.58041   0.33753
C     1.88359  -1.95665  -0.21518
C     1.52699  -2.25235  -1.54226
C     1.59744  -3.55875  -2.02656
C     2.02658  -4.59972  -1.19771
C     2.39102  -4.31969   0.12187
C     2.32638  -3.01248   0.60777
N     1.37642  -0.51570   1.61567
C     1.11005   0.55824   2.38214
C     0.61807   0.30060   3.68579
N     0.19880   0.08303   4.75210
C    -0.66083   1.30023   0.92867
C    -0.52346   0.82991  -0.20765
C    -1.33501   0.35130  -1.32038
Br   -0.46544   0.39869  -3.12891
C    -1.93193  -1.03188  -1.02186
C    -2.35768  -1.22251   0.44752
C    -3.27687  -0.14243   1.07689
C    -2.69126   0.68559   2.23361
C    -1.73777   1.86086   1.79398
C    -2.51418   2.81844   0.97171
N    -3.13675   3.52316   0.29361
C    -1.25060   2.60229   2.97350
N    -0.87912   3.19874   3.89427
H     3.77975   1.30019  -1.78288
H     2.33603   0.45565  -2.40116
H     3.67428  -0.49690  -1.72650
H     1.16110  -1.46328  -2.19487
H     1.30333  -3.76300  -3.05864
H     2.07975  -5.62194  -1.57895
H     2.74108  -5.12006   0.77771
H     2.64924  -2.81241   1.63207
H     0.99874  -1.39651   1.97396
H     1.58928   1.50520   2.15582
H    -2.13654   1.08991  -1.46588
H    -1.19580  -1.81099  -1.26643
H    -2.79148  -1.17150  -1.69593
H    -1.45549  -1.34189   1.06652
H    -2.87483  -2.19351   0.48923
H    -4.16027  -0.64275   1.50032
H    -3.67750   0.53336   0.30316
H    -3.50301   1.14527   2.81657
H    -2.11195   0.04768   2.91633
