35
Generated by autodE on: 2022-05-29. E = -1065.094951 Ha
C    -3.97416   2.35829  -1.13076
O    -3.10331   1.70567  -0.19473
C    -2.60086   0.52349  -0.56182
O    -2.85577  -0.02093  -1.62070
C    -1.70063  -0.02157   0.46927
C    -0.99574  -1.17185   0.42379
C    -0.96872  -2.26652  -0.58776
C    -2.22409  -3.06181  -0.77166
O     0.07711  -2.52988  -1.16437
C    -0.05466  -1.09847   1.63069
O    -0.86188  -0.37689   2.56983
C    -1.20323   0.71260   1.70714
C     0.23094   1.26347   1.38634
N     0.35621   1.88825   0.06522
N     1.08235   1.25217  -0.70888
C     1.66055   0.01944  -0.06395
C     3.17563   0.11724  -0.09749
O     3.89069   0.14601   0.88121
O     3.62482   0.16443  -1.34998
C     5.04636   0.28351  -1.52525
C     1.05807  -0.03733   1.32907
H    -4.27338   3.30013  -0.65733
H    -3.44203   2.55564  -2.07254
H    -4.85629   1.73386  -1.33221
H    -2.10754  -3.76573  -1.60645
H    -2.41444  -3.62115   0.16082
H    -3.08293  -2.39621  -0.93474
H     0.29495  -2.05090   2.03995
H    -1.89002   1.41727   2.18280
H     0.53138   1.98773   2.15335
H     1.37955  -0.82788  -0.70865
H     5.21462   0.31972  -2.60751
H     5.55901  -0.58534  -1.08826
H     5.41435   1.20423  -1.05037
H     1.82552  -0.08773   2.10794
