11
Generated by autodE on: 2022-05-29. E = -376.804982 Ha
C    -2.76349   0.00727  -0.18182
O    -1.47430  -0.02714  -0.80533
C    -0.41136   0.00429   0.01942
O    -0.49765   0.06103   1.23636
C     0.82416  -0.03820  -0.74146
N     1.95263  -0.01629  -0.08135
N     2.92014   0.00345   0.50401
H    -2.89843  -0.85959   0.48181
H    -2.89070   0.93231   0.39979
H    -3.49449  -0.02680  -0.99824
H     0.88221  -0.08814  -1.82824
