35
Generated by autodE on: 2022-05-29. E = -1065.004812 Ha. Imaginary frequency = -476.2 cm-1
C    -3.70537   2.52337  -1.15039
O    -2.86695   1.88006  -0.18017
C    -2.51964   0.61306  -0.43048
O    -2.89548  -0.00636  -1.41027
C    -1.62180   0.08763   0.60958
C    -1.00395  -1.11102   0.64717
C    -1.14725  -2.32931  -0.19476
C    -2.50102  -2.97307  -0.22766
O    -0.17348  -2.81965  -0.75217
C    -0.00397  -0.98154   1.81994
O    -0.79200  -0.17712   2.71617
C    -1.01451   0.89552   1.76631
C     0.43851   1.25152   1.39086
N     0.34690   1.67774  -0.84245
N     0.96749   0.76729  -1.18882
C     1.63097  -0.31378  -0.74317
C     3.10034  -0.23735  -0.67525
O     3.79673  -1.20208  -0.42070
O     3.56520   1.00700  -0.83153
C     4.98159   1.18823  -0.68449
C     1.10240   0.03630   1.41275
H    -3.87178   3.54063  -0.77846
H    -3.20325   2.55172  -2.12832
H    -4.66183   1.98961  -1.24555
H    -2.50496  -3.80741  -0.94170
H    -2.72882  -3.35013   0.78425
H    -3.27218  -2.23326  -0.48271
H     0.33337  -1.91548   2.27906
H    -1.63234   1.69620   2.18160
H     0.86844   2.23801   1.55010
H     1.18660  -1.28449  -0.98706
H     5.16712   2.25494  -0.85451
H     5.52601   0.58495  -1.42516
H     5.30153   0.90295   0.32811
H     2.13739  -0.12975   1.70712
