40
Generated by autodE on: 2022-06-12. E = -957.200465 Ha
C     0.45400   1.90674   2.49520
N     0.91778   0.58745   2.88658
C     1.20822  -0.44196   2.07300
O     1.66542  -1.51548   2.49167
C     1.01238  -0.24022   0.59287
C     2.32344  -0.17161  -0.13176
O     3.21116   0.59126   0.27587
N     2.48302  -0.99314  -1.18648
C     3.59614  -0.85552  -2.10388
C    -0.19740  -0.09885  -0.00557
C    -1.46883  -0.22819   0.75167
C    -2.51282   0.68990   0.53005
C    -3.70343   0.59923   1.25135
C    -3.87916  -0.42178   2.19206
C    -2.85713  -1.35170   2.40482
C    -1.66050  -1.25667   1.69151
C    -0.31626   0.23088  -1.45267
C     0.43512   1.27594  -2.01887
C     0.32808   1.56953  -3.37947
C    -0.53051   0.82361  -4.19372
C    -1.29062  -0.21047  -3.63731
C    -1.19228  -0.49874  -2.27476
H     0.74615   2.62645   3.27130
H    -0.64076   1.94725   2.37833
H     0.92104   2.21194   1.55012
H     1.04027   0.39836   3.87907
H     1.66916  -1.51152  -1.50180
H     4.51748  -0.64821  -1.54429
H     3.72264  -1.78796  -2.66887
H     3.42895  -0.02878  -2.81696
H    -2.37941   1.48786  -0.20279
H    -4.49890   1.32778   1.07845
H    -4.81424  -0.49643   2.75204
H    -2.99310  -2.16085   3.12611
H    -0.87452  -1.99578   1.85100
H     1.09885   1.86773  -1.38541
H     0.91371   2.38811  -3.80416
H    -0.61239   1.05235  -5.25885
H    -1.96469  -0.79521  -4.26760
H    -1.78800  -1.30550  -1.84280
