28
Generated by autodE on: 2022-07-27. E = -612.606342 Ha
C    -3.37814   0.22802   2.47801
N    -2.39455   0.23022   1.41301
C    -2.72701   0.71838   0.17597
O    -3.91479   1.01971  -0.07962
C    -1.69748   0.91730  -0.82786
C    -2.07615   1.66586  -2.06996
N    -0.42227   0.46651  -0.74444
C     0.23268  -0.36974   0.06576
C     1.65064  -0.60857  -0.03968
C     2.52684   0.15546  -0.84982
C     3.88470  -0.15132  -0.91835
C     4.41858  -1.21072  -0.17402
C     3.56923  -1.96300   0.64780
C     2.20999  -1.66882   0.71622
H    -3.70161   1.24592   2.76046
H    -2.94501  -0.25999   3.36089
H    -4.27350  -0.33171   2.17188
H    -1.42006   0.26491   1.69491
H    -1.18109   1.93521  -2.65232
H    -2.73259   1.07087  -2.73102
H    -2.62409   2.59115  -1.83095
H     0.15737   0.84330  -1.50024
H    -0.34169  -0.94387   0.78811
H     2.15503   1.01165  -1.41912
H     4.53792   0.45361  -1.55227
H     5.48481  -1.44140  -0.22736
H     3.97171  -2.78906   1.23956
H     1.55318  -2.26501   1.35495
