68
Generated by autodE on: 2022-06-12. E = -1569.802951 Ha. Imaginary frequency = -205.8 cm-1
C    -1.67960   2.36129   3.55004
N    -0.92337   2.25638   2.31976
C    -1.53521   2.15502   1.12063
O    -2.77294   2.23526   1.02949
C    -0.69546   1.98337  -0.09508
C    -1.13316   2.77529  -1.29914
N     0.67022   1.85808  -0.00974
C     1.35278   0.92068   0.68066
C     2.81295   0.86178   0.59771
C     3.53962   1.36767  -0.49746
C     4.93004   1.26789  -0.53274
C     5.62251   0.66344   0.52222
C     4.91144   0.16127   1.61790
C     3.52162   0.25912   1.65520
C     0.29196  -0.82905  -0.38176
C     1.11721  -0.56283  -1.59522
O     0.85723   0.35975  -2.38858
N     2.19527  -1.36403  -1.80134
C     3.10690  -1.13711  -2.90262
C     0.70164  -2.06018   0.39315
O     1.80913  -2.18914   0.94182
N    -0.17263  -3.08978   0.36349
C     0.00004  -4.25922   1.19989
C    -1.08956  -0.40015  -0.35358
C    -1.88012  -0.73450   0.87608
C    -3.26528  -1.00013   0.82981
C    -3.99281  -1.31788   1.97882
C    -3.36321  -1.39118   3.22278
C    -1.98677  -1.15431   3.29354
C    -1.26539  -0.83335   2.14584
C    -1.87418  -0.39828  -1.63501
C    -2.97585   0.44992  -1.84885
C    -3.74162   0.36713  -3.01284
C    -3.43333  -0.57745  -3.99688
C    -2.35944  -1.44822  -3.79103
C    -1.59814  -1.36304  -2.62342
H    -1.00179   2.20026   4.39789
H    -2.47130   1.59895   3.57883
H    -2.15317   3.35155   3.66031
H     0.08718   2.29336   2.37057
H    -0.52422   3.69383  -1.37567
H    -0.99575   2.20483  -2.22755
H    -2.18145   3.07497  -1.21688
H     1.14877   2.19306  -0.84536
H     0.91920   0.58579   1.61557
H     3.02534   1.82509  -1.34452
H     5.47601   1.66124  -1.39316
H     6.71174   0.58620   0.49129
H     5.44392  -0.30869   2.44799
H     2.96690  -0.13832   2.50670
H     2.51702  -1.92605  -1.01905
H     3.73541  -0.24272  -2.75729
H     2.54763  -1.01008  -3.84040
H     3.76611  -2.00956  -3.00259
H    -1.08993  -2.92512  -0.03595
H     1.01802  -4.65956   1.09653
H    -0.71900  -5.02948   0.89382
H    -0.16879  -4.01981   2.26499
H    -3.79088  -0.97798  -0.12212
H    -5.06387  -1.51716   1.89308
H    -3.93199  -1.63897   4.12187
H    -1.46522  -1.21553   4.25148
H    -0.19592  -0.67608   2.25463
H    -3.23679   1.17624  -1.08136
H    -4.58640   1.04684  -3.15006
H    -4.03063  -0.64114  -4.90958
H    -2.11566  -2.20698  -4.53885
H    -0.78343  -2.07185  -2.46853
