46
Generated by autodE on: 2022-06-20. E = -981.605369 Ha
C    -3.93659  -2.48752   0.43688
C    -3.18329  -2.64453  -0.84846
O    -3.30988  -3.60770  -1.58691
C    -2.18496  -1.56526  -1.24224
C    -0.73530  -2.03014  -1.04157
C     0.02111  -0.72319  -0.72470
C     0.26707   0.07413  -2.00840
C     1.27335  -0.97326   0.06971
C     2.46190  -0.36167  -0.10271
C     3.62458  -0.63124   0.72568
C     4.83865  -0.03579   0.63633
C     5.95109  -0.41336   1.57373
C     5.19215   1.02823  -0.36425
C    -1.10044   0.00208   0.14363
C    -1.10800  -0.53324   1.53038
N    -1.15866  -0.96288   2.60695
C    -0.94957   1.51344   0.19717
C     0.03194   2.08837   1.01711
C     0.23124   3.47065   1.00789
C    -0.55300   4.28844   0.18808
C    -1.53912   3.71616  -0.62063
C    -1.73760   2.33265  -0.61871
O    -2.32844  -0.36787  -0.46563
H    -4.51745  -1.55213   0.41852
H    -3.22715  -2.39866   1.27564
H    -4.59958  -3.34843   0.59131
H    -2.37818  -1.31741  -2.29836
H    -0.34168  -2.53775  -1.93084
H    -0.66805  -2.72286  -0.18889
H     0.73309   1.04660  -1.80552
H    -0.67001   0.26208  -2.55004
H     0.93537  -0.49980  -2.66634
H     1.17802  -1.71300   0.87269
H     2.56926   0.38195  -0.89555
H     3.48694  -1.39190   1.50331
H     6.29504   0.46670   2.14617
H     5.64791  -1.19501   2.28564
H     6.83065  -0.77436   1.01117
H     6.05147   0.70503  -0.97775
H     5.51612   1.94683   0.15597
H     4.36841   1.29142  -1.04011
H     0.64475   1.45750   1.66342
H     1.00041   3.90964   1.64737
H    -0.39869   5.36994   0.18390
H    -2.16004   4.34913  -1.25892
H    -2.50277   1.88444  -1.25190
