23
Generated by autodE on: 2022-06-20. E = -351.521385 Ha
C     3.56636  -1.03170  -0.71777
C     2.56171  -0.29360  -0.19660
C     2.84000   0.91236   0.66379
C     1.17231  -0.65996  -0.46384
C     0.07850  -0.00392  -0.00135
C    -1.28019  -0.41009  -0.29752
C    -2.42229   0.19009   0.12324
C    -3.76688  -0.35383  -0.26922
C    -2.46686   1.41458   0.99263
H     4.61467  -0.78039  -0.53402
H     3.36059  -1.90690  -1.34181
H     2.39423   0.79702   1.66578
H     2.39832   1.82318   0.22639
H     3.92034   1.07559   0.78331
H     1.02308  -1.54449  -1.09478
H     0.21919   0.87863   0.62858
H    -1.38048  -1.30003  -0.93067
H    -3.68512  -1.24853  -0.90372
H    -4.35372   0.40805  -0.81329
H    -4.36041  -0.61329   0.62591
H    -1.47575   1.80035   1.26383
H    -3.01985   1.20127   1.92455
H    -3.02336   2.22259   0.48563
