46
Generated by autodE on: 2022-06-20. E = -981.518520 Ha. Imaginary frequency = -203.7 cm-1
C    -3.86653  -2.08514   1.08643
C    -3.44111  -2.30736  -0.34437
O    -3.73795  -3.34805  -0.93954
C    -2.80015  -1.24039  -1.11119
C    -0.67817  -2.40346  -1.59619
C     0.24277  -1.38087  -1.58789
C     0.19529  -0.32887  -2.66046
C     1.28563  -1.32065  -0.58184
C     2.20092  -0.32087  -0.46337
C     3.21913  -0.28823   0.56238
C     4.13115   0.69611   0.76913
C     5.12599   0.59971   1.89017
C     4.23141   1.94536  -0.05928
C    -1.41807   0.07606   0.34317
C    -1.12078  -0.95158   1.26379
N    -0.81170  -1.77683   2.03070
C    -0.74545   1.35221   0.40187
C     0.30529   1.55702   1.32445
C     1.02805   2.74791   1.31733
C     0.72366   3.75508   0.39603
C    -0.32022   3.56352  -0.51913
C    -1.05186   2.37894  -0.52125
O    -2.28646  -0.11139  -0.64677
H    -3.83302  -1.03191   1.39686
H    -3.22816  -2.66840   1.76788
H    -4.89553  -2.46335   1.18052
H    -3.12965  -1.12879  -2.14614
H    -1.28129  -2.60735  -2.48090
H    -0.65577  -3.17852  -0.82615
H     0.02437   0.67161  -2.22793
H    -0.60912  -0.53085  -3.38075
H     1.15092  -0.27372  -3.20681
H     1.30883  -2.14080   0.14230
H     2.16943   0.50768  -1.17445
H     3.23557  -1.14724   1.24375
H     5.00896   1.44740   2.58935
H     5.02312  -0.33629   2.45852
H     6.15943   0.66357   1.50456
H     5.22719   2.00992  -0.53325
H     4.14022   2.83696   0.58463
H     3.47039   2.01676  -0.84643
H     0.56026   0.77464   2.04011
H     1.84251   2.88485   2.03152
H     1.29563   4.68538   0.38991
H    -0.56635   4.34803  -1.23838
H    -1.86603   2.23805  -1.23271
