58
Generated by autodE on: 2022-06-09. E = -3978.212307 Ha
C    -2.79154  -0.40027   3.69396
N    -2.07331  -0.39321   2.43462
C    -2.46262   0.37645   1.41062
O    -3.47074   1.08145   1.43133
C    -1.59266   0.25891   0.12565
C    -2.54184  -0.54387  -0.82872
O    -3.58095  -0.06181  -1.26618
N    -2.18698  -1.82606  -1.01084
C    -2.90496  -2.67995  -1.93398
O    -0.44097  -0.51245   0.44671
C     0.72325  -0.15478  -0.32357
C     0.71968  -1.02837  -1.59393
C     1.11961  -2.36817  -1.43660
C     0.97565  -3.29217  -2.47244
C     0.43782  -2.89265  -3.69933
C     0.04602  -1.56420  -3.87099
C     0.18048  -0.64121  -2.82901
C     1.96609  -0.44857   0.50384
C     3.22079  -0.25996  -0.09617
C     4.39153  -0.48131   0.62818
C     4.32367  -0.90438   1.96131
C     3.07735  -1.09916   2.55897
C     1.90152  -0.86888   1.83434
C     0.53699   1.38383  -0.53968
F     1.06206   1.73476  -1.76860
C     1.14296   2.30678   0.54211
C     1.03958   3.76326   0.04148
C    -0.47276   4.08014   0.19197
C    -1.06761   2.75650   0.70854
C     0.07027   2.28031   1.64050
C    -1.02681   1.64761  -0.37982
Br   -1.81967   2.28159  -2.06914
H    -2.33856  -1.14814   4.35571
H    -2.74654   0.58498   4.18555
H    -3.85092  -0.65446   3.53782
H    -1.20749  -0.91197   2.33505
H    -1.27988  -2.12371  -0.67110
H    -3.96728  -2.75374  -1.65593
H    -2.84665  -2.29206  -2.96440
H    -2.45885  -3.68139  -1.90944
H     1.53038  -2.70074  -0.48254
H     1.28647  -4.32809  -2.31852
H     0.32404  -3.61245  -4.51312
H    -0.37911  -1.23546  -4.82214
H    -0.15776   0.37684  -2.99361
H     3.27842   0.07046  -1.13536
H     5.36154  -0.32567   0.15029
H     5.24027  -1.08302   2.52827
H     3.01257  -1.43246   3.59736
H     0.93493  -1.02075   2.31191
H     2.15496   2.01077   0.83215
H     1.40227   3.87453  -0.98739
H     1.65408   4.40840   0.68498
H    -0.93905   4.42098  -0.73962
H    -0.64543   4.85554   0.95199
H    -2.06022   2.86432   1.15005
H     0.27486   3.00885   2.43771
H    -0.07904   1.29836   2.09968
