41
Generated by autodE on: 2022-07-27. E = -1032.407685 Ha
C    -2.46602   2.72822   3.11659
N    -1.70258   1.90360   2.20550
C    -2.31506   0.99555   1.39038
O    -3.57132   0.97591   1.29517
C    -1.46694   0.11900   0.62956
O    -0.11877   0.18368   0.96132
C     0.84727  -0.01156   0.10855
C     0.66837   0.22560  -1.32601
C     1.24205  -0.62915  -2.28255
C     1.10657  -0.34783  -3.64246
C     0.40783   0.78955  -4.05615
C    -0.15956   1.64906  -3.10553
C    -0.04401   1.36606  -1.74776
C     2.12230  -0.34319   0.71261
C     3.33935  -0.12996   0.02535
C     4.55063  -0.42759   0.64264
C     4.57055  -0.94094   1.94491
C     3.37059  -1.15571   2.63529
C     2.15463  -0.86224   2.02821
C    -1.87527  -0.99352  -0.19864
O    -1.06262  -1.86678  -0.58299
N    -3.19623  -1.04815  -0.52814
C    -3.76781  -2.24606  -1.10168
H    -1.79593   3.46674   3.57543
H    -3.26210   3.26569   2.58058
H    -2.94369   2.14286   3.92289
H    -0.70433   1.81324   2.35640
H     1.77192  -1.52516  -1.95717
H     1.54614  -1.02151  -4.38097
H     0.30415   1.01036  -5.12094
H    -0.69426   2.54532  -3.42716
H    -0.48404   2.03570  -1.00755
H     3.33316   0.29574  -0.97772
H     5.48679  -0.25082   0.10928
H     5.52393  -1.17629   2.42335
H     3.38742  -1.56393   3.64788
H     1.21691  -1.05082   2.55150
H    -3.78671  -0.39431  -0.00864
H    -4.78663  -2.02859  -1.44940
H    -3.17075  -2.58243  -1.96165
H    -3.81985  -3.08544  -0.38360
