17
Generated by autodE on: 2022-06-09. E = -2945.722951 Ha
F     0.82141   2.12017  -0.36450
C     0.05683   1.26345   0.31309
C     0.10131  -0.07563   0.28204
Br    1.22954  -1.15005  -0.77459
C    -1.12691  -0.57024   1.03255
C    -2.35606  -0.23427   0.12838
C    -2.38992   1.32261   0.15137
C    -1.17730   1.68872   1.07279
C    -1.24686   0.53952   2.10177
H    -1.07510  -1.60752   1.38426
H    -3.27203  -0.66184   0.56230
H    -2.23684  -0.64725  -0.88334
H    -2.28802   1.77189  -0.84654
H    -3.32189   1.69847   0.59845
H    -1.16448   2.72024   1.44587
H    -0.40826   0.54462   2.81234
H    -2.20350   0.50887   2.64492
