33
Generated by autodE on: 2022-06-03. E = -1116.550937 Ha
C    -2.94280   0.46520  -1.29263
C    -1.64360   0.23980  -2.00422
O    -1.57134  -0.22328  -3.12374
C    -0.34014   0.66801  -1.25383
C    -0.15664   2.17347  -1.58764
C     0.37414   2.51853  -2.94666
O    -0.45142   3.01522  -0.76129
C    -0.46306   0.44992   0.18345
C    -0.29700  -0.09049   1.25551
C     0.18631  -1.07101   2.21444
C    -0.82570  -1.50759   3.26241
Cl    1.61995  -0.28107   3.12904
C     0.74546  -2.25170   1.38976
C     1.62134  -1.89541   0.17335
C     0.92121  -1.63120  -1.19094
C     0.87466  -0.18485  -1.72798
H    -3.77900   0.37314  -1.99744
H    -3.04831  -0.29066  -0.49735
H    -2.94838   1.44989  -0.80065
H     1.44786   2.27265  -2.98734
H     0.24322   3.59218  -3.13248
H    -0.12092   1.92526  -3.72906
H    -1.69684  -1.95335   2.75737
H    -0.38143  -2.25994   3.92954
H    -1.16577  -0.65124   3.86090
H    -0.12846  -2.83740   1.05708
H     1.30866  -2.89113   2.08686
H     2.27483  -1.04693   0.43560
H     2.29847  -2.75098   0.02852
H     1.46949  -2.20947  -1.95052
H    -0.09656  -2.05650  -1.18186
H     0.84107  -0.21073  -2.82518
H     1.79693   0.34388  -1.44158
