18
Generated by autodE on: 2022-06-03. E = -568.671776 Ha
O     3.58502  -1.05582   0.84339
C     2.70996  -0.39622   0.31517
N     2.72766   0.64365  -0.51980
N     1.41382   0.93494  -0.75061
C     0.58513   0.13927  -0.10944
C    -0.86476   0.13131  -0.10134
C    -1.53665  -0.86070   0.63729
C    -2.92980  -0.88710   0.65542
C    -3.65982   0.06908  -0.05791
C    -2.99347   1.05757  -0.79228
C    -1.60179   1.09462  -0.81769
O     1.31258  -0.72364   0.58115
H     1.15787   1.70263  -1.37012
H    -0.96231  -1.60449   1.19081
H    -3.44841  -1.65809   1.22878
H    -4.75169   0.04569  -0.04200
H    -3.56292   1.80525  -1.34790
H    -1.09477   1.87349  -1.39093
