51
Generated by autodE on: 2022-06-03. E = -1685.190863 Ha. Imaginary frequency = -466.8 cm-1
C    -6.00868   3.34419   4.74504
C    -5.49455   2.06499   4.16175
O    -5.86472   1.65249   3.07673
C    -4.43614   1.23262   4.92772
C    -4.94938  -0.23354   5.17963
C    -6.42123  -0.51045   5.12544
O    -4.13099  -1.10041   5.40208
C    -3.19321   1.08846   3.98728
C    -2.59650   2.37034   3.40610
C    -2.13305   3.43897   4.40212
C    -1.25820   2.91100   5.55094
C    -1.88198   3.01227   6.95026
C    -0.95688   2.41289   7.99938
Cl   -2.02958   4.85084   7.30094
C    -3.26040   2.44132   7.00367
C    -4.04203   1.81910   6.22675
N    -5.82411   1.66373   7.51591
N    -5.52058   2.77769   8.21924
C    -4.29754   2.58087   8.80468
C    -3.75679   3.49026   9.82957
C    -4.07274   4.85721   9.79558
C    -3.57874   5.71020  10.77976
C    -2.76246   5.20931  11.80057
C    -2.45256   3.84711  11.84048
C    -2.95172   2.98592  10.86166
O    -4.27781   1.22852   9.09199
C    -5.18499   0.64679   8.21269
O    -5.32718  -0.54953   8.13135
H    -6.65950   3.09877   5.59924
H    -6.58632   3.89071   3.98899
H    -5.18776   3.96354   5.13322
H    -6.99197   0.28134   5.62877
H    -6.73210  -0.52017   4.06889
H    -6.62815  -1.48818   5.57715
H    -3.51403   0.44860   3.15191
H    -2.44097   0.52083   4.54944
H    -3.31161   2.82756   2.70285
H    -1.73466   2.05407   2.79375
H    -1.57841   4.20714   3.84191
H    -3.00595   3.96168   4.81952
H    -1.01181   1.84766   5.39959
H    -0.29720   3.44328   5.59291
H     0.04895   2.84598   7.90234
H    -0.88951   1.32661   7.83169
H    -1.31919   2.58787   9.01732
H    -5.76236   3.66926   7.78629
H    -4.69479   5.26008   8.99517
H    -3.82716   6.77307  10.74766
H    -2.37122   5.88215  12.56704
H    -1.82310   3.44962  12.63942
H    -2.71856   1.92140  10.89652
