12
Generated by autodE on: 2022-06-16. E = -157.300302 Ha
C     1.89941   0.07214   0.49481
C     0.50190   0.43394   0.09221
C    -0.50188  -0.43395  -0.09229
C    -1.89943  -0.07213  -0.49476
H     2.63314   0.40938  -0.25882
H     2.18372   0.56541   1.44135
H     2.01815  -1.01495   0.62607
H     0.30260   1.50405  -0.05978
H    -0.30257  -1.50406   0.05967
H    -2.01794   1.01488  -0.62687
H    -2.63298  -0.40852   0.25944
H    -2.18419  -0.56616  -1.44076
