59
Generated by autodE on: 2022-06-08. E = -1451.773540 Ha
C     5.57842  -2.75936  -1.27262
N     4.78941  -1.54370  -1.24848
C     3.45479  -1.57020  -1.07671
O     2.81483  -2.62824  -0.95518
C     2.75144  -0.27255  -1.02310
C     3.14289   0.93679  -0.58790
C     1.87036   1.76493  -0.53291
O     1.09893   1.20637  -1.60493
C     1.24137  -0.16270  -1.20629
C     0.65886  -0.16917   0.24308
C     1.08288   1.25145   0.71851
C    -0.26450   2.00272   0.99366
C    -0.44132   2.17936   2.46046
N    -0.63673   2.28490   3.59915
C    -0.22015   3.43558   0.39305
O     0.27972   4.35941   1.03765
N    -0.70640   3.53120  -0.84625
C    -0.56770   4.72502  -1.65487
N    -1.29404   1.17460   0.39950
C    -2.66383   1.50448   0.75904
C    -0.88794  -0.25145   0.38705
C    -1.30022  -0.93973   1.70691
C    -0.44480  -1.01340   2.81595
C    -0.88294  -1.55132   4.03048
C    -2.18866  -2.02765   4.16143
C    -3.05355  -1.96057   3.06454
C    -2.61173  -1.42288   1.85458
C    -1.47755  -0.98778  -0.81634
C    -1.33762  -2.38274  -0.89321
C    -1.76247  -3.08246  -2.02322
C    -2.34322  -2.39802  -3.09718
C    -2.48415  -1.01043  -3.02949
C    -2.04840  -0.30970  -1.89891
H     5.47614  -3.32051  -0.33016
H     6.63333  -2.49555  -1.41417
H     5.26592  -3.42260  -2.09514
H     5.25086  -0.64901  -1.37315
H     4.11934   1.25287  -0.22047
H     1.98042   2.84954  -0.62703
H     0.77983  -0.84449  -1.92293
H     1.12867  -0.98068   0.80371
H     1.71331   1.25925   1.61306
H    -0.98385   2.65314  -1.27966
H     0.39555   4.73759  -2.19287
H    -1.38162   4.76715  -2.39078
H    -0.61808   5.61351  -1.01202
H    -3.36036   0.90296   0.16158
H    -2.88950   1.33153   1.82706
H    -2.85527   2.56337   0.53499
H     0.57961  -0.64688   2.75656
H    -0.19398  -1.59609   4.87729
H    -2.53048  -2.44990   5.10934
H    -4.07834  -2.33012   3.14943
H    -3.29863  -1.38276   1.00829
H    -0.87766  -2.92470  -0.06462
H    -1.63886  -4.16727  -2.06643
H    -2.68052  -2.94464  -3.98099
H    -2.93294  -0.46348  -3.86220
H    -2.14857   0.77470  -1.86634
