39
Generated by autodE on: 2022-07-27. E = -936.051090 Ha
C     0.30788   5.20934   1.08339
N     0.84689   3.91418   0.73042
C     0.09112   2.97573   0.09850
O    -1.09868   3.21498  -0.20721
C     0.71964   1.69253  -0.16677
C     1.86767   1.27762   0.51441
N     2.83738   0.94700   1.08914
N     0.02666   0.72313  -0.94024
C    -0.36283   1.14027  -2.29791
C    -0.17595  -0.50528  -0.48676
C    -0.16022  -0.76884   0.96559
C     0.51129  -1.88996   1.47790
C     0.47715  -2.16437   2.84769
C    -0.24129  -1.33352   3.70962
C    -0.92587  -0.22020   3.20061
C    -0.87961   0.06966   1.84091
C    -0.41615  -1.63631  -1.39644
C    -1.39997  -2.59102  -1.07142
C    -1.62399  -3.68224  -1.90898
C    -0.85152  -3.85179  -3.06329
C     0.14552  -2.92267  -3.37953
C     0.36073  -1.81775  -2.55736
H     0.10463   5.83486   0.19663
H     1.03221   5.73519   1.71852
H    -0.63602   5.10648   1.64080
H     1.83271   3.73656   0.88619
H     0.51611   1.15344  -2.95537
H    -1.12992   0.46892  -2.69698
H    -0.77114   2.15307  -2.21654
H     1.06815  -2.54038   0.80120
H     1.01143  -3.03263   3.23939
H    -0.27519  -1.55227   4.77935
H    -1.50144   0.42193   3.87097
H    -1.41251   0.93470   1.44248
H    -1.99782  -2.46264  -0.16777
H    -2.40143  -4.40689  -1.65790
H    -1.02163  -4.71316  -3.71316
H     0.76287  -3.06214  -4.26955
H     1.15261  -1.10845  -2.80009
