39
Generated by autodE on: 2022-06-08. E = -936.052849 Ha
C     4.32430   1.33152   0.57883
N     3.50327   0.41561  -0.18440
C     2.27191   0.03219   0.25713
O     1.73439   0.60242   1.22855
C     1.63430  -1.06252  -0.46174
C     2.32000  -1.84651  -1.39363
N     2.91921  -2.48625  -2.17612
N     0.29717  -1.38598  -0.15129
C     0.00348  -2.80637   0.09699
C    -0.61544  -0.43542  -0.00766
C    -0.45839   0.87847  -0.65892
C    -0.82820   2.04751   0.02724
C    -0.73163   3.29313  -0.59614
C    -0.28003   3.38287  -1.91499
C     0.07585   2.21946  -2.61084
C    -0.00111   0.97682  -1.98761
C    -1.81729  -0.66725   0.81177
C    -3.08361  -0.28327   0.33233
C    -4.21907  -0.48105   1.11674
C    -4.10121  -1.03581   2.39612
C    -2.84215  -1.39406   2.88985
C    -1.70475  -1.21573   2.10324
H     5.18364   1.63546  -0.03276
H     3.74968   2.22994   0.84636
H     4.70429   0.88403   1.51487
H     3.95050  -0.13108  -0.91256
H     0.43547  -3.12181   1.05584
H     0.47133  -3.38823  -0.70885
H    -1.07609  -2.98288   0.08409
H    -1.17762   1.97791   1.05828
H    -1.01130   4.19570  -0.04831
H    -0.20854   4.35638  -2.40545
H     0.41384   2.28355  -3.64752
H     0.27801   0.07584  -2.53537
H    -3.17277   0.15493  -0.66318
H    -5.20045  -0.19706   0.73067
H    -4.99131  -1.18116   3.01248
H    -2.74482  -1.80834   3.89571
H    -0.72019  -1.47258   2.49709
