59
Generated by autodE on: 2022-06-08. E = -1451.670531 Ha. Imaginary frequency = -298.1 cm-1
C     6.17066  -1.78993  -1.68525
N     5.12764  -0.78951  -1.58313
C     3.86845  -1.11301  -1.22792
O     3.52349  -2.28383  -0.99374
C     2.89172  -0.01399  -1.11317
C     3.03343   1.30437  -0.89764
C     1.60012   1.81773  -0.66197
O     0.86550   0.95201  -1.54614
C     1.37400  -0.27866  -0.99903
C     0.98964  -0.10293   0.47741
C     1.17734   1.24814   0.70747
C    -1.06256   1.99000   1.03959
C    -0.84092   1.87048   2.43789
N    -0.57676   1.92052   3.57533
C    -0.94846   3.37247   0.49179
O    -0.96902   3.61627  -0.72466
N    -0.73317   4.35922   1.39202
C    -0.44784   5.71267   0.96255
N    -1.67464   0.98032   0.30618
C    -2.53128   1.37874  -0.83098
C    -1.42334  -0.34824   0.55904
C    -1.56126  -0.81222   1.97858
C    -0.76338  -1.81799   2.54749
C    -1.01766  -2.28611   3.83686
C    -2.09008  -1.77539   4.57612
C    -2.91904  -0.80672   4.00444
C    -2.66031  -0.33603   2.71688
C    -1.76294  -1.36594  -0.47132
C    -2.36189  -2.58941  -0.10018
C    -2.65078  -3.57089  -1.04886
C    -2.35064  -3.36089  -2.39716
C    -1.76252  -2.15291  -2.78588
C    -1.47350  -1.17095  -1.84060
H     5.92244  -2.55235  -2.44127
H     6.32541  -2.30762  -0.72497
H     7.10715  -1.29856  -1.97555
H     5.34870   0.17947  -1.78487
H     3.94204   1.89844  -0.79880
H     1.40079   2.87322  -0.86566
H     1.00034  -1.15919  -1.52758
H     1.14525  -0.88601   1.21150
H     1.47670   1.71056   1.64547
H    -0.74845   4.15403   2.38456
H    -1.28993   6.14436   0.39806
H     0.44353   5.74884   0.31578
H    -0.26471   6.33218   1.84896
H    -1.95788   1.61875  -1.72990
H    -3.23151   0.56350  -1.03429
H    -3.10463   2.26284  -0.53388
H     0.05276  -2.25752   1.97470
H    -0.37665  -3.06045   4.26459
H    -2.28526  -2.14132   5.58680
H    -3.77362  -0.41521   4.56117
H    -3.31682   0.41632   2.27552
H    -2.61980  -2.77358   0.94156
H    -3.12000  -4.50421  -0.72916
H    -2.57418  -4.13037  -3.13963
H    -1.52008  -1.97332  -3.83584
H    -1.00663  -0.24614  -2.16795
