66
Generated by autodE on: 2022-07-01. E = -1663.708815 Ha
C     5.82854 -14.62186   2.33500
N     5.89284 -13.45422   3.19315
C     6.47992 -12.32272   2.78498
O     7.07879 -12.21797   1.71279
C     6.46116 -11.14999   3.79727
N     7.83936 -11.03665   4.24701
C     8.25290  -9.88975   3.83231
C     9.70463  -9.53636   3.94605
O    10.31036  -8.96408   3.05889
O    10.24901  -9.94055   5.08293
C    11.64928  -9.66128   5.26168
C     7.20421  -9.06172   3.18498
C     6.08298  -9.82918   3.16803
C     4.67513  -9.52980   2.67163
C     3.94405  -8.60857   3.67379
C     4.47203  -8.26657   4.92442
C     3.76703  -7.42809   5.79563
C     2.51959  -6.92007   5.43109
C     1.97729  -7.26569   4.18778
C     2.68065  -8.10451   3.32306
C     3.88035 -10.85714   2.58915
C     3.26909 -11.38996   3.73639
C     2.58839 -12.60859   3.69234
C     2.49327 -13.31797   2.49165
C     3.08835 -12.79526   1.34175
C     3.77677 -11.57961   1.39119
C     4.69893  -8.82613   1.26839
C     5.85907  -9.14954   0.30018
C     6.85442  -7.99497   0.10100
C     7.95187  -7.77860   1.14665
C     7.49000  -7.66898   2.63366
C     6.38038  -6.70621   2.75156
N     5.60968  -5.84437   2.84197
C     8.53309  -6.97500   3.56621
O     8.54788  -7.16695   4.76343
O     9.31554  -6.12816   2.92927
C    10.30296  -5.43718   3.71832
H     5.14654 -15.35372   2.78354
H     6.82196 -15.08386   2.21934
H     5.45551 -14.35309   1.33564
H     5.30818 -13.42573   4.02202
H     5.80821 -11.40004   4.64609
H    12.23810 -10.12789   4.45990
H    11.81798  -8.57461   5.26139
H    11.91753 -10.08894   6.23395
H     5.45207  -8.63599   5.22697
H     4.20352  -7.17087   6.76383
H     1.97065  -6.26218   6.10894
H     0.99886  -6.88073   3.88996
H     2.23659  -8.37490   2.36352
H     3.32882 -10.84845   4.68135
H     2.12653 -13.00175   4.60111
H     1.95925 -14.27013   2.45323
H     3.02517 -13.33817   0.39594
H     4.24819 -11.21104   0.48144
H     4.66824  -7.74453   1.43046
H     3.74342  -9.05928   0.78269
H     6.39176 -10.06426   0.59876
H     5.42027  -9.36734  -0.68581
H     6.28357  -7.05867  -0.02312
H     7.38401  -8.14875  -0.85309
H     8.49192  -6.85807   0.89207
H     8.67980  -8.60089   1.12173
H    10.82370  -4.76917   3.02394
H     9.81563  -4.86240   4.51754
H    11.00358  -6.16449   4.15198
