47
Generated by autodE on: 2022-07-01. E = -1094.719560 Ha
C     5.07355   2.08426  -1.96131
O     3.69228   2.43346  -1.75037
C     2.92389   1.52661  -1.16671
O     3.29466   0.44032  -0.78790
C     1.45345   2.00469  -1.09725
C     1.40199   3.44863  -0.82416
N     1.32056   4.58675  -0.61740
C     0.70820   1.22156  -0.11383
C     0.02826   0.29523   0.26699
C    -0.84842  -0.87945   0.26521
C    -2.27803  -0.42086   0.59776
C    -3.38627  -0.74741  -0.19205
C    -4.67153  -0.33308   0.17990
C    -4.86480   0.41153   1.34454
C    -3.76139   0.74277   2.13998
C    -2.48245   0.32991   1.76693
C    -0.38699  -1.96921   1.24501
C    -1.28746  -2.94295   1.69849
C    -0.85450  -3.97847   2.53170
C     0.48515  -4.05344   2.92479
C     1.38999  -3.08846   2.47180
C     0.95684  -2.05568   1.63579
C    -0.67936  -1.43756  -1.19204
C    -0.78186  -0.41859  -2.34676
C     0.53446   0.24708  -2.83918
C     0.77918   1.72840  -2.50252
H     5.56023   1.87261  -0.99920
H     5.53182   2.95630  -2.44024
H     5.14234   1.20424  -2.61588
H    -3.26446  -1.33122  -1.10406
H    -5.52432  -0.59731  -0.45006
H    -5.86813   0.73403   1.63256
H    -3.89862   1.32491   3.05442
H    -1.62517   0.58882   2.39346
H    -2.33650  -2.89207   1.40164
H    -1.57025  -4.72804   2.87799
H     0.82231  -4.85959   3.58066
H     2.44005  -3.13769   2.77021
H     1.67198  -1.31316   1.27451
H    -1.41884  -2.24144  -1.32148
H     0.30629  -1.92492  -1.23049
H    -1.52516   0.35802  -2.10479
H    -1.20290  -0.96803  -3.20273
H     0.53027   0.20555  -3.93920
H     1.40247  -0.35725  -2.52943
H     1.43327   2.18795  -3.25794
H    -0.17176   2.28134  -2.51098
