36
Generated by autodE on: 2022-06-19. E = -1099.441586 Ha
C     3.89533   0.61089   2.08576
N     2.73308   0.08560   1.39052
C     2.07472   0.80941   0.48922
O     2.38444   1.96195   0.16095
C     0.87575   0.14241  -0.15729
O     0.64008  -1.18025   0.34500
C    -0.41134  -1.48594  -0.53259
C    -0.79503  -2.89307  -0.45719
N    -1.10196  -4.00779  -0.41101
O     0.14949  -1.21814  -1.84736
C     1.02211  -0.18516  -1.65464
O     1.68257   0.30697  -2.51980
C    -1.48722  -0.39191  -0.22482
N    -2.32306  -0.70255   0.91147
C    -3.41535  -1.64708   0.73023
C    -1.79812  -0.53721   2.19370
C    -0.96987   0.48230   2.47094
C    -0.72458   1.48995   1.38614
C    -0.54295   0.84117  -0.01398
C    -0.83963   1.93409  -1.06954
N     0.11842   2.85011  -1.24226
O    -1.92864   1.96508  -1.64701
H     4.24174  -0.13871   2.80609
H     3.64136   1.53725   2.62254
H     4.70889   0.83423   1.37884
H     2.40979  -0.85661   1.58875
H    -2.11230  -0.24872  -1.11150
H    -3.72822  -1.64817  -0.32275
H    -3.14614  -2.68017   1.01095
H    -4.28027  -1.34511   1.34103
H    -2.10703  -1.27819   2.93749
H    -0.51866   0.60009   3.45619
H    -1.60635   2.15158   1.30212
H     0.13180   2.14295   1.59826
H     1.03319   2.74755  -0.78791
H    -0.04134   3.59759  -1.91163
