20
Generated by autodE on: 2022-06-19. E = -457.715330 Ha
C    -3.16546  -0.29184   0.04253
N    -1.81445   0.24392   0.01712
C    -1.62167   1.61569  -0.18855
C    -0.40288   2.16942  -0.28766
C     0.87484   1.37319  -0.18916
C     0.56740  -0.10192   0.01196
C     1.64509  -1.09753   0.12572
N     2.91067  -0.61803   0.02658
O     1.44218  -2.31628   0.30310
C    -0.71487  -0.55650   0.09708
H    -3.12765  -1.36093   0.28571
H    -3.66355  -0.17100  -0.93410
H    -3.77328   0.21933   0.80562
H    -2.53917   2.20249  -0.26048
H    -0.33348   3.24831  -0.44434
H     1.49021   1.52913  -1.09878
H     1.50349   1.76271   0.63806
H     3.68397  -1.27036   0.09570
H     3.11511   0.36185  -0.12226
H    -0.90727  -1.62091   0.24100
