16
Generated by autodE on: 2022-06-19. E = -641.681226 Ha
C     4.01911   0.44665   0.11299
N     2.67673  -0.08689  -0.00631
C     1.59500   0.70595   0.13624
O     1.65693   1.91977   0.36403
C     0.30631   0.02045   0.00111
O    -0.83826   0.76919   0.13108
C    -1.85850  -0.01439  -0.01479
C    -3.18784   0.46160   0.06746
N    -4.28451   0.84047   0.13244
O    -1.53617  -1.24730  -0.23640
C    -0.04206  -1.31827  -0.24232
O     0.51265  -2.37031  -0.42973
H     4.20429   1.23392  -0.63483
H     4.18998   0.88128   1.11091
H     4.73665  -0.36709  -0.04508
H     2.54864  -1.07780  -0.19210
