41
Generated by autodE on: 2022-10-21. E = -1143.730582 Ha
C     2.80395  -2.91741  -0.72752
O     2.06619  -1.81098  -0.18473
C     1.52502  -0.96938  -1.05408
O     1.65980  -1.05929  -2.25421
C     0.65204   0.10237  -0.37204
C     1.42006   0.90629   0.71595
O     1.40475   2.11837   0.75441
O     2.08668   0.16152   1.58798
C     2.72559   0.85402   2.67336
N     0.07334   0.99477  -1.36003
C     0.91774   1.92362  -2.10054
C    -1.14791   1.55671  -0.79212
C    -2.04611   2.03119  -1.85377
N    -2.75435   2.40970  -2.69105
C    -1.77376   0.40515   0.02036
C    -2.13132   0.70354   1.50428
C    -2.88929  -0.52342   1.99290
C    -1.96454  -1.48215   2.12341
C    -0.64317  -0.82274   1.75736
O    -0.85436   0.53839   2.15797
C    -0.63274  -0.64397   0.20763
O    -0.80914  -1.89837  -0.39854
C    -1.44675  -1.96363  -1.67176
H     3.17827  -3.47962   0.13528
H     2.14180  -3.54838  -1.33772
H     3.64047  -2.55693  -1.34235
H     3.47229   1.56279   2.28932
H     3.20895   0.07949   3.27915
H     1.97410   1.39322   3.26746
H     1.12064   2.85847  -1.55217
H     0.42839   2.17932  -3.05393
H     1.87401   1.44301  -2.33904
H    -0.94441   2.42750  -0.13856
H    -2.63218  -0.01504  -0.50966
H    -2.55528   1.69382   1.70203
H    -3.97266  -0.59438   2.09100
H    -2.09492  -2.53560   2.36731
H     0.27172  -1.23869   2.18393
H    -2.54378  -1.92428  -1.56794
H    -1.11512  -1.15716  -2.34002
H    -1.16983  -2.93150  -2.11196
