24
Generated by autodE on: 2022-10-26. E = -721.557585 Ha
C     1.28518  -2.98868  -1.76079
O     0.47412  -1.97520  -1.15129
C     1.09764  -1.12164  -0.32330
O     2.25734  -1.26399   0.01453
C     0.19825  -0.03791   0.13919
C     0.14311   0.29749   1.55441
O    -0.54380   1.18368   2.05537
O     0.93451  -0.49066   2.30372
C     0.96069  -0.21908   3.70849
N    -0.58449   0.62389  -0.77175
C    -0.27289   0.46227  -2.21760
C    -1.58845   1.44242  -0.46030
C    -2.29419   2.17405  -1.43288
N    -2.93150   2.80700  -2.17985
H     1.71030  -3.65404  -0.99583
H     2.10037  -2.53119  -2.34054
H     0.61744  -3.55106  -2.42360
H    -0.04081  -0.33764   4.14782
H     1.65205  -0.95137   4.14194
H     1.32263   0.80146   3.90214
H    -0.87345  -0.35560  -2.62974
H     0.79278   0.25487  -2.34393
H    -0.51328   1.39857  -2.73033
H    -1.85940   1.55893   0.58603
