17
Generated by autodE on: 2022-10-21. E = -422.092814 Ha
C     2.79300   0.12116   1.06487
O     1.70668  -0.74411   0.74210
C     0.68836  -0.17408   0.08520
C     0.44318   1.07244  -0.35453
C    -0.99520   0.96635  -0.91014
C    -1.95754   0.74305   0.28285
C    -1.69098  -0.49188   0.71876
C    -0.57741  -1.00262  -0.22531
O    -0.97232  -0.37575  -1.45781
H     3.53995  -0.48520   1.59239
H     3.23683   0.54476   0.14859
H     2.45258   0.94444   1.71462
H     1.02620   1.98505  -0.26167
H    -1.29435   1.70739  -1.66001
H    -2.64020   1.49033   0.68736
H    -2.08901  -1.03500   1.57518
H    -0.43834  -2.08537  -0.32068
