28
Generated by autodE on: 2022-06-10. E = -781.993242 Ha
C     2.52861   2.59664  -0.06922
N     2.03076   1.34128   0.45002
C     1.03133   0.67287  -0.15739
O     0.40553   1.14288  -1.13472
C     0.74982  -0.66900   0.34974
O    -0.22826  -1.38731  -0.29144
C    -1.28665  -0.98791  -0.88487
C    -2.00093  -1.96589  -1.72708
C    -1.88901   0.37403  -0.69911
O    -2.54835   0.90584  -1.56636
O    -1.76470   0.80293   0.55074
C    -2.28748   2.11009   0.83969
C     1.59515  -1.46323   1.18651
C     1.24909  -2.92440   1.36787
O     2.57625  -0.97181   1.78760
H     3.10593   2.46689  -1.00132
H     1.69469   3.28084  -0.28390
H     3.18110   3.06026   0.68166
H     2.56529   0.79787   1.13369
H    -1.97041  -1.61944  -2.77581
H    -3.06520  -2.01500  -1.44435
H    -1.53134  -2.95446  -1.65473
H    -2.07074   2.29214   1.89795
H    -1.78417   2.85791   0.21055
H    -3.37113   2.13856   0.65860
H     0.28861  -3.03262   1.89680
H     2.04165  -3.40367   1.95695
H     1.14528  -3.43406   0.39762
