26
Generated by autodE on: 2022-06-10. E = -3312.284740 Ha
C     0.41366  -3.29917  -2.99285
O     0.41245  -1.98767  -2.40174
C     0.15301  -1.91607  -1.10560
O    -0.10620  -2.86194  -0.39493
C     0.21123  -0.47620  -0.59356
Br    2.19405  -0.09140  -0.41239
C    -0.38004  -0.31126   0.71379
C    -0.98595   0.19823   1.63047
C    -1.82351   1.25494   2.20639
F    -3.13467   0.84241   2.21288
F    -1.51129   1.51236   3.51298
C    -1.67676   2.52203   1.37176
C    -1.84508   2.33587  -0.14890
C    -0.58624   1.98859  -0.99324
C    -0.43818   0.55637  -1.54003
H    -0.57068  -3.77202  -2.86933
H     0.63625  -3.14836  -4.05485
H     1.18681  -3.92363  -2.52305
H    -0.68828   2.94746   1.60398
H    -2.43719   3.21915   1.75854
H    -2.23097   3.29409  -0.52596
H    -2.64689   1.60328  -0.34019
H    -0.60513   2.63745  -1.88117
H     0.32821   2.27105  -0.44563
H     0.14742   0.56111  -2.46926
H    -1.43241   0.15035  -1.79470
