39
Generated by autodE on: 2022-10-07. E = -914.642884 Ha
C    -1.73714   2.82689   0.73909
N    -0.68979   1.85746   1.06723
C    -1.09666   0.49040   1.12931
N    -2.25352   0.24621   1.92819
N     0.05824  -0.30319   1.75198
C     0.74630  -1.13413   0.68602
C     1.20977  -2.45497   1.26608
C     1.88050  -0.36368   0.02019
C     2.76635   0.43266   0.75836
C     3.82923   1.07630   0.11993
C     4.02247   0.91765  -1.25504
C     3.15188   0.10737  -1.98927
C     2.08668  -0.53408  -1.35491
O    -0.32750  -1.38880  -0.20071
C    -1.22186  -0.30457  -0.27644
C    -0.89920   0.58418  -1.40851
N    -0.66803   1.25700  -2.32298
C    -2.66977  -0.84352  -0.49966
C    -2.88756  -2.30310  -0.29501
O    -3.52429  -0.04644  -0.82060
H    -2.42386   2.95519   1.58693
H    -1.25468   3.79379   0.54751
H    -2.33272   2.55712  -0.15036
H     0.11929   1.97599   0.45541
H    -3.09379   0.58463   1.45814
H    -2.17701   0.76896   2.80409
H     0.69684   0.33804   2.24104
H    -0.34728  -0.93639   2.45549
H     1.61877  -3.06718   0.45144
H     0.36466  -2.98170   1.73380
H     2.00229  -2.28088   2.00663
H     2.64874   0.55922   1.83746
H     4.50896   1.70091   0.70324
H     4.85338   1.42242  -1.75285
H     3.29922  -0.02589  -3.06317
H     1.40741  -1.16460  -1.92907
H    -3.95578  -2.52979  -0.39956
H    -2.30241  -2.86529  -1.04068
H    -2.51738  -2.60529   0.69578
