26
Generated by autodE on: 2022-10-07. E = -669.350888 Ha
C    -2.44051   1.59644   1.01786
C    -2.89135   0.51818   0.05679
O    -4.09419   0.35218  -0.20959
C    -1.88354  -0.30867  -0.54368
C    -2.24201  -1.37841  -1.38119
N    -2.62024  -2.26383  -2.04733
O    -0.59501  -0.05998  -0.13740
C     0.55558  -0.43295  -0.57984
C     0.65611  -1.26461  -1.79860
C     1.68440   0.05029   0.19772
C     1.46876   0.88276   1.32307
C     2.54429   1.34907   2.06817
C     3.85370   0.99221   1.71722
C     4.07982   0.16487   0.61318
C     3.00832  -0.30361  -0.14396
H    -3.32121   2.15876   1.35418
H    -1.93518   1.15264   1.89033
H    -1.72408   2.28179   0.53991
H     1.68385  -1.33214  -2.16523
H     0.28420  -2.28369  -1.60217
H     0.01991  -0.83039  -2.58668
H     0.45232   1.15835   1.60195
H     2.36531   1.99338   2.93133
H     4.69652   1.35877   2.30745
H     5.09797  -0.11797   0.33870
H     3.20687  -0.94898  -0.99878
