13
Generated by autodE on: 2022-10-07. E = -245.298490 Ha
C    -1.97671  -0.02076   0.00246
N    -0.67754  -0.53159  -0.39990
C     0.48338  -0.00252  -0.00681
N     1.63471  -0.55027  -0.40742
N     0.49894   1.06946   0.78807
H    -2.10416   1.03133  -0.29829
H    -2.12463  -0.09992   1.09161
H    -2.74915  -0.61625  -0.49682
H    -0.63900  -1.36144  -0.98328
H     2.52135  -0.14708  -0.12583
H     1.63579  -1.36778  -1.00736
H     1.38023   1.49187   1.05909
H    -0.36035   1.51907   1.08020
