39
Generated by autodE on: 2022-10-07. E = -914.628526 Ha. Imaginary frequency = -212.0 cm-1
C    -1.22035   2.90697   0.53629
N    -0.44139   1.69048   0.73964
C    -1.03422   0.54207   1.11895
N    -2.17490   0.60471   1.84478
N    -0.13708  -0.55387   1.55625
C     0.75306  -1.16867   0.46382
C     1.30845  -2.47476   1.00213
C     1.85489  -0.19808   0.05516
C     2.72627   0.34307   1.01330
C     3.74847   1.20815   0.62161
C     3.92046   1.52719  -0.72943
C     3.06959   0.97157  -1.68726
C     2.04151   0.10800  -1.29894
O    -0.13664  -1.47164  -0.58457
C    -1.29005  -0.68113  -0.69144
C    -1.28118   0.27129  -1.74828
N    -1.24340   1.10398  -2.56458
C    -2.52231  -1.34999  -0.29024
C    -3.82280  -0.76587  -0.76689
O    -2.47464  -2.28937   0.51223
H    -2.07362   2.74113  -0.13999
H    -0.55999   3.65892   0.09031
H    -1.59114   3.29255   1.49772
H     0.39934   1.59932   0.17433
H    -2.83157   1.34280   1.59971
H    -2.62494  -0.27492   2.09291
H     0.43296  -0.23717   2.35779
H    -0.73184  -1.32749   1.89899
H     1.91077  -2.93610   0.20810
H     0.48115  -3.14974   1.26526
H     1.95089  -2.29875   1.87540
H     2.61140   0.10061   2.07266
H     4.41463   1.63238   1.37574
H     4.72085   2.20522  -1.03390
H     3.20239   1.20857  -2.74503
H     1.38414  -0.32930  -2.04902
H    -4.65898  -1.25781  -0.25391
H    -3.92192  -0.90134  -1.85608
H    -3.85308   0.31810  -0.57139
