41
Generated by autodE on: 2022-05-30. E = -1122.957824 Ha
C     0.11121   3.62755   0.93988
N    -0.36025   2.42598   0.27915
C     0.49000   1.41967   0.01982
O     1.71358   1.53284   0.11800
C    -0.16429   0.13395  -0.54293
C    -0.90125   0.51404  -1.84747
C    -0.13052   1.30709  -2.86747
O    -2.04869   0.15971  -2.04119
C     0.86576  -0.98597  -0.96316
C     2.24718  -0.87983  -0.32953
O     2.48994  -1.25148   0.80148
O     3.16666  -0.46954  -1.19887
C     4.48912  -0.26555  -0.68191
N     0.25230  -2.26640  -0.56047
N    -1.08850  -2.03187  -0.15443
C    -1.12912  -0.67902   0.39455
C    -0.61021  -0.69129   1.86919
C    -0.81925  -1.94268   2.66702
O    -0.09496   0.30203   2.33854
C    -2.57659  -0.13550   0.48879
C    -3.70590  -1.11623   0.40565
O    -2.76934   1.04584   0.72575
H    -0.69738   4.36944   0.95378
H     0.42275   3.42060   1.97870
H     0.97187   4.04870   0.40204
H    -1.34008   2.15796   0.41409
H    -0.53765   2.33076  -2.87367
H    -0.29952   0.87544  -3.86435
H     0.94322   1.35910  -2.65012
H     1.00923  -0.95426  -2.05057
H     4.46973   0.51125   0.09663
H     4.88921  -1.19900  -0.26137
H     5.10004   0.06242  -1.53058
H     0.76060  -2.60742   0.25681
H    -1.67427  -2.06849  -0.98841
H    -1.85021  -2.30910   2.55851
H    -0.58624  -1.73997   3.71993
H    -0.15524  -2.73805   2.29431
H    -3.76554  -1.53440  -0.61079
H    -4.64592  -0.60275   0.64361
H    -3.53978  -1.95647   1.09549
