28
Generated by autodE on: 2022-05-30. E = -744.899240 Ha
C     3.04259  -2.65782  -0.37059
N     2.43846  -1.35245  -0.19719
C     1.11548  -1.18435  -0.24885
O     0.33423  -2.12856  -0.45788
C     0.55171   0.20346  -0.03317
C     1.45082   1.40482   0.06103
C     0.89760   2.78381  -0.17114
O     2.64868   1.26499   0.28934
C    -0.79569   0.26262   0.06408
C    -1.69762  -0.96507  -0.04502
C    -2.22767  -1.25944  -1.41862
O    -2.13206  -1.47097   0.97638
C    -1.65928   1.47268   0.34558
C    -1.87376   1.78560   1.79326
O    -2.21440   2.04184  -0.57569
H     2.68165  -3.36830   0.39020
H     4.13068  -2.55919  -0.27728
H     2.80599  -3.07707  -1.36111
H     2.99869  -0.52806   0.02110
H     0.30383   3.11280   0.69583
H     0.25159   2.81565  -1.05824
H     1.74008   3.47726  -0.28697
H    -1.44552  -1.17768  -2.18343
H    -2.68709  -2.25758  -1.43144
H    -3.00293  -0.50603  -1.64202
H    -0.90925   1.94666   2.29868
H    -2.33176   0.90041   2.26644
H    -2.52792   2.66061   1.90280
