13
Generated by autodE on: 2022-05-30. E = -378.010279 Ha
C    -2.84050   0.01633  -0.25136
O    -1.54951  -0.54439  -0.50722
C    -0.49538   0.10657   0.02719
O    -0.61420   1.12803   0.70222
C     0.75424  -0.53487  -0.28896
N     1.85971   0.03375   0.19283
N     3.06815  -0.36152   0.03783
H    -3.56101  -0.63516  -0.76040
H    -3.05185   0.03790   0.82834
H    -2.91069   1.03867  -0.65235
H     0.83815  -1.43933  -0.88806
H     1.65736   0.88667   0.74558
H     3.65717   0.31099   0.54081
