41
Generated by autodE on: 2022-05-30. E = -1122.910917 Ha. Imaginary frequency = -217.7 cm-1
C     0.42306   3.47033   1.62001
N    -0.23195   2.37327   0.93649
C     0.47263   1.42254   0.28917
O     1.69330   1.50893   0.13274
C    -0.41006   0.33990  -0.31408
C    -0.79142   0.52894  -1.74379
C     0.00663   1.49283  -2.57527
O    -1.70657  -0.13136  -2.22804
C     1.07126  -1.33599  -0.76237
C     2.48748  -0.91698  -0.67198
O     3.17952  -1.08936   0.31395
O     2.90869  -0.36480  -1.80863
C     4.22657   0.20172  -1.79250
N     0.62553  -2.10055   0.24944
N    -0.63506  -2.40064   0.40755
C    -1.32883  -0.35026   0.52362
C    -1.00626  -0.42487   1.98199
C    -2.11715  -0.67597   2.96025
O     0.16053  -0.30445   2.34670
C    -2.80433  -0.40193   0.14562
C    -3.48975  -1.69740  -0.17369
O    -3.41349   0.65568   0.20926
H    -0.34107   4.14880   2.01849
H     1.04553   3.10460   2.45375
H     1.07265   4.03043   0.93046
H    -1.23362   2.24600   1.04254
H    -0.08991   2.51186  -2.16825
H    -0.35383   1.47286  -3.61123
H     1.07320   1.22714  -2.53658
H     0.62876  -1.49928  -1.74454
H     4.27909   1.00405  -1.04232
H     4.97559  -0.56939  -1.56333
H     4.39314   0.60773  -2.79652
H     1.18851  -2.08134   1.10777
H    -1.06121  -2.41671  -0.52571
H    -2.82608   0.16684   2.93625
H    -1.70295  -0.78364   3.97048
H    -2.67894  -1.58237   2.68918
H    -3.08182  -2.11294  -1.10728
H    -4.56705  -1.52333  -0.29226
H    -3.31022  -2.43590   0.62193
