21
Generated by autodE on: 2022-05-25. E = -761.387672 Ha
C     3.63734  -0.49294   0.44017
O     2.21921  -0.51953   0.20832
C     1.54913   0.61719   0.40773
O     2.04790   1.66401   0.76632
C     0.11692   0.43159   0.13371
C    -0.88765   1.32455   0.22154
F    -0.81994   2.58308   0.57634
C    -2.16790   0.68495  -0.15271
C    -3.45561   1.41445  -0.15781
N    -2.00804  -0.55730  -0.46462
C    -0.55963  -0.85804  -0.32070
C    -0.03638  -1.30431  -1.62521
N     0.36181  -1.63813  -2.66003
C    -0.39247  -1.92938   0.67910
N    -0.27819  -2.76086   1.47687
H     3.84460  -0.22234   1.48513
H     4.11739   0.23203  -0.23221
H     3.99394  -1.50683   0.22860
H    -3.65662   1.81458   0.84948
H    -4.27769   0.75854  -0.46852
H    -3.38695   2.27771  -0.83981
