11
Generated by autodE on: 2022-05-25. E = -356.653547 Ha
C    -3.38506  -0.36401   0.05400
C    -1.95487  -0.20073   0.03400
N    -0.80209  -0.07960   0.01524
C     0.55036   0.06044  -0.00811
C     1.11671   1.29475   0.36583
N     1.59761   2.31534   0.67432
C     1.34326  -1.03367  -0.40620
N     2.01096  -1.93589  -0.73518
H    -3.77334  -0.20076   1.07138
H    -3.86018   0.33158  -0.65506
H    -3.60655  -1.39953  -0.25337
