21
Generated by autodE on: 2022-05-25. E = -761.247375 Ha. Imaginary frequency = -410.7 cm-1
C     3.22098  -0.91332   1.04473
O     2.01221  -0.16819   1.24946
C     1.64138   0.65182   0.25331
O     2.31269   0.85207  -0.74585
C     0.37083   1.26582   0.51254
C    -0.74927   1.76165   0.65883
F    -1.52036   2.73067   1.04844
C    -2.33193   0.45568  -0.07768
C    -3.65199   1.05935   0.06003
N    -1.73206  -0.50840  -0.45574
C    -0.60810  -1.17937  -0.67123
C     0.05038  -1.07388  -1.92628
N     0.61868  -0.98699  -2.93917
C    -0.15996  -2.13988   0.27673
N     0.23537  -2.91972   1.04589
H     4.08535  -0.23752   0.97133
H     3.14804  -1.51712   0.12869
H     3.32192  -1.56573   1.91955
H    -3.82793   1.29068   1.12187
H    -4.43007   0.38298  -0.32240
H    -3.66376   2.01158  -0.49280
