22
Generated by autodE on: 2022-06-05. E = -885.215161 Ha
C     2.64365   1.30500  -0.82097
C     1.91096   0.25849  -0.01953
O     2.46552  -0.35519   0.88954
C     0.50798   0.01134  -0.38852
C    -0.45034  -0.62761   0.33058
Cl   -0.32678  -1.35258   1.88892
C    -1.78846  -0.44170  -0.34507
C    -2.14915   1.06695  -0.12996
C    -1.08517   1.80688  -0.98895
C    -0.23612   0.63375  -1.57290
C    -1.33130  -0.42407  -1.81792
H     2.73134   0.97930  -1.87061
H     2.08194   2.25286  -0.82792
H     3.64552   1.46283  -0.40084
H    -2.56728  -1.15175  -0.04438
H    -3.16868   1.25244  -0.49785
H    -2.11753   1.34041   0.93414
H    -1.55463   2.37578  -1.80502
H    -0.46753   2.50230  -0.40347
H     0.39371   0.90618  -2.42721
H    -0.93024  -1.39097  -2.15490
H    -2.11923  -0.08310  -2.50602
