49
Generated by autodE on: 2022-06-05. E = -1629.865580 Ha. Imaginary frequency = -385.2 cm-1
C    -1.63863   3.90613   0.35208
C    -1.05452   2.77873   1.14384
O    -1.08745   2.71347   2.36275
C    -0.40018   1.66892   0.38383
O    -0.34421   1.81299  -0.99417
C     0.67459   1.01721  -1.47315
O     0.88261   0.89515  -2.66208
C     1.35646   0.49835  -0.29045
C     2.51359  -0.38487  -0.29273
C     3.29587  -0.50864  -1.46165
C     4.37452  -1.39033  -1.49970
C     4.69165  -2.16785  -0.38154
C     3.91681  -2.06163   0.77828
C     2.83634  -1.18314   0.82656
N     0.84564   1.18504   0.76884
C     1.53065   1.50081   2.02359
C    -0.91901  -0.95320  -0.23686
C    -0.91958  -1.30785  -1.65333
C    -0.14144  -2.54885  -2.03405
O    -1.47916  -0.63738  -2.52637
C    -0.64586  -1.99492   0.84546
C    -2.01626  -2.72847   1.02493
C    -2.90407  -1.63501   1.69052
C    -1.93164  -0.42552   1.83605
C    -0.62472  -1.17086   2.14132
C    -1.65970   0.08229   0.41577
Cl   -3.09347   0.82114  -0.36060
H    -2.30586   3.52394  -0.43342
H    -0.82047   4.44555  -0.15437
H    -2.17942   4.58572   1.02254
H     3.05166   0.09229  -2.33569
H     4.97316  -1.46855  -2.40982
H     5.53742  -2.85830  -0.41456
H     4.14954  -2.67447   1.65169
H     2.23173  -1.14274   1.73043
H     1.46798   2.58219   2.19510
H     1.09360   0.98260   2.88471
H     2.58275   1.21891   1.91697
H    -0.16092  -2.66728  -3.12528
H     0.90209  -2.46346  -1.68986
H    -0.56842  -3.44713  -1.56131
H     0.20856  -2.65657   0.66575
H    -2.42223  -3.08869   0.06938
H    -1.88556  -3.59859   1.68621
H    -3.79065  -1.37865   1.09617
H    -3.24431  -1.94608   2.68860
H    -2.25639   0.34987   2.53879
H     0.24552  -0.53108   2.25685
H    -0.70890  -1.80316   3.03708
