31
Generated by autodE on: 2022-05-30. E = -3491.044313 Ha
C    -4.50751   0.78786  -1.29806
C    -3.17783   0.19091  -1.65796
O    -3.07755  -0.82094  -2.32897
C    -1.92054   0.94652  -1.19121
C    -0.68611   0.03589  -1.08917
C     0.62397   0.69509  -1.61648
O     0.97249   1.57274  -0.53501
C     1.06492   0.56124   0.47605
C     1.99793  -0.45115  -0.18683
Br    3.05690  -1.70214   0.71059
C     1.71730  -0.35252  -1.49035
F     2.13703  -1.09489  -2.49965
C    -0.35876  -0.07591   0.42864
C    -1.49638   0.77010   1.11677
C    -2.53186  -0.17189   1.62037
N    -3.36245  -0.90918   1.95258
C    -0.99503   1.52460   2.27771
N    -0.57777   2.09471   3.19561
N    -2.10829   1.62458   0.09418
C    -1.83285   3.05771   0.12829
H    -4.73352   0.54172  -0.24761
H    -5.29069   0.36364  -1.94016
H    -4.48754   1.88477  -1.37577
H    -1.77471   1.71141  -1.97240
H    -0.87211  -0.92687  -1.57636
H     0.54689   1.22178  -2.57353
H     1.39052   0.97351   1.43619
H    -0.35243  -1.09519   0.82901
H    -2.42822   3.53703  -0.66034
H    -0.76852   3.30238  -0.03177
H    -2.16023   3.48490   1.08606
