18
Generated by autodE on: 2022-07-26. E = -510.594036 Ha
C    -1.83795  -0.85466  -1.19900
C    -0.56079  -0.48646  -1.90634
O    -0.27840  -0.95864  -3.00264
C     0.30946   0.59175  -1.38768
N     0.51031   0.94129  -0.13486
C     1.11886   2.26156   0.14308
C     0.24072   0.14289   0.96657
C     0.24069  -1.26130   0.86893
N     0.26455  -2.42856   0.81661
C     0.11391   0.72877   2.24428
N     0.00302   1.18536   3.31364
H    -2.64370  -0.82150  -1.94797
H    -1.76938  -1.88889  -0.82638
H    -2.08260  -0.19390  -0.35653
H     0.80768   1.19714  -2.14644
H     0.39093   2.86766   0.69875
H     1.35138   2.75183  -0.80704
H     2.02493   2.12344   0.74553
