13
Generated by autodE on: 2022-05-30. E = -2980.371029 Ha
F    -0.49254   2.28683   0.23699
C    -0.63438   1.09447  -0.31885
C     0.11505  -0.00375  -0.20501
Br    1.64334  -0.31109   0.82321
C    -0.69835  -1.08496  -0.95994
C    -1.97271  -1.37372  -0.12758
C    -2.71019  -0.26525  -0.23237
C    -1.87600   0.68225  -1.13058
O    -1.25844  -0.27469  -2.01246
H    -0.13196  -1.93949  -1.34471
H    -2.15461  -2.28441   0.44167
H    -3.66423  -0.01036   0.22707
H    -2.39831   1.48392  -1.66372
