31
Generated by autodE on: 2022-05-30. E = -3490.960841 Ha. Imaginary frequency = -259.9 cm-1
C    -4.72266   0.46452  -1.09213
C    -3.33612   0.12350  -1.58135
O    -3.14530  -0.80716  -2.34393
C    -2.23718   1.11441  -1.27288
C    -0.47546  -0.25547  -1.15074
C     0.72674   0.68091  -1.43583
O     0.82753   1.36475  -0.17563
C     0.93660   0.18116   0.63440
C     2.14546  -0.49803  -0.05569
Br    3.34039  -1.68218   0.75387
C     1.99835  -0.17932  -1.34526
F     2.67802  -0.58723  -2.40366
C    -0.31623  -0.58240   0.17590
C    -2.16953   1.10141   1.09891
C    -2.88415  -0.10731   1.26942
N    -3.46351  -1.10636   1.44592
C    -1.67893   1.72790   2.26798
N    -1.24650   2.20286   3.24287
N    -2.12433   1.77502  -0.10930
C    -1.57716   3.14161  -0.09968
H    -5.26856  -0.46134  -0.86372
H    -5.23388   0.96866  -1.93061
H    -4.74004   1.14128  -0.23022
H    -1.96737   1.70241  -2.15539
H    -0.95798  -0.86389  -1.91372
H     0.65892   1.36654  -2.28667
H     1.04229   0.41285   1.69928
H    -0.76085  -1.41238   0.71974
H    -1.49494   3.48847  -1.13430
H    -2.26844   3.79507   0.44990
H    -0.58869   3.15559   0.37070
