34
Generated by autodE on: 2022-05-30. E = -1136.005543 Ha
C     4.75961   0.56196   0.30303
C     3.63187  -0.25081  -0.25631
O     3.74531  -1.42924  -0.56759
C     2.30459   0.38480  -0.43149
C     1.77703   1.53421   0.05027
C     2.35504   2.54250   0.85609
N     2.79726   3.39237   1.51661
C     0.29041   1.48183  -0.32799
O     0.33989   0.77135  -1.56043
C     1.13320  -0.32451  -1.09952
C     0.26184  -0.88523   0.06436
C    -0.33383   0.43029   0.64868
C    -1.87748   0.24897   0.54430
C    -2.43594  -0.11657   1.86308
N    -2.88021  -0.42356   2.88839
C    -2.59934   1.54311   0.05380
C    -2.97174   1.60048  -1.38830
O    -2.79046   2.42006   0.86565
O    -2.10210  -0.80364  -0.38281
C    -0.99564  -1.69395  -0.39966
C    -0.89037  -2.22372  -1.77285
N    -0.81065  -2.63413  -2.85223
C    -1.24900  -2.83098   0.52003
N    -1.46022  -3.69870   1.25743
H     4.87122   1.50602  -0.25275
H     4.53965   0.82625   1.35076
H     5.68973  -0.01855   0.26122
H    -0.21873   2.44542  -0.41632
H     1.38484  -1.02438  -1.90025
H     0.85243  -1.47164   0.77419
H    -0.04350   0.62636   1.68486
H    -3.35134   2.60097  -1.62985
H    -3.74697   0.84128  -1.58381
H    -2.10998   1.33969  -2.02047
