15
Generated by autodE on: 2022-05-30. E = -583.363137 Ha
C    -2.82290  -0.76605  -0.63878
C    -2.20789   0.55621  -0.29982
O    -2.81922   1.61176  -0.23208
C    -0.74829   0.58142  -0.03215
C    -0.10511   1.80545   0.27810
N     0.37142   2.83741   0.53091
O    -0.12127  -0.55554  -0.10339
C     1.12506  -0.93935   0.05013
C     2.18401  -0.05420   0.35480
N     3.09218   0.63243   0.60318
C     1.35919  -2.32431  -0.11675
N     1.57837  -3.46083  -0.24806
H    -3.89688  -0.62792  -0.81292
H    -2.65987  -1.48195   0.18244
H    -2.34352  -1.18673  -1.53714
