46
Generated by autodE on: 2022-06-18. E = -831.574865 Ha
C    -0.89222   1.09453  -2.61113
C    -0.01219   1.39796  -1.64559
C     0.85225   2.62705  -1.72879
C     0.15440   0.55938  -0.39393
C    -1.07495  -0.26092   0.03029
C    -2.21581   0.57388   0.52165
C    -3.51247   0.45905   0.17959
C    -4.54938   1.38798   0.75371
C    -4.05470  -0.56549  -0.78060
C    -0.48590  -1.25585   1.05696
C    -1.24428  -2.57572   1.06839
C    -0.36921  -0.68602   2.47060
O     0.84740  -1.51416   0.54463
C     1.27199  -0.54176  -0.42201
C     1.43082  -1.22826  -1.77443
C     2.62720   0.03599   0.01700
O     3.32526   0.70786  -0.75574
N     2.98912  -0.22696   1.27928
C     4.22793   0.26108   1.84792
H    -1.54605   0.22136  -2.56049
H    -0.98668   1.72829  -3.49820
H     0.67946   3.18576  -2.66027
H     0.64666   3.29706  -0.87543
H     1.91721   2.35828  -1.66397
H     0.40298   1.24775   0.43021
H    -1.39386  -0.86333  -0.82932
H    -1.94494   1.36332   1.23229
H    -5.06838   1.93949  -0.05045
H    -4.11062   2.11966   1.44833
H    -5.33030   0.82179   1.29167
H    -4.82550  -1.18226  -0.28640
H    -4.55594  -0.06819  -1.62955
H    -3.28801  -1.24085  -1.18111
H    -1.25087  -3.02344   0.06327
H    -2.28575  -2.41100   1.38420
H    -0.78012  -3.28809   1.76832
H    -1.36275  -0.56219   2.92573
H     0.13687   0.28995   2.47691
H     0.21088  -1.37933   3.09938
H     0.45680  -1.57829  -2.14350
H     2.09733  -2.09714  -1.66276
H     1.86458  -0.54477  -2.51531
H     2.37823  -0.84262   1.80679
H     5.10577  -0.21637   1.38148
H     4.23927   0.04240   2.92280
H     4.32149   1.34846   1.70509
