23
Generated by autodE on: 2022-06-18. E = -351.521383 Ha
C    -3.52434  -1.22896   0.60602
C    -2.54597  -0.44284   0.10536
C    -2.86173   0.72168  -0.79816
C    -1.14903  -0.71594   0.43718
C    -0.07863  -0.00575   0.00045
C     1.28867  -0.32058   0.36147
C     2.40997   0.33346  -0.03419
C     2.41961   1.52867  -0.94441
C     3.76658  -0.11685   0.42925
H    -3.29154  -2.07380   1.26159
H    -4.57758  -1.04750   0.37445
H    -2.36816   0.60936  -1.77785
H    -3.94412   0.81387  -0.96541
H    -2.49539   1.66896  -0.36870
H    -0.97278  -1.57314   1.09813
H    -0.24634   0.85025  -0.65883
H     1.41536  -1.18291   1.02728
H     1.42024   1.84445  -1.27020
H     2.90551   2.38555  -0.44519
H     3.02363   1.31730  -1.84456
H     4.40979  -0.37156  -0.43232
H     4.28630   0.69640   0.96713
H     3.71047  -0.99247   1.09249
