23
Generated by autodE on: 2022-07-27. E = -479.942246 Ha
C     1.68032   1.03201   2.31649
N     0.78807   0.46737   1.32159
C     0.94559   0.83405  -0.00872
O     1.70413   1.80275  -0.28752
C     0.30226   0.08135  -1.03595
C     0.80058   0.06507  -2.44362
O    -0.52121  -1.00824  -0.77963
C    -1.55964  -1.06342  -0.00833
C    -2.19696  -2.39543   0.10482
C    -2.07977   0.14108   0.64587
H     2.74089   0.76598   2.15021
H     1.38173   0.66754   3.30903
H     1.61083   2.12900   2.31510
H     0.50466  -0.49191   1.49851
H     0.04892   0.41324  -3.17697
H     1.08930  -0.95851  -2.74852
H     1.68108   0.71478  -2.53474
H    -1.75265  -3.10346  -0.60740
H    -3.28332  -2.31213  -0.06360
H    -2.06688  -2.79112   1.12867
H    -1.94055   0.99593  -0.04735
H    -3.13280   0.00466   0.92405
H    -1.49478   0.41373   1.54430
