23
Generated by autodE on: 2022-06-18. E = -479.948455 Ha
C     3.24026  -1.00303  -0.29785
N     1.85026  -0.61923  -0.40004
C     1.37725   0.48670   0.26927
O     2.18729   1.30606   0.77555
C    -0.04506   0.68614   0.33024
C    -0.66588   1.81845   1.07702
O    -0.75321  -0.33875  -0.19982
C    -1.99028  -0.62562  -0.40057
C    -3.11634   0.30346  -0.10774
C    -2.23300  -1.94057  -1.05151
H     3.52523  -1.34224   0.71641
H     3.44031  -1.82315  -1.00079
H     3.89598  -0.15910  -0.55724
H     1.18040  -1.34243  -0.63390
H    -1.38486   2.40684   0.48546
H     0.14938   2.49185   1.37222
H    -1.17896   1.49608   2.00156
H    -3.08665   1.17031  -0.79193
H    -3.09826   0.69014   0.92029
H    -4.06752  -0.22076  -0.26828
H    -1.28836  -2.46365  -1.25284
H    -2.86996  -2.57770  -0.41184
H    -2.78370  -1.80506  -2.00025
