50
Generated by autodE on: 2022-06-29. E = -2417.734967 Ha. Imaginary frequency = -197.3 cm-1
C     1.56001   3.79742  -0.85965
C     1.05295   2.43098  -1.02109
N     0.45467   1.74579  -1.79808
C    -0.11375   0.62420  -2.21824
C     0.69327  -0.20380  -3.05100
N     1.35544  -0.86274  -3.74912
C    -1.57735   0.46851  -2.17579
C    -2.40018   1.54582  -1.79958
C    -3.78403   1.38680  -1.73499
C    -4.37041   0.15528  -2.04366
C    -3.55683  -0.91774  -2.42350
C    -2.17271  -0.76500  -2.49631
C     0.77484  -0.35001   0.16804
C     1.49211   0.59472   0.50775
C     2.49971   1.09377   1.43669
Cl    3.89124   1.85073   0.50518
Cl    1.75543   2.39167   2.49234
C     3.10012  -0.01888   2.30673
C     2.19479  -0.68668   3.35083
C     0.84745  -1.28874   2.92132
C     0.87849  -2.24004   1.70546
C     0.15048  -1.64185   0.47039
Cl    0.47632  -2.80259  -0.94817
C    -1.35268  -1.55701   0.70892
C    -2.12440  -2.72761   0.76395
C    -3.48434  -2.66593   1.06793
C    -4.09198  -1.43259   1.32947
C    -3.32792  -0.26566   1.28087
C    -1.96606  -0.32653   0.97082
H     1.77941   4.02269   0.19025
H     0.81989   4.50995  -1.25785
H     2.49075   3.89147  -1.44146
H    -1.95208   2.51213  -1.55985
H    -4.40924   2.23274  -1.43973
H    -5.45387   0.03067  -1.98560
H    -4.00308  -1.88673  -2.65876
H    -1.54489  -1.61399  -2.77057
H     3.48824  -0.76508   1.59659
H     3.96904   0.40669   2.82984
H     1.99950   0.03589   4.15888
H     2.81276  -1.48313   3.79828
H     0.12833  -0.47598   2.74251
H     0.44990  -1.83608   3.78961
H     0.39428  -3.19815   1.94183
H     1.91316  -2.46508   1.40853
H    -1.65948  -3.69128   0.55010
H    -4.07361  -3.58544   1.09750
H    -5.15813  -1.38320   1.56246
H    -3.79265   0.70411   1.47048
H    -1.38009   0.59140   0.92496
