52
Generated by autodE on: 2022-06-24. E = -1280.840261 Ha
C    -2.82821  -1.86321   1.51093
N    -1.43661  -2.03654   1.12645
C    -1.14161  -3.09621   0.27169
C     0.09611  -3.32654  -0.19287
C     1.24282  -2.48248   0.27955
C     0.85013  -1.02727   0.64158
C     1.74823  -0.47874   1.77621
N     3.03507  -0.86525   1.74735
O     1.31340   0.26126   2.66149
C    -0.64719  -0.82584   1.02337
C    -1.13706   0.22759  -0.06329
C    -2.35513   1.03153   0.30508
C    -2.32316   1.76321   1.50406
C    -3.41276   2.54511   1.88925
C    -4.55244   2.60867   1.08023
C    -4.58656   1.89247  -0.11857
C    -3.49375   1.11132  -0.50748
C    -1.12273  -0.58271  -1.37104
O    -2.01117  -1.06977  -2.02718
O     0.18132  -0.74216  -1.68040
C     0.94997  -0.05623  -0.60507
C     2.31686   0.28363  -1.11889
C     3.06089   1.29913  -0.49889
C     4.35229   1.59214  -0.93729
C     4.91776   0.86866  -1.99288
C     4.18176  -0.14537  -2.61026
C     2.88485  -0.43757  -2.17687
N     0.09333   1.03598  -0.21908
C    -0.02895   2.14035  -1.17210
H    -3.46911  -1.52294   0.67827
H    -3.22885  -2.81688   1.88460
H    -2.90072  -1.12241   2.31926
H    -1.98671  -3.74012   0.01450
H     0.28667  -4.16896  -0.85889
H     1.67095  -2.94961   1.18297
H     2.05703  -2.46877  -0.46167
H     3.67787  -0.45243   2.41638
H     3.42620  -1.37671   0.96487
H    -0.68901  -0.29797   1.98030
H    -1.43427   1.72807   2.13616
H    -3.37120   3.10831   2.82449
H    -5.40753   3.21816   1.38192
H    -5.46892   1.94061  -0.76108
H    -3.53313   0.55310  -1.44100
H     2.62818   1.86073   0.32991
H     4.92047   2.38764  -0.45009
H     5.93020   1.09748  -2.33363
H     4.61517  -0.71359  -3.43634
H     2.31081  -1.22405  -2.66618
H    -0.76756   2.85564  -0.78832
H     0.93269   2.65969  -1.26016
H    -0.34673   1.81996  -2.18153
