20
Generated by autodE on: 2022-06-24. E = -457.715333 Ha
C     2.95019  -0.58280   1.02472
N     1.80614  -0.05911   0.29663
C     1.96859   1.05871  -0.53147
C     0.94030   1.65229  -1.15779
C    -0.48625   1.17714  -1.03287
C    -0.56877  -0.01476  -0.09316
C    -1.85679  -0.65594   0.21685
N    -2.94905  -0.12126  -0.38538
O    -1.97281  -1.63159   0.98610
C     0.54509  -0.53619   0.49421
H     3.30670   0.13205   1.78573
H     3.78194  -0.79729   0.33607
H     2.66464  -1.51525   1.52748
H     2.99705   1.41036  -0.63135
H     1.14767   2.51691  -1.79245
H    -0.89101   0.92120  -2.03389
H    -1.13315   2.00538  -0.67834
H    -3.85516  -0.54000  -0.20685
H    -2.89414   0.65808  -1.02861
H     0.45773  -1.39142   1.16625
