32
Generated by autodE on: 2022-06-24. E = -823.117424 Ha
C    -0.03871   0.99447   1.63916
N     0.04727   0.27058   0.37143
C     1.18006  -0.07928  -0.23139
C     2.55860   0.26715   0.06624
C     3.57051  -0.64847  -0.29440
C     4.90787  -0.34944  -0.04700
C     5.25972   0.86321   0.55689
C     4.26372   1.78208   0.90216
C     2.92129   1.49516   0.65738
O     0.90778  -0.91103  -1.23818
C    -0.50549  -1.13462  -1.30705
O    -0.95060  -1.88355  -2.17308
C    -1.04032  -0.34373  -0.27394
C    -2.45217  -0.15469   0.03137
C    -3.35677  -1.20690  -0.24004
C    -4.72231  -1.05853  -0.00197
C    -5.22685   0.13736   0.52115
C    -4.34528   1.18927   0.78873
C    -2.97844   1.05329   0.54077
H    -0.89586   0.60722   2.20003
H     0.87407   0.81638   2.21760
H    -0.16725   2.07144   1.47245
H     3.29626  -1.59619  -0.75963
H     5.68158  -1.06901  -0.32338
H     6.30939   1.09443   0.75111
H     4.53334   2.73812   1.35606
H     2.16438   2.24118   0.89639
H    -2.97459  -2.14632  -0.64051
H    -5.39826  -1.88946  -0.21899
H    -6.29641   0.25008   0.71258
H    -4.72535   2.13519   1.18254
H    -2.32382   1.90579   0.72096
