52
Generated by autodE on: 2022-06-24. E = -1280.805569 Ha. Imaginary frequency = -273.1 cm-1
C    -2.78922  -2.10319   1.33919
N    -1.37265  -2.18312   1.00667
C    -0.89597  -3.30077   0.30936
C     0.39400  -3.42047  -0.03260
C     1.41500  -2.38530   0.35029
C     0.79810  -1.02542   0.72629
C     1.57740  -0.19052   1.71926
N     2.83348  -0.58262   2.00722
O     1.08522   0.82288   2.23460
C    -0.61259  -1.05712   1.09702
C    -1.28080   0.60264  -0.53324
C    -2.44653   1.28715   0.01188
C    -2.33332   2.08442   1.17198
C    -3.45549   2.70588   1.72070
C    -4.71475   2.54164   1.13381
C    -4.84042   1.74593  -0.01120
C    -3.72242   1.12704  -0.56932
C    -1.26718  -0.55506  -1.37289
O    -2.13651  -1.30993  -1.79672
O     0.07524  -0.80695  -1.65525
C     0.83959   0.02374  -0.81205
C     2.23182   0.22229  -1.30770
C     3.13202   1.07387  -0.64389
C     4.43997   1.21938  -1.10950
C     4.87336   0.51218  -2.23457
C     3.98665  -0.34272  -2.89499
C     2.67595  -0.48705  -2.43621
N     0.01802   1.12011  -0.54502
C     0.38760   2.51568  -0.40597
H    -3.38684  -1.80275   0.46585
H    -3.14146  -3.08085   1.69559
H    -2.93472  -1.36234   2.13667
H    -1.64655  -4.06039   0.08822
H     0.73012  -4.32087  -0.54982
H     1.99101  -2.78159   1.20651
H     2.15207  -2.25632  -0.45944
H     3.39965   0.02658   2.59001
H     3.30194  -1.32024   1.49597
H    -0.98145  -0.30507   1.78968
H    -1.36335   2.19433   1.65811
H    -3.34625   3.31609   2.62062
H    -5.59239   3.02684   1.56704
H    -5.81928   1.61028  -0.47780
H    -3.82800   0.50784  -1.46018
H     2.82296   1.62680   0.24085
H     5.12494   1.88867  -0.58423
H     5.89854   0.62660  -2.59416
H     4.31386  -0.90118  -3.77496
H     1.98788  -1.15215  -2.95687
H    -0.49319   3.13034  -0.62969
H     0.74767   2.76548   0.60166
H     1.16725   2.76945  -1.13695
