41
Generated by autodE on: 2022-10-21. E = -1491.219067 Ha
C     4.04757  -0.85092   0.67412
N     2.80320  -0.60873  -0.02583
C     1.97054   0.38086   0.31476
O     2.21068   1.22877   1.17811
C     0.59941   0.35697  -0.39149
C     0.25745   1.74922  -0.96239
O    -0.84749   2.07772  -1.33893
O     1.34645   2.48223  -1.18338
C     1.16617   3.71134  -1.90457
N     0.53131  -0.59890  -1.50532
C     1.14984  -0.20839  -2.76545
C    -0.84840  -1.04945  -1.65491
C    -1.42133  -1.13707  -0.23760
O    -2.80119  -0.93357  -0.12042
C    -3.43339   0.10408  -0.86036
C    -1.11512  -2.51255   0.45294
C    -1.78476  -2.48142   1.81712
C    -1.02137  -1.67330   2.56114
C     0.11336  -1.23538   1.64595
O     0.26979  -2.37057   0.79184
C    -0.46648  -0.18959   0.62119
Cl   -1.28965   1.12441   1.52950
H     4.69765  -1.48072   0.05333
H     4.55682   0.10172   0.87430
H     3.87869  -1.36023   1.63858
H     2.41308  -1.31902  -0.64133
H     2.16334   4.15734  -1.99061
H     0.74874   3.51035  -2.90151
H     0.49315   4.38248  -1.35260
H     1.19143  -1.08621  -3.42717
H     2.17535   0.14525  -2.59976
H     0.58424   0.58380  -3.29634
H    -0.87527  -2.02168  -2.17041
H    -1.43599  -0.33731  -2.26120
H    -2.84559   1.03038  -0.86227
H    -4.39817   0.28912  -0.36656
H    -3.62934  -0.20402  -1.90193
H    -1.28676  -3.38082  -0.19222
H    -2.73337  -2.95314   2.06943
H    -1.18166  -1.31475   3.57654
H     1.05116  -0.94468   2.12738
