35
Generated by autodE on: 2022-06-17. E = -840.783413 Ha
C     3.25015   2.36332   0.65475
O     2.30619   1.28103   0.55266
C     1.28004   1.45908  -0.26511
O     1.09115   2.44121  -0.94671
C     0.30673   0.30229  -0.20746
O    -0.36426   0.20546  -1.51659
C    -0.86164  -1.05056  -1.52608
O    -1.53272  -1.50898  -2.40913
N    -0.45431  -1.70491  -0.29649
N     0.80765  -1.03624  -0.00927
C     1.89139  -1.49368  -0.87325
C    -1.33625  -1.11663   0.80993
C    -2.81335  -1.25993   0.45348
C    -1.06318  -1.92880   2.07254
C    -0.81419   0.40496   0.88073
C    -0.21047   0.78298   2.23824
C    -1.85821   1.46338   0.51343
H     4.00520   2.03322   1.37614
H     3.71061   2.55668  -0.32390
H     2.74370   3.27008   1.01381
H     2.04448  -2.56624  -0.69730
H     2.80782  -0.95950  -0.59275
H     1.70361  -1.33249  -1.95066
H    -3.11221  -0.71042  -0.44674
H    -3.42078  -0.88552   1.28892
H    -3.05705  -2.32183   0.30204
H     0.00155  -1.94950   2.32929
H    -1.40476  -2.96256   1.91700
H    -1.61948  -1.51038   2.92244
H    -0.97478   0.69492   3.02279
H     0.64340   0.15343   2.51326
H     0.12595   1.83066   2.22473
H    -1.38654   2.45740   0.49304
H    -2.32458   1.29374  -0.46371
H    -2.65151   1.48414   1.27417
