18
Generated by autodE on: 2022-06-17. E = -235.968070 Ha
C    -1.02508  -0.14042  -1.67798
C    -0.63464   0.04633  -0.23145
C    -1.83269   0.34883   0.63617
C     0.63469  -0.04619   0.23143
C     1.02509   0.14033   1.67803
C     1.83266  -0.34880  -0.63619
H    -1.53001   0.76548  -2.05896
H    -0.18635  -0.36317  -2.34837
H    -1.76049  -0.95941  -1.77416
H    -1.59678   0.49873   1.69643
H    -2.34947   1.25571   0.27400
H    -2.57268  -0.46880   0.56736
H     0.18634   0.36331   2.34829
H     1.52964  -0.76581   2.05894
H     1.76077   0.95904   1.77433
H     2.57369   0.46773  -0.56584
H     1.59693  -0.49676  -1.69677
H     2.34815  -1.25695  -0.27532
