36
Generated by autodE on: 2022-06-17. E = -709.454142 Ha
C    -1.28773   2.59620  -1.12706
C    -0.69355   1.80582  -0.22200
C    -0.27105   2.30176   1.13380
C    -0.43692   0.35242  -0.56043
C     0.77365  -0.33550   0.09181
C     2.07552   0.11667  -0.49331
C     3.18181   0.49752   0.17173
C     3.30553   0.53956   1.67078
C     4.42026   0.92362  -0.57106
C     0.45539  -1.82021  -0.13575
C     1.27464  -2.77381   0.71268
N    -0.97876  -1.88511   0.19599
C    -1.62639  -0.63599  -0.20242
C    -2.47053  -0.13192   0.90800
N    -3.12113   0.22694   1.79794
C    -2.49984  -0.78170  -1.38488
N    -3.16058  -0.93155  -2.32663
H    -1.51369   3.64362  -0.90643
H    -1.56761   2.21879  -2.11536
H     0.82678   2.27318   1.23274
H    -0.67540   1.67411   1.94358
H    -0.60546   3.33618   1.29661
H    -0.31761   0.26573  -1.64963
H     0.74541  -0.16086   1.17603
H     2.10937   0.11859  -1.59014
H     4.13887  -0.10490   2.00084
H     3.55432   1.56134   2.00675
H     2.39857   0.21520   2.19634
H     5.27916   0.28463  -0.30005
H     4.70454   1.95479  -0.29606
H     4.28475   0.88004  -1.66184
H     0.62653  -2.05046  -1.20541
H     0.98213  -3.81967   0.52888
H     2.34314  -2.67328   0.46704
H     1.13995  -2.55760   1.78421
H    -1.44893  -2.70212  -0.18816
