23
Generated by autodE on: 2022-06-17. E = -351.521384 Ha
C    -3.25896  -1.89376   0.30060
C    -2.41067  -0.84693   0.40199
C    -2.86250   0.47587   0.96595
C    -1.02438  -0.98575  -0.03947
C    -0.07615  -0.01676   0.01282
C     1.28696  -0.21021  -0.43812
C     2.29298   0.70036  -0.41619
C     2.15515   2.10659   0.09453
C     3.66198   0.34547  -0.92395
H    -4.30088  -1.81795   0.62395
H    -2.92772  -2.85311  -0.10881
H    -3.92160   0.44328   1.25805
H    -2.73072   1.28714   0.23080
H    -2.26737   0.75463   1.85143
H    -0.74673  -1.96682  -0.44339
H    -0.34502   0.96411   0.41423
H     1.51611  -1.20576  -0.83725
H     2.87902   2.28994   0.90813
H     1.15165   2.34457   0.46993
H     2.40374   2.82835  -0.70364
H     3.71494  -0.69101  -1.28821
H     3.96170   1.02039  -1.74585
H     4.41998   0.47633  -0.13078
