13
Generated by autodE on: 2022-06-17. E = -357.898946 Ha
C    -3.15291   0.22867  -0.68627
C    -1.76073   0.56151  -0.31890
N    -0.82244  -0.33029  -0.24715
C     0.53034  -0.17305   0.09349
C     1.02214   1.09500   0.43174
N     1.41908   2.16114   0.71192
C     1.36042  -1.30245   0.08524
N     2.06479  -2.23928   0.08157
H    -3.83294   0.52156   0.13217
H    -3.45535   0.81635  -1.56981
H    -3.28203  -0.84238  -0.89982
H    -1.48416   1.59518  -0.08960
H    -1.08882  -1.29694  -0.46186
