39
Generated by autodE on: 2022-06-20. E = -1027.342127 Ha
C    -0.29189   1.52807   2.81104
N     0.04551   0.49634   1.84752
C     0.20766  -0.81820   2.23031
C     0.79242  -1.76459   1.46532
C     1.33008  -1.46507   0.09685
C     1.54105   0.05103  -0.13066
C     2.91791   0.52207   0.34997
N     3.24487   0.17602   1.60452
O     3.65774   1.18780  -0.38013
C     1.32335   0.46009  -1.59674
C     1.90164  -0.46864  -2.57077
N     2.37453  -1.19257  -3.34269
O    -0.09039   0.50656  -1.79071
C    -0.74848   0.82197  -0.56902
C    -1.34440   2.16656  -0.71240
N    -1.80144   3.22692  -0.82587
C    -1.84265  -0.19145  -0.26143
C    -1.95809  -1.36697  -1.01034
C    -2.93344  -2.31276  -0.68147
C    -3.79864  -2.08776   0.39241
C    -3.69615  -0.90313   1.12934
C    -2.72636   0.04554   0.80113
C     0.41310   0.89332   0.53207
H    -0.93829   2.28803   2.34736
H    -0.84124   1.07942   3.65017
H     0.60626   2.03438   3.21047
H    -0.16842  -1.04888   3.22989
H     0.85712  -2.78555   1.84377
H     0.64635  -1.85097  -0.67722
H     2.28646  -1.98520  -0.07232
H     4.16408   0.42585   1.95792
H     2.65201  -0.44243   2.15345
H     1.77386   1.44936  -1.77362
H    -1.28404  -1.54058  -1.84856
H    -3.01515  -3.22945  -1.26996
H    -4.55792  -2.82968   0.65032
H    -4.37626  -0.71421   1.96294
H    -2.66252   0.97189   1.37402
H     0.75066   1.93804   0.56053
