20
Generated by autodE on: 2022-06-20. E = -457.715320 Ha
C    -3.09190   0.72797  -0.02468
N    -1.82353   0.03145  -0.16472
C    -1.76748  -1.15736  -0.90287
C    -0.61649  -1.80014  -1.15616
C     0.72608  -1.30806  -0.67444
C     0.57099   0.00077   0.08302
C     1.73685   0.70621   0.63997
N     2.94277   0.11703   0.44101
O     1.65519   1.78601   1.26023
C    -0.65227   0.56906   0.27861
H    -3.86708   0.04415   0.35371
H    -3.43565   1.14219  -0.98789
H    -2.97729   1.55287   0.68976
H    -2.73268  -1.52543  -1.25541
H    -0.65480  -2.72620  -1.73432
H     1.20873  -2.07884  -0.03862
H     1.41713  -1.18828  -1.53365
H     3.04992  -0.76458  -0.04410
H     3.77037   0.56891   0.81426
H    -0.73451   1.51057   0.82395
