14
Generated by autodE on: 2022-06-02. E = -2882.112564 Ha
Br    2.81435  -0.15777   0.19703
C     1.02477  -0.05915   0.07300
C    -0.18714   0.00866  -0.01189
C    -1.61200   0.08947  -0.11207
C    -2.35702  -1.00862  -0.59038
C    -3.74561  -0.92395  -0.68676
C    -4.40885   0.24911  -0.31027
C    -3.67659   1.34243   0.16531
C    -2.28768   1.26862   0.26576
H    -1.83664  -1.92240  -0.88337
H    -4.31428  -1.77936  -1.05846
H    -5.49672   0.31136  -0.38761
H    -4.19147   2.25971   0.45997
H    -1.71369   2.11999   0.63630
