25
Generated by autodE on: 2022-06-02. E = -780.607353 Ha
C     5.24687   0.35269  -0.25969
O     3.93076  -0.04477   0.15860
C     2.91085   0.50930  -0.49356
O     3.00233   1.31527  -1.40443
C     1.62293   0.04342   0.00183
N     0.44742   0.43013  -0.47113
C    -0.58115  -0.17828   0.19588
C    -1.99097   0.02221  -0.08435
C    -2.96787  -0.63754   0.69281
C    -4.32457  -0.44911   0.43114
C    -4.73949   0.39537  -0.60384
C    -3.77852   1.05230  -1.38068
C    -2.41999   0.86983  -1.12818
C     0.03211  -1.01923   1.17664
O    -0.37045  -1.78089   2.03912
O     1.43485  -0.82765   0.99270
H     5.38170   1.43467  -0.11846
H     5.40484   0.09697  -1.31719
H     5.94396  -0.20456   0.37584
H     0.36172   1.10242  -1.23548
H    -2.65194  -1.29635   1.50122
H    -5.06540  -0.96812   1.04403
H    -5.80320   0.54076  -0.80484
H    -4.08884   1.71339  -2.19320
H    -1.69177   1.39201  -1.75256
