39
Generated by autodE on: 2022-06-02. E = -3662.705926 Ha. Imaginary frequency = -359.3 cm-1
C    -3.55037   2.56334   1.78389
O    -2.25963   2.21898   1.24898
C    -2.20043   1.98399  -0.05914
O    -3.12525   2.08016  -0.83818
C    -0.87596   1.46316  -0.43562
N     0.28813   1.70570   0.22353
C     1.27961   1.07793  -0.48113
C     2.66504   0.95834  -0.04611
C     3.03157   1.26677   1.27872
C     4.35050   1.11122   1.69885
C     5.32358   0.63983   0.80940
C     4.96681   0.32700  -0.50495
C     3.64857   0.48255  -0.93499
C     0.76479   0.96349  -1.84954
O     1.26755   0.65464  -2.90548
O    -0.58572   1.31720  -1.76043
C     0.24192  -0.95499  -0.21635
Br    1.47438  -2.31275  -0.37462
C    -0.95953  -0.67630   0.03701
C    -2.30574  -0.93839   0.48057
C    -2.59448  -1.00104   1.85902
C    -3.90528  -1.19673   2.29386
C    -4.94527  -1.32853   1.36680
C    -4.66599  -1.26337  -0.00254
C    -3.35895  -1.06301  -0.44739
H    -3.90047   3.51051   1.35045
H    -4.27179   1.76327   1.56695
H    -3.40734   2.66658   2.86486
H     0.29334   1.80958   1.23726
H     2.28676   1.62814   1.98995
H     4.62081   1.35673   2.72818
H     6.35650   0.51659   1.14271
H     5.72007  -0.04287  -1.20416
H     3.37374   0.23812  -1.95964
H    -1.78338  -0.88612   2.58045
H    -4.11701  -1.24298   3.36470
H    -5.97107  -1.47894   1.71079
H    -5.47391  -1.36273  -0.73128
H    -3.14176  -0.99092  -1.51459
