60
Generated by autodE on: 2022-06-08. E = -1550.550727 Ha
C    -8.51057   0.08792  -0.39088
N    -7.56518   0.98232   0.24769
C    -7.33119   0.92290   1.56298
O    -7.88774   0.08543   2.28811
C    -6.24496   1.92030   2.07805
C    -6.25265   2.18262   3.60858
O    -5.70644   3.20674   4.04384
N    -6.79044   1.25563   4.40246
C    -6.80765   1.40846   5.84312
C    -4.91349   1.17047   1.76928
C    -3.60364   1.79503   2.24392
C    -3.24391   3.12687   1.57931
C    -3.47983   3.09283   0.06453
C    -4.71239   3.86455  -0.44904
F    -4.25134   5.17220  -0.67379
C    -5.12732   3.23300  -1.79749
C    -4.36965   3.65915  -3.01537
O    -5.93088   2.31400  -1.79976
C    -5.92411   4.00183   0.44865
C    -6.49611   3.26189   1.41951
C    -7.75040   4.03929   1.87346
C    -9.03127   3.44738   1.28606
O    -9.79509   2.74694   1.91797
O    -9.20383   3.77589   0.00934
C   -10.38744   3.29694  -0.64828
N    -7.51217   5.40916   1.41304
C    -6.81070   6.22243   2.41058
N    -6.68586   5.21122   0.27237
C    -7.09215   5.71356  -0.94047
C    -8.09152   6.83624  -0.89847
O    -6.64233   5.27368  -1.99749
H    -8.63001   0.39367  -1.43741
H    -8.16299  -0.95804  -0.36216
H    -9.48715   0.13549   0.11362
H    -7.02180   1.61892  -0.34316
H    -7.30826   0.50864   3.92938
H    -5.78702   1.51770   6.24100
H    -7.26750   0.51833   6.28977
H    -7.38429   2.29684   6.14938
H    -4.87700   0.99077   0.68669
H    -5.01748   0.17927   2.23501
H    -3.59954   1.90698   3.33803
H    -2.81394   1.06248   2.00470
H    -2.18275   3.34144   1.77600
H    -3.81233   3.95120   2.03440
H    -3.51823   2.05551  -0.29508
H    -2.64400   3.56040  -0.47375
H    -4.85687   3.25779  -3.91322
H    -3.34899   3.24495  -2.94423
H    -4.28212   4.75034  -3.06832
H    -7.87498   4.02791   2.96049
H   -11.28432   3.68767  -0.14721
H   -10.32985   3.67442  -1.67527
H   -10.41108   2.19939  -0.64619
H    -5.86102   5.76770   2.74411
H    -6.60781   7.21245   1.98051
H    -7.46905   6.34749   3.28124
H    -8.13427   7.29665  -1.89357
H    -9.08188   6.43067  -0.64322
H    -7.83197   7.58870  -0.14165
