23
Generated by autodE on: 2022-06-18. E = -351.521382 Ha
C     3.71084  -0.62851   0.36508
C     2.58630   0.02988   0.00767
C     2.64816   1.35706  -0.70430
C     1.27696  -0.54551   0.30885
C     0.07828   0.01029   0.00047
C    -1.19294  -0.60632   0.32093
C    -2.42980  -0.12155   0.04379
C    -3.66140  -0.88477   0.44199
C    -2.69465   1.17659  -0.66469
H     3.66257  -1.59205   0.88176
H     4.70314  -0.22154   0.15152
H     2.14323   1.30637  -1.68331
H     2.13390   2.14270  -0.12613
H     3.68805   1.67315  -0.86795
H     1.28662  -1.51101   0.82892
H     0.06017   0.97241  -0.51860
H    -1.13342  -1.56885   0.84334
H    -4.27932  -1.12007  -0.44328
H    -3.41923  -1.82586   0.95721
H    -4.30101  -0.27665   1.10676
H    -3.28071   0.99686  -1.58340
H    -3.31362   1.83732  -0.03231
H    -1.78431   1.72345  -0.94188
