18
Generated by autodE on: 2022-06-18. E = -489.757822 Ha
C     3.13032  -0.75734  -0.61727
N     1.68961  -0.77129  -0.47805
C     1.02926   0.29532   0.00389
O     1.60203   1.34367   0.35316
C    -0.44608   0.21315   0.12620
C    -1.08406   1.36736   0.63612
N    -1.60386   2.32424   1.05571
N    -1.21893  -0.85901  -0.20283
C    -2.68467  -0.73671   0.01850
N    -0.72744  -1.93846  -0.68133
H     3.62619  -0.58122   0.35096
H     3.45754  -1.72808  -1.00940
H     3.46120   0.03384  -1.30959
H     1.12702  -1.58396  -0.73785
H    -3.07017   0.09224  -0.58715
H    -2.86952  -0.54258   1.08191
H    -3.15376  -1.67857  -0.28234
H    -1.49427  -2.59538  -0.84836
