57
Generated by autodE on: 2022-06-22. E = -1100.810229 Ha
C     3.24740  -1.03504   4.32557
C     3.22532  -0.88140   2.98586
C     4.47988  -0.96617   2.15679
C     1.95236  -0.63145   2.30145
C     1.80340  -0.46239   0.97408
C     0.48069  -0.19077   0.33798
C    -0.11331  -1.25302  -0.66843
C    -0.69177  -2.40563   0.20722
C     0.21793  -3.49306   0.70444
O    -1.87277  -2.39793   0.50634
C     0.95211  -1.84143  -1.63368
C     0.60488  -1.94523  -3.09408
O     2.02055  -2.25512  -1.21452
N    -1.13197  -0.47795  -1.32254
C    -2.19672  -1.04238  -2.11096
C    -1.02084   0.97712  -1.17744
C    -1.06296   1.66096  -2.55692
C    -2.15965   1.54557  -0.30145
C    -2.82854   0.73379   0.62651
C    -3.82863   1.25259   1.45578
C    -4.18799   2.60001   1.37234
C    -3.53907   3.41924   0.44332
C    -2.54238   2.89594  -0.38459
C     0.38493   1.14097  -0.46336
C     0.46932   2.33188   0.49464
C     1.53188   1.27660  -1.47746
H     4.18016  -1.22636   4.86358
H     2.32875  -0.97349   4.91713
H     4.65490  -0.02717   1.60570
H     5.35978  -1.16928   2.78335
H     4.39901  -1.76356   1.39942
H     1.06318  -0.59327   2.94192
H     2.67843  -0.50158   0.32682
H    -0.26490  -0.12470   1.14339
H     1.14033  -3.07924   1.13347
H    -0.32164  -4.09148   1.44990
H     0.51485  -4.14139  -0.13506
H     0.24476  -0.99082  -3.49803
H     1.48459  -2.29356  -3.65030
H    -0.21296  -2.67410  -3.21369
H    -3.18481  -0.67001  -1.78255
H    -2.10421  -0.82077  -3.19069
H    -2.21414  -2.13386  -2.00498
H    -2.08242   1.64140  -2.96842
H    -0.74923   2.71144  -2.49708
H    -0.39913   1.15094  -3.26555
H    -2.56726  -0.32137   0.68814
H    -4.33193   0.59445   2.16904
H    -4.96896   3.00742   2.01910
H    -3.81006   4.47489   0.35975
H    -2.05123   3.56245  -1.09371
H     0.27986   3.27803  -0.03440
H    -0.24951   2.25236   1.32144
H     1.47944   2.38636   0.92886
H     1.53629   0.49112  -2.24389
H     1.47288   2.24185  -1.99920
H     2.50113   1.24771  -0.96030
