23
Generated by autodE on: 2022-06-22. E = -351.521382 Ha
C    -3.59287   1.16471   0.18173
C    -2.56736   0.30936  -0.02452
C    -2.80863  -1.11017  -0.47048
C    -1.19137   0.75638   0.18278
C    -0.07890   0.00077   0.00333
C     1.26527   0.49530   0.22093
C     2.42494  -0.18967   0.05451
C     3.75041   0.46503   0.32346
C     2.50880  -1.61957  -0.39883
H    -4.63176   0.85729   0.03314
H    -3.41411   2.19489   0.50494
H    -3.88229  -1.31321  -0.58920
H    -2.39811  -1.83049   0.25656
H    -2.30896  -1.31498  -1.43193
H    -1.06987   1.79617   0.50964
H    -0.19248  -1.03659  -0.32286
H     1.33749   1.53742   0.55512
H     4.38509   0.45084  -0.58088
H     3.64001   1.50808   0.65459
H     4.31085  -0.08968   1.09746
H     3.11454  -1.69288  -1.31933
H     1.53175  -2.07929  -0.59539
H     3.03015  -2.23057   0.35921
