40
Generated by autodE on: 2022-06-18. E = -1010.537520 Ha
C     2.89208  -2.72973   1.41633
N     1.93003  -1.91295   0.70230
C     1.70133  -0.64125   1.04293
O     2.29675  -0.05177   1.94604
C     0.60900   0.07883   0.21386
C     1.28532   1.20441  -0.60190
O     1.21437   1.26721  -1.81028
O     1.95558   2.06120   0.14990
C     2.60381   3.15321  -0.52555
O     0.08017  -0.84096  -0.73922
C    -1.32233  -0.71624  -0.88993
C    -1.92948  -2.02502  -0.54503
N    -2.37472  -3.06556  -0.29743
C    -1.61447  -0.47853  -2.32167
N    -1.82745  -0.31496  -3.44843
C    -1.80514   0.46981   0.04985
C    -3.18083   0.18646   0.66102
C    -1.92987   1.77519  -0.75380
C    -0.62358   0.50136   1.10171
C    -0.83353  -0.55359   2.20514
C    -0.47038   1.86296   1.78133
H     3.03523  -3.66951   0.86976
H     3.85769  -2.20886   1.49405
H     2.54592  -2.96070   2.43708
H     1.35534  -2.31953  -0.02885
H     3.33391   2.77149  -1.25249
H     3.10733   3.73096   0.25724
H     1.85744   3.77420  -1.04082
H    -3.93884   0.15709  -0.13599
H    -3.23215  -0.75819   1.21377
H    -3.44566   1.00269   1.34844
H    -2.21677   2.58987  -0.07728
H    -1.01081   2.06391  -1.27602
H    -2.72815   1.67700  -1.50247
H    -1.73236  -0.31328   2.78652
H    -0.94193  -1.57408   1.81322
H     0.01591  -0.54415   2.89929
H    -1.38653   2.08743   2.34783
H     0.36999   1.82857   2.48788
H    -0.28874   2.68339   1.07909
