18
Generated by autodE on: 2022-06-18. E = -235.968070 Ha
C     1.45867   1.27098  -0.37749
C     0.61837   0.16755   0.21919
C     1.32559  -0.51715   1.36397
C    -0.61829  -0.16770  -0.21927
C    -1.32516   0.51659  -1.36453
C    -1.45916  -1.27034   0.37809
H     1.71766   2.01636   0.39584
H     0.98213   1.80337  -1.20930
H     2.42029   0.86694  -0.74206
H     2.28966  -0.93621   1.02375
H     1.57553   0.21434   2.15340
H     0.75296  -1.32865   1.82856
H    -2.28592   0.94244  -1.02330
H    -0.74923   1.32283  -1.83419
H    -1.58143  -0.21673  -2.15018
H    -0.98523  -1.79881   1.21390
H    -1.71421  -2.01904  -0.39334
H    -2.42267  -0.86616   0.73743
