29
Generated by autodE on: 2022-10-23. E = -8594.996801 Ha
C     4.48994  -0.66783  -0.80731
O     3.06932  -0.52102  -0.99106
C     2.51292   0.57930  -0.52425
O     3.09452   1.48659   0.02124
C     1.00745   0.54738  -0.75677
C     0.56380   0.27962  -2.22930
O     1.13954  -0.20328  -3.15596
O    -0.70703   0.76417  -2.29542
C    -0.98637   1.30627  -0.95796
C    -2.04233   2.30482  -1.08293
N    -2.87439   3.09920  -1.20954
N     0.27090   1.78194  -0.45229
C     0.76555   3.03127  -1.05237
C    -1.28190   0.04213  -0.06027
Br   -2.16430   0.71121   1.61952
O    -2.02728  -0.91709  -0.63328
C    -3.30831  -0.58945  -1.18259
C     0.22049  -0.48198   0.13844
Br    0.91149  -0.40024   1.96392
Br    0.42355  -2.32334  -0.47548
H     4.73125  -0.66572   0.26483
H     4.74902  -1.63146  -1.25863
H     5.02093   0.15139  -1.31118
H     0.02769   3.82021  -0.85921
H     0.92962   2.95149  -2.14074
H     1.70360   3.30665  -0.56377
H    -3.93484  -0.08452  -0.43246
H    -3.20272   0.03930  -2.07819
H    -3.76445  -1.54620  -1.46226
