19
Generated by autodE on: 2022-10-23. E = -681.041863 Ha
C     3.99749  -0.14813   0.19995
O     2.66279   0.20470  -0.18650
C     1.66898  -0.42604   0.45478
O     1.85300  -1.26307   1.32485
C     0.36974   0.01733  -0.01970
C     0.07734   0.98807  -1.02349
O     0.71003   1.70691  -1.76047
O    -1.36210   1.01721  -1.06372
C    -1.82179   0.14689  -0.16896
C    -3.20517  -0.05177   0.02714
N    -4.34854  -0.20556   0.17848
N    -0.83426  -0.46312   0.46664
C    -1.01489  -1.47543   1.50837
H     4.16445   0.07614   1.26356
H     4.66079   0.46212  -0.42381
H     4.18329  -1.21681   0.01888
H    -0.53211  -2.40571   1.18954
H    -0.55010  -1.12070   2.43488
H    -2.08850  -1.63467   1.65720
