10
Generated by autodE on: 2022-10-23. E = -7913.946580 Ha
C    -3.18546  -0.24901  -0.06114
O    -1.94210  -0.96880   0.01016
C    -0.83940  -0.33380  -0.38061
Br   -0.73778   0.10952  -2.24796
C     0.18089  -0.06822   0.46107
Br    1.83523   0.66957  -0.05720
Br    0.00174  -0.48410   2.30295
H    -3.94566  -0.91201   0.36809
H    -3.43902  -0.01968  -1.10759
H    -3.12043   0.68170   0.52293
