20
Generated by autodE on: 2022-06-22. E = -457.715334 Ha
C    -3.10950  -0.42936  -0.50037
N    -1.80161   0.16484  -0.27897
C    -1.64752   1.55248  -0.38886
C    -0.45912   2.16236  -0.25547
C     0.82299   1.41782   0.02495
C     0.56219  -0.07775   0.10230
C     1.65488  -1.03138   0.35074
N     2.89122  -0.49272   0.50109
O     1.48897  -2.26614   0.42381
C    -0.69119  -0.59086  -0.05160
H    -3.85968   0.01955   0.16943
H    -3.44514  -0.28573  -1.54116
H    -3.05829  -1.50577  -0.29473
H    -2.56898   2.10192  -0.59000
H    -0.41971   3.24991  -0.35052
H     1.28024   1.78956   0.96516
H     1.57535   1.64865  -0.75674
H     3.06234   0.50367   0.45757
H     3.67382  -1.11281   0.67816
H    -0.84983  -1.66872   0.00830
