25
Generated by autodE on: 2022-07-27. E = -833.915538 Ha
C     1.91097  -2.96209  -2.07099
N     1.15856  -1.96649  -1.33345
C     1.72622  -0.91306  -0.73388
O     2.92769  -0.63180  -0.70884
C     0.79215   0.01618  -0.03025
O    -0.44295  -0.23895  -0.01472
N    -1.32141   0.60167   0.62622
C    -2.59032   0.08974   0.50253
O    -3.53769   0.68417   0.99995
O    -2.70891  -1.06523  -0.17671
C    -4.03530  -1.59147  -0.29908
C     1.35795   1.18757   0.73571
O     1.71013   1.05523   1.88317
O     1.40616   2.27735   0.00401
C     1.92734   3.46799   0.63858
H     1.56602  -3.00960  -3.11498
H     2.97272  -2.69170  -2.05505
H     1.78540  -3.95631  -1.61569
H     0.14859  -2.07118  -1.26519
H    -4.68691  -0.88488  -0.83383
H    -4.46352  -1.80288   0.69173
H    -3.93850  -2.52099  -0.87265
H     1.88342   4.25224  -0.12416
H     2.96353   3.29454   0.95926
H     1.30302   3.73053   1.50337
