45
Generated by autodE on: 2022-06-22. E = -1291.639833 Ha. Imaginary frequency = -187.3 cm-1
C     2.30626  -3.39824  -1.27070
N     1.52988  -2.42071  -0.53920
C     2.10565  -1.31319  -0.02362
O     3.32086  -1.09090  -0.12106
C     1.16455  -0.37661   0.64437
C     1.60618   0.77768   1.45067
O     1.07687   1.12874   2.49086
O     2.65212   1.40996   0.90716
C     3.15336   2.54572   1.62547
O    -0.03072  -0.92660   0.86568
N    -1.05712  -0.08051   1.10256
C    -2.25492  -0.77134   1.11175
O    -3.30302  -0.15205   1.25874
O    -2.18112  -2.09764   0.96836
C    -3.42893  -2.80523   0.94872
C    -0.92117   1.28300  -0.72006
C    -0.78276   2.50377   0.14011
N    -1.86281   2.82946   0.87600
O     0.25118   3.18305   0.13078
C    -2.24747   0.96120  -1.36806
C    -2.18204  -0.37180  -2.06256
C    -1.01181  -0.84010  -2.52183
N     0.18451  -0.13782  -2.31483
C     1.36054  -0.46431  -3.11276
C     0.24377   0.82529  -1.36205
H     2.84700  -2.93006  -2.10873
H     3.05135  -3.88710  -0.62224
H     1.62754  -4.16235  -1.66843
H     0.52297  -2.52705  -0.47307
H     3.99133   2.92868   1.03171
H     3.50167   2.24776   2.62504
H     2.37138   3.31124   1.71977
H    -4.02635  -2.49975   0.07718
H    -3.99693  -2.61441   1.87031
H    -3.17010  -3.86781   0.87555
H    -1.76713   3.59723   1.53417
H    -2.57878   2.13183   1.06422
H    -3.07443   0.97948  -0.64610
H    -2.47871   1.77082  -2.09282
H    -3.09554  -0.94807  -2.21664
H    -0.90730  -1.77763  -3.07007
H     2.27019  -0.20210  -2.55959
H     1.35058   0.09095  -4.06521
H     1.37229  -1.53859  -3.33580
H     1.17935   1.37092  -1.25898
