32
Generated by autodE on: 2022-06-17. E = -859.500263 Ha
C     3.86044  -0.45271  -0.97775
O     2.52735  -0.56180  -0.45401
C     1.76825   0.52812  -0.51723
O     2.13762   1.60725  -0.92646
C     0.40757   0.27316   0.07744
N    -0.58424   1.32668  -0.13679
C    -1.58734   0.76057   0.72811
C    -2.74660   1.64053   1.08867
O    -0.82191   0.47110   1.99999
C     0.42047   0.15334   1.61767
O     1.30934  -0.17362   2.36480
C    -1.85439  -0.63708   0.07573
C    -2.82467  -0.48995  -1.10384
C    -2.40756  -1.66503   1.06177
C    -0.37453  -0.98812  -0.37874
C    -0.22733  -1.26178  -1.85116
O     0.45078  -0.60095  -2.60916
H     3.82433  -0.21447  -2.05050
H     4.41980   0.32841  -0.44394
H     4.32728  -1.43147  -0.82064
H    -0.24688   2.22442   0.21996
H    -3.45038   1.10195   1.73808
H    -2.38395   2.53269   1.61947
H    -3.27448   1.96017   0.18101
H    -2.95436  -1.45309  -1.61757
H    -3.81489  -0.17779  -0.74175
H    -2.47480   0.25123  -1.83585
H    -3.38165  -1.33630   1.45595
H    -2.55881  -2.62538   0.54625
H    -1.72986  -1.83488   1.90928
H    -0.02268  -1.89452   0.13771
H    -0.77978  -2.15683  -2.21462
