14
Generated by autodE on: 2022-06-17. E = -270.683215 Ha
C    -1.13685   1.00229   0.47286
C    -0.79415  -0.35586  -0.06890
C    -1.94629  -1.27669  -0.31929
C     0.47976  -0.75959  -0.32833
C     1.68188   0.03566  -0.12841
O     1.73911   1.18422   0.30521
H    -0.64441   1.17395   1.44326
H    -2.22240   1.11680   0.59972
H    -0.76889   1.79707  -0.19513
H    -1.63182  -2.25274  -0.71364
H    -2.51353  -1.42979   0.61576
H    -2.65241  -0.80983  -1.02842
H     0.64500  -1.76641  -0.72298
H     2.62671  -0.48990  -0.40965
