32
Generated by autodE on: 2022-06-17. E = -859.456038 Ha. Imaginary frequency = -462.5 cm-1
C     4.06585  -0.10363  -1.00957
O     2.89371  -0.09500  -0.17944
C     1.88434   0.67167  -0.58814
O     1.89644   1.36694  -1.58778
C     0.71433   0.57125   0.28612
N    -0.39597   1.30625   0.07002
C    -1.39652   0.82147   0.89091
C    -2.55590   1.69797   1.23489
O    -0.72986   0.25502   1.97750
C     0.56848  -0.05168   1.59422
O     1.31606  -0.68920   2.29980
C    -1.99175  -0.80109  -0.05276
C    -2.87207  -0.24644  -1.16521
C    -2.78174  -1.54519   1.01642
C    -0.74497  -1.41696  -0.38126
C    -0.02166  -1.28763  -1.62215
O    -0.30941  -0.55458  -2.57465
H     3.81615  -0.47247  -2.01489
H     4.49093   0.90743  -1.08346
H     4.77447  -0.78083  -0.51999
H    -0.58392   1.76342  -0.82284
H    -3.36266   1.12329   1.70475
H    -2.22143   2.47532   1.93888
H    -2.93732   2.18201   0.32690
H    -3.15256  -1.06125  -1.85208
H    -3.79973   0.16861  -0.74677
H    -2.37050   0.52391  -1.76129
H    -3.56312  -0.91520   1.46396
H    -3.28739  -2.40594   0.54875
H    -2.13105  -1.92416   1.81597
H    -0.33933  -2.16073   0.30874
H     0.88929  -1.92929  -1.67898
