44
Generated by autodE on: 2022-06-18. E = -917.798555 Ha
C     5.11748   0.49543   0.46143
C     4.25652  -0.31419  -0.18778
C     4.70103  -1.61386  -0.80444
C     2.84442   0.06982  -0.29714
C     1.88877  -0.64594  -0.91159
C     0.45756  -0.21639  -1.07146
N     0.08381   0.96512  -0.29733
C    -0.10941   2.19516  -0.86664
C    -0.86141   3.20764  -0.04353
O     0.34423   2.43908  -1.98443
N    -0.59189   0.59581   0.87336
C     0.30923   0.36956   2.01116
N    -1.28065  -0.58503   0.50977
C    -2.61400  -0.69916   0.86420
O    -3.26405  -1.72499   0.61380
N    -3.13078   0.34511   1.55534
C    -4.50514   0.33868   2.00659
C    -0.64964  -1.26793  -0.66051
C    -1.62793  -1.40912  -1.83154
C    -0.09639  -2.63000  -0.24485
H     6.17582   0.23968   0.56417
H     4.78154   1.43696   0.90666
H     4.14708  -2.46535  -0.37522
H     4.50369  -1.62584  -1.88935
H     5.77528  -1.78408  -0.64616
H     2.57026   1.01941   0.17371
H     2.13844  -1.58576  -1.40988
H     0.31205   0.03349  -2.13237
H    -1.89720   2.86967   0.11159
H    -0.40484   3.33480   0.94848
H    -0.86036   4.16396  -0.58073
H     0.84462   1.30596   2.21924
H     1.03309  -0.44165   1.83551
H    -0.31202   0.12076   2.88247
H    -2.56071   1.18135   1.63294
H    -4.66091   1.18953   2.68223
H    -5.22279   0.42082   1.17197
H    -4.73279  -0.58817   2.55455
H    -1.08374  -1.79617  -2.70561
H    -2.44661  -2.09718  -1.59391
H    -2.05616  -0.42948  -2.09538
H     0.63697  -2.53246   0.56793
H     0.38630  -3.13527  -1.09445
H    -0.92511  -3.26138   0.10672
