23
Generated by autodE on: 2022-06-18. E = -351.521386 Ha
C    -3.69539  -0.80120  -0.00577
C    -2.58540  -0.03061  -0.00459
C    -2.67596   1.47397  -0.00592
C    -1.26370  -0.65442  -0.00183
C    -0.07788   0.00485  -0.00024
C     1.20736  -0.66364   0.00260
C     2.43144  -0.07783   0.00432
C     3.68255  -0.90982   0.00741
C     2.66068   1.40688   0.00358
H    -3.62597  -1.89342  -0.00470
H    -4.69644  -0.36100  -0.00785
H    -2.17241   1.90158  -0.88885
H    -3.72243   1.80999  -0.00859
H    -2.17657   1.90282   0.87878
H    -1.25187  -1.75107  -0.00096
H    -0.08114   1.09827  -0.00103
H     1.17150  -1.75982   0.00349
H     4.30476  -0.67760   0.89045
H     4.30753  -0.68001  -0.87432
H     3.46525  -1.98806   0.00853
H     1.73475   1.99624   0.00081
H     3.25389   1.70221   0.88707
H     3.25812   1.70066  -0.87756
