21
Generated by autodE on: 2022-06-18. E = -566.230356 Ha
C     2.90578   1.77099  -0.13797
N     2.23896   0.57208   0.32733
C     1.16496   0.07373  -0.30225
O     0.68314   0.54553  -1.33433
N     0.73565  -1.14594   0.27607
N    -0.50152  -1.46533   0.23113
C    -0.79318  -2.88770   0.51360
N    -1.55331  -0.76438  -0.05545
C    -1.56946   0.60746   0.16501
C    -2.57213   1.33107  -0.68149
O    -0.89158   1.16050   1.02639
H     2.16581   2.54728  -0.38071
H     3.56571   2.14267   0.65529
H     3.51062   1.57938  -1.04014
H     2.61007   0.05876   1.12075
H    -1.48537  -2.92979   1.36344
H     0.14780  -3.39875   0.73354
H    -1.27506  -3.31281  -0.37575
H    -2.15428   1.41353  -1.69943
H    -2.74840   2.33816  -0.28262
H    -3.51382   0.76902  -0.75273
