37
Generated by autodE on: 2022-06-15. E = -937.905827 Ha
C     5.01263   0.42732  -0.97580
O     3.87109  -0.19647  -0.38516
C     2.71159   0.49827  -0.43415
O     2.66809   1.62144  -0.93819
C     1.57355  -0.20024   0.11102
C     1.47837  -1.56723   0.52469
C     2.71240  -2.40472   0.77208
O     0.36053  -2.10919   0.70329
N     0.36526   0.55146   0.22080
C     0.43780   1.79303   1.01677
C    -0.78537   0.04392  -0.14413
C    -0.83058  -1.08086  -1.17269
C    -1.91967  -2.10479  -1.03376
O    -0.08020  -1.03844  -2.13043
C    -2.07607   0.58540   0.31332
C    -3.04604   0.95690  -0.63487
C    -4.28495   1.43918  -0.21267
C    -4.57534   1.52767   1.15269
C    -3.62123   1.13742   2.09858
C    -2.37331   0.67298   1.68501
H     4.84366   0.62944  -2.04406
H     5.25412   1.37214  -0.46634
H     5.83966  -0.28331  -0.85642
H     3.46315  -1.88007   1.37576
H     3.18602  -2.66117  -0.18815
H     2.39762  -3.33068   1.27146
H     0.44873   1.54136   2.08527
H     1.36451   2.30782   0.75097
H    -0.41799   2.43599   0.78827
H    -2.25873  -2.21559   0.00273
H    -1.55422  -3.06363  -1.42592
H    -2.77769  -1.78866  -1.65015
H    -2.82111   0.88378  -1.70119
H    -5.02814   1.74266  -0.95293
H    -5.54992   1.89612   1.48071
H    -3.85069   1.19323   3.16484
H    -1.63310   0.35524   2.42061
