37
Generated by autodE on: 2022-07-27. E = -937.895795 Ha
C    -4.32492   0.94018   2.57726
O    -3.13729   1.32334   1.87682
C    -2.38616   0.32518   1.38629
O    -2.72763  -0.84873   1.47481
C    -1.14786   0.76744   0.73780
C    -0.54878   2.08510   0.97286
C     0.38603   2.67855  -0.06594
O    -0.85102   2.77535   1.94665
N    -0.55034  -0.13584  -0.11246
C    -1.40126  -0.90887  -1.05022
C     0.77811  -0.29231  -0.19355
C     1.66304  -0.02012   0.97025
C     3.09647  -0.46462   0.83091
O     1.26345   0.48254   2.01759
C     1.35290  -0.97777  -1.38486
C     1.51709  -2.37160  -1.40213
C     2.06835  -3.00090  -2.51988
C     2.45971  -2.24440  -3.62929
C     2.30004  -0.85565  -3.61681
C     1.75106  -0.22239  -2.49864
H    -5.02328   0.41871   1.90592
H    -4.08330   0.28411   3.42656
H    -4.77545   1.87243   2.93823
H     0.41913   2.14162  -1.02113
H     1.40517   2.74619   0.34356
H     0.03810   3.70787  -0.24065
H    -1.31736  -1.98188  -0.84403
H    -1.05413  -0.70568  -2.07026
H    -2.43686  -0.57908  -0.95312
H     3.16801  -1.55081   0.67325
H     3.64400  -0.18449   1.73948
H     3.55395   0.01599  -0.04805
H     1.21011  -2.95985  -0.53454
H     2.19196  -4.08622  -2.52441
H     2.89068  -2.73786  -4.50350
H     2.60563  -0.26010  -4.48005
H     1.62952   0.86252  -2.48595
