73
Generated by autodE on: 2022-06-15. E = -1882.644119 Ha. Imaginary frequency = -194.0 cm-1
C    -9.69353 -13.01368  -1.40379
O    -8.54333 -13.82152  -1.67019
C    -8.19527 -13.95484  -2.98827
O    -9.25477 -14.23495  -3.76630
C    -7.06152 -15.03061  -3.06989
F    -7.72754 -16.24141  -2.77222
C    -5.97016 -14.81020  -2.00816
C    -4.59082 -15.38917  -2.33282
C    -4.53764 -16.87482  -2.76869
C    -3.92434 -17.09741  -4.16110
C    -4.91579 -17.00806  -5.37059
C    -3.98637 -17.01356  -6.62626
C    -3.88585 -18.24988  -7.46964
O    -3.28344 -16.04504  -6.83113
C    -5.91006 -18.20710  -5.41995
C    -5.49382 -19.52342  -4.82391
O    -7.00470 -18.06937  -5.93248
C    -5.75314 -15.78447  -5.22144
C    -6.48980 -15.20583  -4.41389
C    -7.68249 -13.51675  -5.56551
C    -7.23529 -12.57509  -4.66927
C    -6.40296 -11.37457  -4.93604
O    -7.60759 -12.66666  -3.39047
C    -9.06758 -14.23793  -5.34040
O    -9.22797 -15.39661  -5.80034
O   -10.02343 -13.23931  -5.71045
C   -11.34643 -13.72438  -5.86427
N    -7.15440 -13.71418  -6.85419
C    -8.14209 -13.69390  -7.96853
C    -5.88593 -14.11948  -7.09017
C    -4.69807 -13.31961  -6.50192
C    -4.23947 -12.17936  -7.38761
O    -4.15747 -13.53304  -5.44497
C    -5.65537 -14.93023  -8.30420
C    -6.47643 -16.06971  -8.45813
C    -6.30743 -16.92751  -9.53913
C    -5.31481 -16.67079 -10.49107
C    -4.48607 -15.55628 -10.34097
C    -4.64580 -14.69444  -9.25502
H    -9.71822 -12.87032  -0.31610
H    -9.61344 -12.03437  -1.89968
H   -10.61627 -13.51475  -1.73035
H    -6.37529 -15.23452  -1.07749
H    -5.86646 -13.72738  -1.84702
H    -3.96834 -15.24801  -1.43526
H    -4.13038 -14.76663  -3.11342
H    -3.92230 -17.43806  -2.05088
H    -5.53892 -17.32841  -2.71527
H    -3.41988 -18.07226  -4.21342
H    -3.14705 -16.34024  -4.33541
H    -3.34099 -18.01919  -8.39323
H    -4.86834 -18.67947  -7.70280
H    -3.31818 -19.00585  -6.90072
H    -5.52517 -19.43871  -3.72520
H    -6.20017 -20.30048  -5.14250
H    -4.46711 -19.80299  -5.09420
H    -5.41604 -11.46532  -4.45874
H    -6.29509 -11.17588  -6.00589
H    -6.91395 -10.51576  -4.47191
H   -11.97101 -12.86041  -6.13248
H   -11.72969 -14.16502  -4.92751
H   -11.41793 -14.48350  -6.66020
H    -8.74278 -14.60557  -8.00300
H    -7.60396 -13.54864  -8.90940
H    -8.80315 -12.84130  -7.78725
H    -4.06530 -11.30168  -6.75044
H    -3.26720 -12.45963  -7.82289
H    -4.94214 -11.93412  -8.19304
H    -7.21802 -16.29801  -7.69429
H    -6.94311 -17.81075  -9.62867
H    -5.17928 -17.34531 -11.33927
H    -3.70320 -15.35205 -11.07419
H    -3.98317 -13.83802  -9.17195
