22
Generated by autodE on: 2022-07-26. E = -666.141362 Ha
C     2.39824  -0.98778  -2.30644
O     1.59570  -1.19781  -1.13663
C     0.83636  -0.17015  -0.73921
O     0.76998   0.88564  -1.36223
C     0.14932  -0.39704   0.51926
O    -0.70969   0.56439   0.94315
C    -1.44635   1.43665   0.36091
C    -2.14434   2.41890   1.22298
C    -1.70229   1.42005  -1.04058
N    -2.09497   1.42542  -2.13721
C     0.43217  -1.34842   1.59024
C     1.44101  -2.44703   1.36937
O    -0.16973  -1.25612   2.66537
H     2.93322  -1.92950  -2.47459
H     1.76365  -0.75044  -3.17236
H     3.11407  -0.16910  -2.14316
H    -1.68978   3.41657   1.08568
H    -2.04288   2.11834   2.27408
H    -3.20526   2.49961   0.93972
H     2.42945  -2.03424   1.11967
H     1.50426  -3.04151   2.29013
H     1.14141  -3.09096   0.52961
