19
Generated by autodE on: 2022-05-30. E = -457.431998 Ha
N     0.34885   3.11782  -0.77112
C     0.12186   2.04585  -0.37664
C    -0.18351   0.75408   0.11798
C     0.67832  -0.28968   0.27023
C     2.06233  -0.30202  -0.03093
N     3.20339  -0.33538  -0.26142
C    -0.15197  -1.50508   0.65708
C    -0.94492  -1.88579  -0.63676
C    -1.92695  -0.69482  -0.81011
C    -1.58213   0.22775   0.40525
C    -1.25585  -0.82023   1.48923
H     0.41204  -2.32439   1.11532
H    -0.27578  -2.02509  -1.49664
H    -1.48102  -2.82994  -0.46484
H    -1.80582  -0.16819  -1.76646
H    -2.97411  -1.01932  -0.72936
H    -2.32815   0.99663   0.63252
H    -0.88108  -0.37560   2.42208
H    -2.10266  -1.48792   1.70310
