37
Generated by autodE on: 2022-05-30. E = -1174.702734 Ha
C    -4.78709  -0.45023  -0.91918
N    -3.33833  -0.41487  -0.88874
C    -2.66930  -0.63986   0.24700
O    -3.20694  -0.93953   1.32197
C    -1.18213  -0.53675   0.20584
C    -0.28645   0.13137  -0.55141
C    -0.49500   0.99812  -1.73090
O    -1.43484   0.90181  -2.50092
O     0.47633   1.89077  -1.84873
C     0.42886   2.77690  -2.98101
C     1.06988  -0.04259   0.15073
C     2.30874   0.12156  -0.72560
O     2.43165  -0.60119  -1.71480
N     3.19487   1.04261  -0.33982
C     4.36986   1.33579  -1.13860
C     0.88875   0.80694   1.44909
O     1.40350   1.84409   1.77504
O    -0.00857   0.13597   2.20433
C    -0.34317  -1.07810   1.36931
C    -0.87728  -2.09728   2.26478
N    -1.20348  -2.94098   2.98692
N     0.89415  -1.40576   0.71039
C     1.98555  -1.90275   1.55274
H    -5.22378   0.36449  -0.31838
H    -5.15952  -1.40377  -0.51575
H    -5.12247  -0.34531  -1.95771
H    -2.81439  -0.08124  -1.70122
H     0.46168   2.19503  -3.91257
H     1.31429   3.41553  -2.89384
H    -0.48894   3.38008  -2.94962
H     2.95216   1.64911   0.44128
H     5.00694   2.03881  -0.58916
H     4.93939   0.41687  -1.33970
H     4.09218   1.78494  -2.10634
H     2.24455  -1.23445   2.39161
H     1.69856  -2.88245   1.95649
H     2.87065  -2.04404   0.92013
