17
Generated by autodE on: 2022-05-30. E = -513.467382 Ha
C    -3.08530   1.09332  -0.23446
N    -3.06544  -0.35231  -0.11067
C    -1.98891  -1.15042  -0.02385
O    -2.04292  -2.37827   0.10078
C    -0.67926  -0.50061  -0.08541
C     0.45324  -0.06421  -0.11691
C     1.79568   0.47356  -0.23313
O     2.33567   0.68941  -1.29864
O     2.34053   0.69537   0.96028
C     3.67424   1.23670   0.96480
H    -3.71084   1.39359  -1.08792
H    -2.06914   1.47119  -0.40124
H    -3.48723   1.56325   0.67680
H    -3.95819  -0.83892  -0.04756
H     3.68927   2.21473   0.46324
H     4.36519   0.54980   0.45587
H     3.94850   1.34343   2.02006
