37
Generated by autodE on: 2022-05-30. E = -1174.640307 Ha. Imaginary frequency = -364.2 cm-1
C    -4.89500  -1.63692  -0.51242
N    -3.65078  -0.88994  -0.51392
C    -2.53296  -1.38789   0.03438
O    -2.46316  -2.48108   0.60147
C    -1.33189  -0.52710  -0.08571
C    -0.54526   0.01855  -0.89463
C     0.17931   0.50214  -2.03930
O     0.90584  -0.19335  -2.72895
O    -0.01090   1.81274  -2.22656
C     0.71244   2.42028  -3.31041
C     1.32951   0.27253   0.74786
C     2.58228   0.16471  -0.04497
O     3.15541  -0.91473  -0.21534
N     2.99518   1.32535  -0.58256
C     4.08609   1.35823  -1.53713
C     0.59108   1.49366   1.05213
O     0.79232   2.65487   0.78027
O    -0.50110   1.07869   1.80184
C    -0.51939  -0.29993   1.75000
C    -1.28622  -0.93088   2.78508
N    -1.93755  -1.40398   3.62064
N     0.75440  -0.73347   1.44095
C     1.07330  -2.15652   1.34390
H    -5.11553  -2.01057   0.49813
H    -4.84921  -2.50117  -1.19492
H    -5.70663  -0.97374  -0.83445
H    -3.60046   0.00427  -0.99232
H     0.42799   1.95969  -4.26699
H     0.43073   3.47907  -3.29853
H     1.79518   2.31319  -3.15738
H     2.43081   2.16078  -0.43314
H     3.85323   0.74205  -2.42011
H     5.01436   0.97489  -1.08696
H     4.24569   2.39538  -1.85394
H     0.88508  -2.50027   0.31735
H     0.43178  -2.70165   2.04539
H     2.12618  -2.30606   1.59678
