18
Generated by autodE on: 2022-06-17. E = -235.968067 Ha
C    -1.10467   1.16093   1.14761
C    -0.58491   0.34103  -0.00873
C    -1.52798   0.37537  -1.18732
C     0.58497  -0.34092   0.00870
C     1.52793  -0.37551   1.18738
C     1.10470  -1.16085  -1.14764
H    -0.45288   1.16310   2.02939
H    -1.25603   2.21036   0.83672
H    -2.09751   0.79293   1.46313
H    -1.19736  -0.21737  -2.04858
H    -1.67654   1.41526  -1.53009
H    -2.52707   0.00950  -0.88965
H     2.52762  -0.01157   0.88944
H     1.67477  -1.41530   1.53122
H     1.19817   0.21864   2.04800
H     2.09762  -0.79296  -1.46306
H     0.45297  -1.16286  -2.02948
H     1.25586  -2.21033  -0.83684
