50
Generated by autodE on: 2022-06-24. E = -1134.068796 Ha
C     0.24620   2.43641  -1.77295
C     0.03430   0.91791  -1.64788
C    -0.58259   0.39023  -2.94178
C     1.42370   0.26481  -1.36248
C     1.51767  -1.21455  -1.72290
O     1.78053  -1.58248  -2.84823
N     1.61956   0.54263   0.04516
C     2.54358  -0.11802   0.84605
C     2.34985  -0.25174   2.23594
C     3.31976  -0.88172   3.01785
C     4.49614  -1.37957   2.44909
C     4.69507  -1.22880   1.07213
C     3.73960  -0.60322   0.27182
O     0.36450   0.79660   0.67160
C    -0.69416   0.58671  -0.28256
C    -1.81631   1.54298   0.12541
C    -1.87769   2.01062   1.44701
C    -2.92199   2.84069   1.86400
C    -3.92698   3.21479   0.96868
C    -3.87686   2.74930  -0.34813
C    -2.83314   1.91957  -0.76547
C    -1.21208  -0.85797  -0.16792
C    -0.64128  -1.74835   0.75208
C    -1.12006  -3.05650   0.87849
C    -2.18660  -3.49605   0.09281
C    -2.77824  -2.60941  -0.81283
C    -2.30020  -1.30385  -0.93700
H    -0.69924   2.94524  -2.00113
H     0.65362   2.86877  -0.84916
H     0.94913   2.64141  -2.59362
H    -1.51389   0.92046  -3.17896
H     0.12101   0.57268  -3.76774
H    -0.79308  -0.68493  -2.91818
H     2.18263   0.77852  -1.97130
H     1.34370  -1.94524  -0.90356
H     1.44290   0.13893   2.69379
H     3.14700  -0.98217   4.09248
H     5.24854  -1.87215   3.06825
H     5.61026  -1.60266   0.60622
H     3.92864  -0.48602  -0.79613
H    -1.10434   1.72402   2.15867
H    -2.94795   3.19408   2.89762
H    -4.74346   3.86375   1.29390
H    -4.65329   3.03437  -1.06186
H    -2.81915   1.57714  -1.79876
H     0.18335  -1.42174   1.38234
H    -0.65353  -3.73070   1.60069
H    -2.56180  -4.51745   0.19013
H    -3.62325  -2.93247  -1.42539
H    -2.79456  -0.63087  -1.63542
