36
Generated by autodE on: 2022-06-24. E = -863.331622 Ha
C     5.35825   0.55779   0.57083
C     4.76442   1.82865   0.57016
C     3.38552   1.97029   0.45549
C     2.54264   0.83378   0.33411
N     1.19851   1.09964   0.22496
O     0.53968  -0.08233   0.02111
C    -0.74793  -0.18098  -0.09714
C    -1.65954   0.94236   0.11920
C    -1.45401   1.87594   1.15767
C    -2.37509   2.89777   1.37300
C    -3.49512   3.02843   0.54285
C    -3.69913   2.11965  -0.49999
C    -2.79600   1.07803  -0.70633
C    -1.18780  -1.52091  -0.47615
C    -0.30560  -2.39270  -1.15472
C    -0.70867  -3.68240  -1.48858
C    -1.99381  -4.12941  -1.15627
C    -2.87395  -3.27609  -0.48237
C    -2.47927  -1.98328  -0.14264
C     3.15115  -0.44924   0.34505
C     4.53577  -0.57012   0.45854
H     6.44109   0.44973   0.66226
H     5.38767   2.72256   0.65918
H     2.92472   2.96082   0.45065
H    -0.57757   1.78710   1.79641
H    -2.21565   3.60377   2.19096
H    -4.20594   3.84147   0.70730
H    -4.56557   2.22173  -1.15686
H    -2.95773   0.37495  -1.52422
H     0.68796  -2.03962  -1.43374
H    -0.02057  -4.34245  -2.02138
H    -2.30793  -5.14086  -1.42353
H    -3.87348  -3.62271  -0.21100
H    -3.16411  -1.33679   0.40668
H     2.53203  -1.34346   0.27529
H     4.98061  -1.56921   0.46518
