50
Generated by autodE on: 2022-06-24. E = -1134.003273 Ha. Imaginary frequency = -343.5 cm-1
C     0.10797   2.38440  -1.60000
C     0.22256   0.88755  -1.80037
C    -0.57783   0.35802  -2.96812
C     1.48844   0.34974  -1.47035
C     2.13133  -0.77129  -2.13051
O     3.32763  -1.02988  -2.00680
N     1.14049  -0.71813   0.47028
C     2.25740  -0.48165   1.26918
C     2.41341   0.61688   2.14276
C     3.59263   0.75839   2.87043
C     4.63337  -0.17135   2.73790
C     4.48285  -1.25695   1.86800
C     3.30417  -1.41907   1.14188
O     0.15443   0.13619   0.79352
C    -0.93161   0.14919  -0.01815
C    -1.81015   1.29221   0.32138
C    -1.51295   2.14227   1.40411
C    -2.30569   3.25830   1.67384
C    -3.40690   3.55815   0.86606
C    -3.70996   2.72478  -0.21519
C    -2.92365   1.60490  -0.48430
C    -1.54584  -1.16416  -0.39325
C    -0.82340  -2.22187  -0.98058
C    -1.42841  -3.45135  -1.24658
C    -2.77114  -3.66663  -0.92875
C    -3.50047  -2.63764  -0.32755
C    -2.89731  -1.40826  -0.06192
H    -0.92648   2.73925  -1.69088
H     0.50361   2.69673  -0.62291
H     0.69983   2.89421  -2.38068
H    -1.63694   0.63559  -2.87188
H    -0.20860   0.81936  -3.90093
H    -0.52046  -0.72977  -3.08573
H     2.18541   0.99199  -0.92669
H     1.49475  -1.41349  -2.77729
H     1.61356   1.34985   2.24260
H     3.70499   1.60793   3.54855
H     5.55431  -0.04992   3.31237
H     5.28683  -1.98895   1.76094
H     3.16948  -2.26904   0.47213
H    -0.65780   1.92420   2.04279
H    -2.05964   3.89835   2.52441
H    -4.02435   4.43405   1.07776
H    -4.56421   2.94841  -0.85829
H    -3.17032   0.97610  -1.33943
H     0.21996  -2.08982  -1.23540
H    -0.83875  -4.24599  -1.70944
H    -3.24328  -4.62875  -1.14082
H    -4.54625  -2.79143  -0.05151
H    -3.48444  -0.63828   0.43512
