48
Generated by autodE on: 2022-06-21. E = -1132.158369 Ha
C     5.64518   1.31394   0.24759
C     4.44057   1.03885   0.78730
C     4.18161   1.16831   2.26487
C     3.33823   0.61076  -0.08054
C     2.09626   0.30457   0.33473
C     0.98277  -0.04683  -0.59927
C    -0.17555   1.01910  -0.48679
C     0.29864   2.43075  -0.27491
O     0.07805   3.08275   0.72240
O     1.01793   2.84881  -1.31108
C     1.61952   4.14933  -1.20254
N    -0.98717   0.45006   0.58648
C    -1.25572  -0.79544  -0.08455
C    -2.30020  -1.68136   0.51785
C    -3.01786  -2.57917  -0.28597
C    -3.95500  -3.44048   0.28893
C    -4.18163  -3.41441   1.66865
C    -3.46882  -2.51931   2.47171
C    -2.53079  -1.65607   1.90002
O    -1.71840  -0.36412  -1.44964
C    -1.04625   0.76389  -1.72728
O    -1.13600   1.36798  -2.76711
C     0.18851  -1.38057  -0.29216
C     0.65734  -2.08351   0.98433
C     0.27742  -2.35921  -1.46255
H     6.48631   1.64159   0.86497
H     5.81794   1.21804  -0.82873
H     5.08206   1.50054   2.80029
H     3.85493   0.20746   2.69607
H     3.37246   1.89158   2.46053
H     3.56520   0.55100  -1.15135
H     1.83934   0.37214   1.39402
H     1.36537  -0.05615  -1.62805
H     0.84846   4.91763  -1.05154
H     2.32878   4.16468  -0.36257
H     2.14603   4.31688  -2.14861
H    -1.84534   0.98620   0.73751
H    -2.84821  -2.59747  -1.36289
H    -4.51163  -4.13428  -0.34521
H    -4.91491  -4.08910   2.11661
H    -3.64326  -2.49050   3.54969
H    -1.97423  -0.96061   2.52902
H     0.52300  -1.46326   1.87965
H     0.09800  -3.01962   1.12783
H     1.72454  -2.33595   0.90076
H     1.31656  -2.70693  -1.56710
H    -0.02499  -1.90089  -2.41409
H    -0.35634  -3.24143  -1.28454
