25
Generated by autodE on: 2022-06-21. E = -780.623565 Ha
C     5.14213  -0.10426   0.03881
O     3.80254  -0.19672  -0.45806
C     2.81725   0.05358   0.42459
O     3.01975   0.35186   1.59732
C     1.50894  -0.06806  -0.15627
N     0.36211   0.15662   0.60607
C    -0.71864  -0.01606  -0.12505
C    -2.10768   0.11405   0.26546
C    -2.45991   0.43486   1.59131
C    -3.80233   0.55328   1.94075
C    -4.80139   0.35542   0.97977
C    -4.45430   0.03702  -0.33736
C    -3.11418  -0.08516  -0.69881
O    -0.36869  -0.34990  -1.36348
C     1.08483  -0.40374  -1.45961
O     1.59519  -0.69409  -2.52159
H     5.35222   0.90986   0.40983
H     5.30863  -0.82845   0.85006
H     5.79534  -0.33588  -0.81081
H     0.38389   0.41818   1.59125
H    -1.68949   0.59008   2.34914
H    -4.07210   0.80068   2.96937
H    -5.85291   0.44965   1.25972
H    -5.23250  -0.11668  -1.08770
H    -2.83836  -0.33286  -1.72440
