48
Generated by autodE on: 2022-06-21. E = -1132.120201 Ha. Imaginary frequency = -466.2 cm-1
C     5.38131   1.65447  -0.12521
C     4.32513   1.11515   0.52678
C     4.13369   1.30400   2.00918
C     3.32103   0.37591  -0.22232
C     2.20877  -0.20030   0.31580
C     1.20851  -0.86041  -0.46688
C    -0.25384   1.21936  -0.53594
C     0.65597   2.29507  -0.20903
O     0.81933   2.71479   0.92934
O     1.34399   2.72921  -1.27074
C     2.29549   3.77807  -1.04162
N    -1.06119   0.63671   0.41023
C    -1.45023  -0.58437  -0.12073
C    -2.61231  -1.31176   0.43690
C    -3.40194  -2.12172  -0.39382
C    -4.47996  -2.83219   0.13830
C    -4.77894  -2.74220   1.50063
C    -3.99692  -1.93141   2.33058
C    -2.91853  -1.22001   1.80461
O    -1.47851  -0.39107  -1.49975
C    -0.60383   0.65399  -1.81082
O    -0.31032   0.90427  -2.96373
C     0.17372  -1.70041   0.06113
C     0.23871  -2.03260   1.54296
C    -0.15329  -2.90495  -0.81067
H     6.14209   2.23531   0.40320
H     5.50312   1.52638  -1.20489
H     4.96046   1.88031   2.44718
H     4.06938   0.33575   2.53202
H     3.19018   1.83796   2.20895
H     3.47449   0.30559  -1.30473
H     2.04893  -0.13942   1.39420
H     1.39900  -0.91557  -1.54269
H     1.80222   4.65447  -0.59765
H     3.10342   3.43225  -0.38134
H     2.70252   4.03127  -2.02740
H    -0.84469   0.73799   1.40007
H    -3.17454  -2.18834  -1.45779
H    -5.09013  -3.45725  -0.51748
H    -5.62244  -3.29871   1.91542
H    -4.22846  -1.85049   3.39488
H    -2.31826  -0.59117   2.46421
H     1.16090  -2.59490   1.76375
H     0.24000  -1.13674   2.18087
H    -0.61167  -2.66130   1.83999
H     0.65616  -3.64899  -0.72582
H    -0.24670  -2.62684  -1.86976
H    -1.08338  -3.39565  -0.49055
