52
Generated by autodE on: 2022-10-22. E = -1354.323618 Ha
C    -3.00378   4.05944   0.00209
N    -1.92530   3.13383   0.28272
C    -2.12236   1.79543   0.19732
O    -3.23589   1.26310   0.06379
N    -0.99855   1.01698   0.30828
N     0.27385   1.57583   0.52532
C     1.24278   0.65999  -0.07230
C     1.61719   1.09985  -1.52643
C     0.83031   2.22274  -2.12774
O     2.53977   0.56064  -2.10159
C     2.53326   0.73877   0.74315
O     2.76722   1.64091   1.52157
O     3.36266  -0.25783   0.48711
C     4.62316  -0.25375   1.18084
C     0.53408  -0.76973  -0.08044
O     0.69253  -1.44218  -1.30719
C     1.77588  -2.34838  -1.47960
C     0.75524  -1.69714   1.14304
C     0.56737  -0.95993   2.48758
C    -0.96653  -0.70700   2.55808
C    -1.47411  -1.31413   1.24008
C    -0.53995  -2.53115   1.08354
C    -1.00747  -0.40798   0.06117
C    -1.73112  -0.67324  -1.26920
O    -1.67775   0.06858  -2.22678
O    -2.40190  -1.81985  -1.27092
C    -3.06539  -2.17767  -2.49259
H    -2.70877   5.06427   0.33155
H    -3.25720   4.10366  -1.07179
H    -3.90814   3.76479   0.55207
H    -0.96322   3.44968   0.19646
H     0.44864   1.65307   1.52971
H     0.97637   3.13380  -1.52793
H     1.16838   2.38702  -3.15875
H    -0.24187   1.98539  -2.10749
H     5.15482  -1.14729   0.83638
H     5.19014   0.65333   0.92973
H     4.45556  -0.29973   2.26585
H     1.59787  -3.29687  -0.94733
H     1.82541  -2.55653  -2.55727
H     2.72997  -1.91451  -1.15447
H     1.69978  -2.24602   1.08477
H     0.89538  -1.63151   3.29355
H     1.16180  -0.04506   2.59473
H    -1.41843  -1.24026   3.40623
H    -1.22773   0.35511   2.66111
H    -2.55168  -1.50641   1.21704
H    -0.66949  -3.07223   0.13868
H    -0.62345  -3.23866   1.92151
H    -3.81412  -1.41725  -2.75592
H    -3.55101  -3.14112  -2.30075
H    -2.33460  -2.27251  -3.30836
