27
Generated by autodE on: 2022-10-22. E = -615.431365 Ha
C     3.69570  -0.91266   0.69888
O     2.31875  -1.06321   0.34932
C     1.63527   0.07574   0.06789
O     2.17424   1.17673   0.11244
C     0.25600  -0.19330  -0.27558
C    -0.74750   0.73353  -0.38321
O    -0.60693   2.04895  -0.24140
C    -1.76030   2.88897  -0.36607
C    -2.05978  -0.01456  -0.50930
C    -2.31151  -0.63356   0.90924
C    -1.19931  -1.71654   1.02616
C    -0.42615  -1.55753  -0.31833
C    -1.58795  -1.25960  -1.28681
H     3.80679  -0.29928   1.60594
H     4.26082  -0.44322  -0.12057
H     4.07646  -1.92463   0.88363
H    -1.40536   3.91465  -0.20773
H    -2.51340   2.63978   0.39613
H    -2.20087   2.80422  -1.37070
H    -2.90412   0.55209  -0.91495
H    -2.26084   0.12902   1.69923
H    -3.31640  -1.07940   0.93535
H    -0.53676  -1.56130   1.88936
H    -1.63325  -2.72463   1.10803
H     0.23265  -2.39636  -0.57026
H    -2.35085  -2.05241  -1.31482
H    -1.25151  -1.02718  -2.30769
