52
Generated by autodE on: 2022-10-22. E = -1354.247339 Ha. Imaginary frequency = -351.4 cm-1
C    -3.00026   3.90790   0.64049
N    -1.81660   3.09163   0.44579
C    -1.92318   1.81631   0.00434
O    -3.00874   1.25534  -0.17274
N    -0.72762   1.16157  -0.32193
N     0.38068   1.55141   0.26821
C     1.57871   1.04757  -0.17755
C     1.87272   0.98230  -1.61460
C     0.97351   1.71925  -2.57716
O     2.84412   0.35872  -2.04644
C     2.62186   1.08253   0.85282
O     2.42781   1.56345   1.96720
O     3.79886   0.56169   0.49351
C     4.84177   0.60201   1.47667
C     0.36679  -1.41963  -0.25366
O     0.98330  -1.75542  -1.37911
C     2.21836  -2.48072  -1.31013
C     0.52897  -2.17140   1.06374
C     0.54478  -1.21135   2.27821
C    -0.89238  -0.62082   2.28850
C    -1.55963  -1.30868   1.07985
C    -0.92546  -2.72006   1.16574
C    -0.94382  -0.82999  -0.25312
C    -1.75061  -0.95156  -1.49984
O    -1.39435  -0.58949  -2.60595
O    -2.92131  -1.56794  -1.28727
C    -3.80055  -1.67984  -2.41168
H    -2.70152   4.85308   1.11040
H    -3.50829   4.13146  -0.31269
H    -3.71745   3.39643   1.29818
H    -0.91069   3.54781   0.42217
H     0.37313   1.78187   1.27150
H     0.52417   2.62165  -2.14105
H     1.57063   1.97541  -3.46369
H     0.15521   1.04902  -2.87975
H     5.71915   0.15068   0.99912
H     5.06025   1.63893   1.76966
H     4.55631   0.02361   2.36743
H     2.03535  -3.51859  -0.99474
H     2.63094  -2.46886  -2.32489
H     2.91475  -1.98665  -0.61980
H     1.34244  -2.90261   1.06438
H     0.73474  -1.80588   3.18318
H     1.32661  -0.45166   2.22142
H    -1.43263  -0.90895   3.20138
H    -0.92474   0.47469   2.24073
H    -2.65055  -1.25010   1.08104
H    -1.20469  -3.37048   0.32440
H    -1.11875  -3.23940   2.11860
H    -4.08544  -0.67940  -2.77005
H    -4.68513  -2.21813  -2.05177
H    -3.32192  -2.23841  -3.22884
