57
Generated by autodE on: 2022-06-26. E = -1192.188193 Ha
C     5.58043  -0.17710  -0.02944
C     4.38174   0.14294   0.49894
C     4.25616   1.07594   1.67480
C     3.15546  -0.41135  -0.08490
C     1.90925  -0.16840   0.35900
C     0.68077  -0.72637  -0.27980
C    -0.35073   0.34048  -0.80030
C    -0.21850   0.47596  -2.33546
O     0.88950   0.54412  -2.87915
N    -1.37965   0.55965  -2.99827
C    -1.44595   0.66034  -4.44193
C    -0.19900   1.73511  -0.19027
C     0.89389   2.54493  -0.54243
C     1.06411   3.80279   0.03910
C     0.14249   4.27691   0.97851
C    -0.95172   3.48124   1.32558
C    -1.12114   2.21955   0.74561
O    -1.63848  -0.18198  -0.47745
C    -1.55493  -1.56642  -0.09729
C    -1.68586  -2.45904  -1.33461
C    -2.72538  -1.88992   0.83543
O    -2.85378  -3.02966   1.30227
N    -3.58803  -0.89668   1.08425
C    -4.73045  -1.07074   1.95882
C    -0.17469  -1.65898   0.63283
C    -0.28053  -1.12052   2.06839
C     0.41558  -3.06778   0.67102
H     6.51128   0.22590   0.37947
H     5.65812  -0.85230  -0.88720
H     3.63976   1.95354   1.41667
H     3.75639   0.58038   2.52369
H     5.24114   1.42917   2.01108
H     3.28734  -1.05360  -0.96338
H     1.76346   0.48034   1.22412
H     0.99698  -1.31839  -1.14754
H    -2.22135   0.36855  -2.46292
H    -0.67966   1.35892  -4.80542
H    -1.27934  -0.31497  -4.93019
H    -2.43610   1.03305  -4.73399
H     1.61574   2.18433  -1.27364
H     1.92351   4.41496  -0.24471
H     0.27623   5.26076   1.43435
H    -1.68184   3.83978   2.05516
H    -1.97317   1.60615   1.03162
H    -2.60440  -2.18850  -1.87621
H    -1.75621  -3.51388  -1.04103
H    -0.83170  -2.34171  -2.01529
H    -3.39539   0.00536   0.66244
H    -5.33155  -0.15357   1.94616
H    -5.35684  -1.91223   1.62501
H    -4.41584  -1.27377   2.99536
H    -0.68031  -0.09857   2.10467
H    -0.92934  -1.76920   2.67419
H     0.70963  -1.11275   2.54545
H     1.40518  -3.03926   1.15294
H     0.54710  -3.48946  -0.33518
H    -0.22914  -3.74385   1.25116
