23
Generated by autodE on: 2022-06-26. E = -351.521382 Ha
C    -3.71418  -0.67989  -0.20371
C    -2.56329  -0.17649   0.29421
C    -2.55383   0.67268   1.53963
C    -1.29498  -0.45229  -0.37775
C    -0.07670  -0.00463   0.01756
C     1.15193  -0.30809  -0.68751
C     2.40331   0.10572  -0.36428
C     2.73157   0.97714   0.81467
C     3.58605  -0.29780  -1.19861
H    -3.71771  -1.29607  -1.10817
H    -4.67693  -0.48907   0.27859
H    -2.13193   1.67110   1.33682
H    -1.92561   0.21969   2.32458
H    -3.56877   0.80163   1.94127
H    -1.35542  -1.07636  -1.27757
H    -0.00836   0.61811   0.91363
H     1.04313  -0.94143  -1.57630
H     3.24480   1.89553   0.47892
H     3.43958   0.46024   1.48650
H     1.85424   1.27246   1.40422
H     4.10955   0.59216  -1.59201
H     4.32846  -0.84230  -0.58769
H     3.29863  -0.93582  -2.04717
