34
Generated by autodE on: 2022-07-28. E = -840.564913 Ha
C    -0.24015  -0.70695  -4.10285
N    -0.34837  -0.33225  -2.70636
C     0.74718  -0.07971  -1.95715
O     1.88128  -0.01246  -2.45687
C     0.49880   0.20848  -0.52199
O    -0.40208  -0.46026   0.18574
C    -0.92563  -1.66433   0.10643
C    -0.45664  -2.67854  -0.85612
C    -1.90081  -1.96843   1.16053
O    -2.40190  -3.10488   1.25646
N    -2.22930  -0.96568   2.01102
C    -3.15328  -1.18058   3.10360
C     1.11235   1.31663   0.18322
C     1.88867   2.29107  -0.49008
C     2.44841   3.35933   0.20706
C     2.25088   3.49635   1.58621
C     1.48716   2.53953   2.26542
C     0.93294   1.46029   1.58167
H     0.43504  -1.56836  -4.22616
H    -1.23545  -0.97873  -4.47469
H     0.15268   0.12156  -4.71416
H    -1.26786  -0.31436  -2.27767
H    -0.89680  -2.57977  -1.86386
H    -0.71078  -3.67311  -0.46822
H     0.63865  -2.59186  -0.98393
H    -1.81013  -0.05175   1.88342
H    -3.27799  -0.23944   3.65299
H    -4.14003  -1.50820   2.73754
H    -2.78481  -1.94996   3.80199
H     2.05231   2.20363  -1.56345
H     3.04281   4.09854  -0.33551
H     2.69268   4.33628   2.12685
H     1.33142   2.62833   3.34338
H     0.36002   0.71118   2.12921
