34
Generated by autodE on: 2022-06-26. E = -840.557225 Ha
C    -2.07665   1.79484  -0.98795
N    -0.86909   1.48166  -1.72888
C     0.13316   0.67908  -1.32012
O     1.25346   0.69327  -1.85152
C    -0.16043  -0.35008  -0.27776
O     0.78188  -0.65118   0.59691
C     1.81315   0.02357   1.07240
C     2.76587  -0.80259   1.86900
C     1.81667   1.47844   1.03788
O     0.82455   2.14393   0.67205
N     2.94090   2.08547   1.49916
C     2.99686   3.52003   1.68504
C    -1.22786  -1.32788  -0.36169
C    -1.43536  -2.24661   0.69734
C    -2.44631  -3.20117   0.62656
C    -3.28993  -3.26411  -0.48965
C    -3.10039  -2.36018  -1.54129
C    -2.08513  -1.40767  -1.48590
H    -2.01367   1.38152   0.02580
H    -2.97906   1.39479  -1.47643
H    -2.18229   2.88678  -0.90356
H    -0.61819   2.09893  -2.49777
H     3.73817  -0.91652   1.35521
H     2.34705  -1.80888   2.01169
H     2.97008  -0.36125   2.85882
H     3.69203   1.51972   1.87719
H     2.37136   3.85707   2.53012
H     4.03549   3.81483   1.88051
H     2.64503   4.03829   0.78081
H    -0.80154  -2.19246   1.58341
H    -2.58632  -3.89731   1.45724
H    -4.08829  -4.00796  -0.53768
H    -3.74598  -2.40226  -2.42185
H    -1.94274  -0.72920  -2.32671
