57
Generated by autodE on: 2022-06-26. E = -1192.092342 Ha. Imaginary frequency = -269.5 cm-1
C     4.89056   1.50737   0.02238
C     3.82039   1.03665   0.70169
C     3.51196   1.51173   2.09830
C     2.92853   0.06089   0.08400
C     1.80893  -0.45284   0.65746
C     0.96520  -1.44977   0.04822
C    -0.49452   0.53906  -1.01379
C    -0.17443   0.25096  -2.44916
O     0.98011   0.04651  -2.85181
N    -1.22383   0.32533  -3.29436
C    -1.11300  -0.09455  -4.67793
C     0.02039   1.73688  -0.38112
C     1.06771   2.47880  -0.97444
C     1.58519   3.61276  -0.34840
C     1.07847   4.04137   0.88063
C     0.04522   3.31115   1.48517
C    -0.47086   2.17401   0.87263
O    -1.55331  -0.01499  -0.42413
C    -1.98742  -1.27935  -0.46054
C    -1.93815  -2.10914  -1.69535
C    -3.01960  -1.56752   0.55303
O    -3.52429  -2.70397   0.63751
N    -3.36746  -0.56707   1.39464
C    -4.18519  -0.81099   2.56351
C    -0.01502  -2.17097   0.72488
C    -0.39030  -1.80524   2.14033
C    -0.26463  -3.60894   0.34973
H     5.56711   2.24532   0.46219
H     5.11007   1.16551  -0.99389
H     2.51013   1.96619   2.14777
H     3.51517   0.67122   2.81234
H     4.24568   2.25663   2.43737
H     3.19335  -0.26287  -0.92846
H     1.52747  -0.10616   1.65431
H     1.28956  -1.82980  -0.92463
H    -2.15039   0.46911  -2.90661
H    -0.31481   0.46146  -5.19088
H    -0.88241  -1.17097  -4.75283
H    -2.06489   0.10095  -5.18633
H     1.48659   2.15435  -1.92557
H     2.40149   4.15978  -0.82556
H     1.48848   4.92709   1.37061
H    -0.35540   3.62814   2.45099
H    -1.25994   1.61284   1.37106
H    -2.61731  -1.70910  -2.46845
H    -2.27967  -3.11949  -1.44965
H    -0.93063  -2.16893  -2.12749
H    -2.86769   0.31057   1.32258
H    -4.49582   0.15094   2.99095
H    -5.08361  -1.38415   2.29327
H    -3.64045  -1.37937   3.33806
H    -0.55244  -0.72615   2.26775
H    -1.30045  -2.33371   2.45767
H     0.41439  -2.10381   2.83655
H     0.36943  -4.25117   0.98921
H     0.00316  -3.82169  -0.69413
H    -1.30660  -3.91061   0.52882
