48
Generated by autodE on: 2022-06-05. E = -1852.749662 Ha
C    -0.87238   3.63798   1.43833
N    -0.10709   2.59849   0.77849
C     0.42182   1.58323   1.46890
O     0.39683   1.52011   2.69761
C     1.04792   0.41534   0.61557
C     2.02074   0.86092  -0.49716
O     2.10451   0.19157  -1.53397
N     2.80958   1.91173  -0.24926
C     3.76204   2.38779  -1.23645
C     1.88196  -0.45413   1.59455
C     2.64867  -1.64685   1.02879
C     1.81615  -2.76970   0.40800
C     0.67629  -3.30799   1.27784
C    -0.64347  -2.50736   1.33148
F    -1.67830  -3.38979   1.15074
Cl   -0.96564  -1.78349   2.99002
C    -0.78239  -1.42780   0.28976
C    -0.10626  -0.31031  -0.04136
C    -0.92677   0.19841  -1.26004
C    -0.35158   1.14162  -2.30022
O    -0.01914   2.28809  -1.97349
N    -0.29169   0.67269  -3.54225
C     0.32469   1.44644  -4.60635
O    -1.38865  -1.03842  -1.81843
N    -1.89237  -1.61255  -0.66053
O    -2.89519  -0.48765  -0.24987
C    -2.29377   0.65122  -0.64188
O    -2.76131   1.74966  -0.53191
H    -0.24794   4.21455   2.13902
H    -1.26916   4.31848   0.67495
H    -1.71382   3.20862   2.00562
H    -0.07654   2.58947  -0.24972
H     2.69047   2.44067   0.60824
H     4.44885   1.58338  -1.53860
H     4.34277   3.20929  -0.80057
H     3.24221   2.75410  -2.13652
H     1.21939  -0.77345   2.40470
H     2.59994   0.23322   2.06318
H     3.22131  -2.06660   1.87271
H     3.39495  -1.31097   0.29187
H     2.48850  -3.61976   0.21351
H     1.42779  -2.46817  -0.57601
H     0.36081  -4.27887   0.86898
H     1.02109  -3.48954   2.30566
H    -0.53652  -0.29852  -3.71328
H    -0.11726   2.45121  -4.65613
H     1.40800   1.54910  -4.43263
H     0.15867   0.93083  -5.55910
