34
Generated by autodE on: 2022-06-05. E = -1287.301372 Ha
C    -1.25123   3.92060  -2.33023
N    -0.63604   3.16456  -1.25719
C    -0.79340   1.84092  -1.15395
O    -1.45626   1.17123  -1.95068
C    -0.01870   1.15156   0.00763
C     0.01244   2.01297   1.28402
O     0.49756   3.15289   1.25559
N    -0.46788   1.46179   2.40238
C    -0.43538   2.16512   3.67182
C    -0.53680  -0.19316   0.19862
C    -0.65831  -1.39775   0.15084
C    -0.19013  -2.72623  -0.20415
F    -1.20631  -3.56954  -0.57171
Cl    0.59625  -3.48664   1.27157
C     0.82061  -2.61451  -1.34723
C     1.95481  -1.58989  -1.16396
C     1.69951  -0.10983  -1.56555
C     1.47956   0.92344  -0.44306
H    -0.90172   3.56988  -3.31406
H    -2.34868   3.82617  -2.30846
H    -0.98478   4.97834  -2.21627
H    -0.09865   3.62934  -0.52449
H    -0.82712   0.51224   2.37137
H    -0.95065   3.13428   3.59437
H    -0.93956   1.55219   4.42812
H     0.60012   2.35327   3.99686
H     1.23693  -3.62227  -1.49736
H     0.22564  -2.36763  -2.24216
H     2.78145  -1.95497  -1.79123
H     2.32877  -1.64251  -0.12792
H     2.59626   0.23044  -2.10498
H     0.87761  -0.05223  -2.29725
H     2.04419   0.62414   0.45382
H     1.86245   1.90591  -0.75140
