14
Generated by autodE on: 2022-06-05. E = -565.379706 Ha
C    -3.40514  -0.22268   0.00625
N    -1.99992   0.12948   0.00760
C    -1.01024  -0.78324  -0.01641
O    -1.15444  -2.00633  -0.04454
C     0.33963  -0.18189  -0.00604
O     1.39966  -0.98891  -0.02187
N     2.53634  -0.34276  -0.00895
O     2.23051   0.93861   0.01714
C     0.81295   1.15418   0.02163
O     0.32705   2.25839   0.04327
H    -3.89871   0.13639   0.92270
H    -3.50031  -1.31312  -0.04497
H    -3.91589   0.22257  -0.86127
H    -1.74913   1.11599   0.03275
