33
Generated by autodE on: 2022-10-13. E = -856.613661 Ha
C     4.59610   2.22866  -1.22343
N     3.36875   1.56501  -1.60619
C     2.72374   0.72383  -0.73634
O     3.29853   0.28312   0.28095
N     1.43127   0.47926  -1.11668
N     0.79447  -0.50992  -0.43203
C     1.38425  -1.85964  -0.41655
C    -0.37538  -0.22822   0.07819
C    -0.68118   1.24960   0.14884
O    -0.23089   1.97690   1.00742
O    -1.55848   1.60804  -0.77869
C    -1.95688   2.99182  -0.79268
C    -1.38451  -1.17179   0.56170
C    -1.65490  -2.39138  -0.09065
C    -2.65798  -3.23281   0.38839
C    -3.40234  -2.87503   1.51728
C    -3.15030  -1.65932   2.16170
C    -2.15628  -0.80749   1.68454
H     5.02936   2.72298  -2.10337
H     5.32427   1.49684  -0.84645
H     4.44903   2.99142  -0.43593
H     2.78064   2.02303  -2.29426
H     2.45645  -1.74039  -0.23776
H     1.21517  -2.33244  -1.39305
H     0.93829  -2.46018   0.38220
H    -2.67657   3.08813  -1.61298
H    -2.42613   3.26055   0.16415
H    -1.08298   3.63413  -0.97123
H    -1.10591  -2.66864  -0.99035
H    -2.86522  -4.17147  -0.12996
H    -4.18531  -3.53958   1.88929
H    -3.73180  -1.37221   3.04029
H    -1.96129   0.13819   2.19419
