43
Generated by autodE on: 2022-10-08. E = -1311.656052 Ha. Imaginary frequency = -294.6 cm-1
C     5.15847   1.02516   0.59601
N     3.78879   0.99100   0.12550
C     2.81826   0.52008   0.95190
O     3.02153   0.24424   2.14697
N     1.55558   0.47590   0.38010
C     1.11625   0.43967  -1.66307
C     2.15438  -0.58951  -2.05825
O     3.28939  -0.13067  -2.39833
O     1.84566  -1.80792  -2.02670
C    -0.24613   0.12933  -1.67287
C    -1.26889   1.15211  -2.10160
O    -0.96315   2.37536  -2.00423
O    -2.37126   0.71101  -2.53609
C    -0.62523  -0.08885   0.60475
C    -1.07248   1.32809   0.79186
O    -0.39272   2.27226   1.13999
O    -2.39320   1.42921   0.57507
C    -2.95784   2.74287   0.63458
C    -1.66239  -1.13491   0.88667
C    -2.56051  -1.57609  -0.09691
C    -3.53363  -2.52923   0.21461
C    -3.63072  -3.04735   1.50931
C    -2.75579  -2.59356   2.50078
C    -1.78326  -1.64014   2.19295
N     0.67535  -0.38403   0.87107
C     1.09040  -1.78575   1.09958
H     5.78873   1.48280  -0.17821
H     5.24345   1.62798   1.51204
H     5.55839   0.01968   0.82032
H     3.64926   0.81775  -0.88077
H     1.39559   1.48071  -1.83080
H    -0.50604  -0.91682  -1.84240
H    -2.50496   3.37809  -0.13946
H    -2.80047   3.19147   1.62601
H    -4.02964   2.61752   0.44123
H    -2.51790  -1.14704  -1.09770
H    -4.22375  -2.86571  -0.56286
H    -4.39170  -3.79428   1.74754
H    -2.83204  -2.97816   3.52056
H    -1.11337  -1.27945   2.97612
H     2.13129  -1.89199   0.78365
H     0.46812  -2.46299   0.50392
H     1.00112  -2.04325   2.16188
