60
Generated by autodE on: 2022-10-24. E = -1543.281889 Ha
C     3.85069  -0.18443   3.33834
N     3.24196  -0.19350   2.02247
C     1.92863  -0.35465   1.86105
O     1.15750  -0.52319   2.81369
C     1.35422  -0.30916   0.39304
C     2.34366  -1.00346  -0.59689
O     3.56304  -0.78718  -0.55275
N     1.79140  -1.78145  -1.52947
C     2.57139  -2.32331  -2.62593
N     0.04418  -0.88881   0.39410
C    -0.15636  -2.28609   0.73004
C    -1.08605  -0.05721   0.01569
C    -2.09700   0.15699   1.17871
O    -3.22638   0.61760   0.95674
N    -1.63814  -0.10284   2.40465
C    -2.38822   0.27425   3.58469
C    -1.77724  -0.73565  -1.18565
C    -1.16010  -0.74746  -2.45008
C    -1.68161  -1.50524  -3.50058
C    -2.82854  -2.28205  -3.31144
C    -3.43803  -2.29751  -2.05593
C    -2.91474  -1.53709  -1.00517
C    -0.44398   1.37121  -0.28776
O    -0.73963   1.85364  -1.56493
C    -2.07439   2.30687  -1.77783
C    -0.67808   2.49341   0.81662
C    -0.10154   3.77929   0.24207
C     1.22553   3.64623   0.33549
C     1.44269   2.28710   0.97253
O     0.29400   2.13872   1.80106
C     1.12571   1.17768  -0.11872
C     1.82535   1.45742  -1.36532
N     2.38709   1.70438  -2.34977
H     3.39826   0.59592   3.96954
H     3.72122  -1.15215   3.84966
H     4.92286   0.02065   3.23153
H     3.80552  -0.18939   1.16882
H     0.77956  -1.84229  -1.57128
H     2.99891  -1.51456  -3.24094
H     3.39852  -2.94240  -2.24851
H     1.91621  -2.94177  -3.25097
H     0.76500  -2.69829   1.16131
H    -0.42522  -2.90389  -0.14511
H    -0.95418  -2.40863   1.47769
H    -0.63795  -0.32665   2.50637
H    -2.38720   1.36847   3.73241
H    -3.43343  -0.05629   3.50181
H    -1.93346  -0.19786   4.46519
H    -0.26372  -0.15818  -2.62649
H    -1.18300  -1.48773  -4.47261
H    -3.23680  -2.87539  -4.13290
H    -4.32546  -2.91105  -1.88299
H    -3.40652  -1.58090  -0.03466
H    -2.81399   1.61816  -1.34675
H    -2.21793   2.35939  -2.86512
H    -2.22922   3.30974  -1.34730
H    -1.68473   2.54002   1.23640
H    -0.67923   4.58302  -0.21192
H     2.01507   4.30481  -0.02344
H     2.37411   2.12292   1.51760
