42
Generated by autodE on: 2022-10-26. E = -1028.841485 Ha
C     2.02553  -0.08623   4.03359
N     2.19384  -0.05629   2.59923
C     1.17053  -0.30727   1.74988
O     0.00751  -0.52784   2.19434
C     1.46998  -0.30583   0.32927
C     2.74751   0.01800  -0.25404
O     3.79890   0.17515   0.41925
N     2.78359   0.18368  -1.61485
C     3.98843   0.63716  -2.27814
N     0.40188  -0.74128  -0.50668
C     0.54053  -2.04593  -1.17166
C    -0.71504  -0.05814  -0.48618
C    -0.61146   1.42655  -0.17495
O    -0.31037   2.16996  -1.11561
N    -0.96434   1.81521   1.05139
C    -0.87243   3.20458   1.45935
C    -2.02655  -0.58585  -0.86681
C    -2.89974   0.19905  -1.64586
C    -4.16035  -0.28899  -1.98315
C    -4.57332  -1.54546  -1.52575
C    -3.72127  -2.31612  -0.72709
C    -2.45137  -1.84490  -0.39954
H     1.19452   0.56249   4.35272
H     1.81664  -1.10187   4.41417
H     2.94810   0.27384   4.50750
H     3.11346   0.04173   2.16534
H     1.90220   0.35901  -2.08578
H     4.25025   1.67942  -2.02042
H     4.84241   0.00152  -2.00327
H     3.84282   0.57396  -3.36470
H     1.55849  -2.10327  -1.57252
H    -0.18548  -2.14234  -1.98700
H     0.40306  -2.85250  -0.43907
H    -0.93332   1.07168   1.75917
H     0.17527   3.51643   1.60656
H    -1.31999   3.85223   0.69317
H    -1.41636   3.33877   2.40268
H    -2.57413   1.17742  -2.00246
H    -4.82609   0.31523  -2.60290
H    -5.56563  -1.92116  -1.78518
H    -4.05030  -3.28752  -0.35216
H    -1.79982  -2.43023   0.24957
