42
Generated by autodE on: 2022-10-24. E = -1028.834447 Ha
C     3.45738   2.93120   0.52509
N     2.01954   2.83097   0.42846
C     1.39968   1.62773   0.37380
O     2.06495   0.56817   0.30206
C    -0.06553   1.63252   0.43392
C    -0.85841   2.84754   0.46252
O    -0.38739   3.95809   0.82416
N    -2.16321   2.80372   0.05285
C    -2.79077   1.82884  -0.82478
N    -0.67039   0.37616   0.55979
C    -1.61259   0.19343   1.68276
C    -0.27007  -0.66792  -0.14573
C     0.34696  -0.46952  -1.50861
O     0.10127   0.51432  -2.21630
N     1.11391  -1.48531  -1.93876
C     1.76173  -1.44211  -3.23402
C    -0.49068  -2.04130   0.34778
C     0.06795  -2.43951   1.57618
C    -0.11684  -3.74152   2.04092
C    -0.86128  -4.65669   1.28897
C    -1.41156  -4.26949   0.06223
C    -1.22157  -2.97182  -0.41301
H     3.84298   2.59834   1.50586
H     3.94360   2.31567  -0.24653
H     3.75486   3.97782   0.37674
H     1.41599   3.62306   0.65857
H    -2.63069   3.70032   0.14832
H    -2.04924   1.37061  -1.49206
H    -3.31431   1.02646  -0.27808
H    -3.53585   2.34674  -1.44450
H    -2.16993   1.12510   1.81747
H    -2.30225  -0.62988   1.46883
H    -1.05147  -0.01406   2.60301
H     1.31633  -2.25340  -1.30778
H     2.47813  -0.60618  -3.29250
H     1.02208  -1.31191  -4.03860
H     2.29956  -2.38435  -3.39307
H     0.66349  -1.72662   2.14934
H     0.32713  -4.04489   2.99167
H    -1.00726  -5.67514   1.65606
H    -1.99184  -4.98233  -0.52775
H    -1.65092  -2.66811  -1.36977
