18
Generated by autodE on: 2022-10-24. E = -514.383877 Ha
C     2.68474  -1.35701  -0.35819
O     1.95829  -0.16495  -0.01059
C     0.64840  -0.22935   0.11199
C    -0.20692   0.77741   0.44576
C     0.07724   2.11834   0.72719
N     0.29881   3.24060   0.97078
C    -1.61026   0.12521   0.29125
C    -1.83384  -0.14648  -1.21183
C    -0.97916  -1.12590  -1.52176
C    -0.26049  -1.45033  -0.19494
O    -1.30682  -1.20446   0.75323
H     3.73382  -1.05283  -0.44849
H     2.58325  -2.11292   0.43401
H     2.33076  -1.75840  -1.31859
H    -2.42414   0.59019   0.85595
H    -2.51061   0.41517  -1.85477
H    -0.75265  -1.58509  -2.48283
H     0.18578  -2.44241  -0.08096
