32
Generated by autodE on: 2022-06-16. E = -710.064576 Ha. Imaginary frequency = -275.5 cm-1
C     3.44925   1.78095   0.69034
O     2.16967   1.39666   0.17573
C     2.02667   0.10672  -0.16542
O     2.93905  -0.70705  -0.10147
C     0.66351  -0.25022  -0.57135
C     0.44018  -1.47531  -1.38841
O    -0.16959   0.78204  -0.57667
C    -1.49416   0.77180  -0.65953
C    -2.16225   2.03368  -0.21120
C    -2.18833  -0.08671  -1.54146
N    -2.87029  -0.74086  -2.23158
C    -1.58611  -0.91861   1.31703
C    -2.37132  -2.10865   0.85556
C    -0.23976  -0.95543   1.58483
C     0.42863   0.07714   2.45237
H     4.23816   1.60346  -0.05504
H     3.68370   1.22004   1.60727
H     3.37560   2.85187   0.91326
H     0.43172  -1.22141  -2.46402
H    -0.50145  -1.98292  -1.15388
H     1.26777  -2.17111  -1.20539
H    -3.22172   1.83734   0.00647
H    -2.11609   2.82042  -0.98547
H    -1.67599   2.41030   0.70024
H    -2.16231  -0.07260   1.70569
H    -3.04581  -1.88260   0.01394
H    -3.01207  -2.47563   1.67752
H    -1.71126  -2.93581   0.55316
H     0.29156  -1.90055   1.43015
H     1.52407  -0.00936   2.43314
H     0.11467  -0.04639   3.50393
H     0.15513   1.10012   2.15000
