30
Generated by autodE on: 2022-05-29. E = -1388.930387 Ha
C     3.52692  -0.79090  -0.85123
C     2.12504  -1.22092  -0.56333
O     1.73957  -2.36914  -0.63702
C     1.14264  -0.16391  -0.05672
C     1.35783   0.04322   1.47202
O     1.93788  -0.62221   2.27417
O     0.83529   1.28554   1.74298
N     0.32348   1.78321   0.48586
N     1.31681   1.26048  -0.40281
C     1.23439   1.77428  -1.76505
C    -0.93454   0.95754   0.20115
C    -1.74151   1.71357  -0.74378
N    -2.40945   2.33309  -1.46063
C    -1.77778   0.49332   1.45315
C    -3.01314  -0.18923   0.87651
C    -2.58468  -1.36738   0.40852
C    -1.09135  -1.40828   0.71325
O    -1.00843  -0.62370   1.90535
C    -0.37591  -0.44034  -0.27757
Cl   -0.71776  -0.89161  -1.98053
H     3.54573  -0.18568  -1.77233
H     4.16243  -1.67523  -0.98479
H     3.90996  -0.15559  -0.03798
H     0.29908   1.54619  -2.29564
H     2.06824   1.35463  -2.34089
H     1.36304   2.86368  -1.71552
H    -1.89774   1.25835   2.22549
H    -4.00081   0.26388   0.80801
H    -3.13595  -2.13332  -0.13397
H    -0.59788  -2.37791   0.82475
