47
Generated by autodE on: 2022-06-03. E = -1330.836631 Ha
C     5.13665   0.48163  -1.09092
N     4.06062  -0.00141  -0.24662
C     2.90970  -0.45802  -0.75965
O     2.71904  -0.60768  -1.97681
C     1.84626  -0.86357   0.19816
C     1.24446  -0.23135   1.22817
C     1.48971   1.09099   1.83658
O     1.10968   1.38533   2.95518
O     2.15684   1.92109   1.03622
C     2.39598   3.24616   1.53354
C     0.14373  -1.17684   1.69428
O     0.73488  -2.45556   1.41681
C     1.08423  -2.18248   0.05503
C    -0.33007  -1.89634  -0.54724
C    -0.40549  -0.88791  -1.72375
C    -1.35679  -1.35107  -2.74859
N    -2.10196  -1.72316  -3.55675
N    -0.83162   0.40163  -1.17321
C    -1.58540   0.12903   0.04943
C    -1.51749   1.34316   0.99133
C    -2.21363   1.25567   2.31578
O    -0.88161   2.32560   0.65186
C    -3.09663  -0.08060  -0.29869
O    -3.83574  -0.76747   0.40871
N    -3.48836   0.57913  -1.39521
C    -4.79199   0.40300  -1.99868
C    -1.02820  -1.19229   0.64878
H     4.90730   1.47490  -1.51233
H     5.30342  -0.21433  -1.92446
H     6.05454   0.55294  -0.49458
H     4.09847   0.19460   0.74870
H     2.95062   3.76665   0.74490
H     2.98845   3.21038   2.45861
H     1.43837   3.75064   1.72627
H    -0.16271  -1.08956   2.74034
H     1.63116  -3.01159  -0.40423
H    -0.79811  -2.85526  -0.79617
H     0.57283  -0.77682  -2.21631
H    -0.03097   0.99641  -0.96474
H    -3.04332   0.53944   2.31035
H    -2.55180   2.25669   2.61692
H    -1.46964   0.91908   3.05691
H    -2.73110   0.98960  -1.93942
H    -5.53932   0.21444  -1.21729
H    -4.79346  -0.44861  -2.70050
H    -5.07028   1.31132  -2.54976
H    -1.84294  -1.78674   1.07222
