47
Generated by autodE on: 2022-06-03. E = -1330.743262 Ha. Imaginary frequency = -379.3 cm-1
C     4.77313  -0.01017  -1.90932
N     3.84665  -0.62041  -0.97274
C     2.62295  -0.12410  -0.76529
O     2.18576   0.87173  -1.36670
C     1.76747  -0.85722   0.21127
C     1.19421  -0.39749   1.33968
C     1.40466   0.83552   2.10762
O     0.78414   1.09980   3.12361
O     2.37434   1.60490   1.60826
C     2.60527   2.85898   2.26278
C     0.24144  -1.50811   1.78155
O     1.04126  -2.66368   1.42417
C     1.19785  -2.28278   0.03935
C    -0.28652  -2.16307  -0.37747
C    -0.46878  -0.57715  -2.03628
C    -1.53797  -1.27574  -2.66620
N    -2.34868  -1.91414  -3.20726
N    -0.65281   0.48485  -1.22305
C    -1.56151   0.58184  -0.21703
C    -1.26988   1.65672   0.75261
C    -2.17392   1.81738   1.94058
O    -0.29096   2.38313   0.57306
C    -2.99917   0.18855  -0.42818
O    -3.67201  -0.40205   0.42339
N    -3.52382   0.60300  -1.59973
C    -4.82483   0.14976  -2.05059
C    -0.89935  -1.61780   0.73835
H     5.01178   1.02310  -1.61293
H     4.34475   0.01557  -2.92298
H     5.69757  -0.59880  -1.92630
H     4.13661  -1.43585  -0.44117
H     3.42239   3.33959   1.71283
H     2.89275   2.70200   3.31232
H     1.69860   3.47895   2.21724
H    -0.05548  -1.51398   2.83370
H     1.81603  -2.98797  -0.52476
H    -0.73401  -2.87926  -1.06218
H     0.46856  -0.57335  -2.59667
H     0.22232   1.01177  -1.05754
H    -2.29731   0.86154   2.46817
H    -1.75452   2.57379   2.61494
H    -3.17556   2.13606   1.60869
H    -2.92079   1.07204  -2.26795
H    -5.58548   0.32712  -1.27734
H    -5.10065   0.70320  -2.95643
H    -4.80894  -0.92860  -2.28287
H    -1.94750  -1.68776   1.01431
