45
Generated by autodE on: 2022-06-23. E = -1275.350362 Ha
C     1.51831   3.25895  -2.30553
O     1.66904   2.29875  -1.24509
C     1.36578   1.03317  -1.52394
O     1.03014   0.63492  -2.61562
C     1.50292   0.16518  -0.27072
N     1.36638  -1.24793  -0.59194
C     2.59008  -1.97593  -0.87686
C     0.36350  -1.88299   0.23222
C    -0.23359  -3.03567  -0.48393
N    -0.56410  -4.02162  -0.99648
C     0.88000  -2.45934   1.51106
N     1.31173  -2.98072   2.45219
C    -0.59759  -0.66766   0.54849
O    -1.43051  -0.82464   1.64854
C    -2.48266  -1.79125   1.58523
C    -1.42781  -0.29535  -0.70367
O    -1.82613  -1.17088  -1.45072
C    -1.80258   1.12370  -0.89691
C    -2.82165   1.41947  -1.95127
C    -1.21230   2.12548  -0.18299
C    -1.57770   3.55792  -0.40090
C    -0.15848   1.84110   0.81980
O     0.24900   2.68798   1.59251
C     0.45452   0.43310   0.85000
O     1.15770   0.20076   2.03797
C     0.52644   0.34968   3.31460
H     1.70349   4.23847  -1.85162
H     0.50153   3.21195  -2.71809
H     2.25077   3.05833  -3.09992
H     2.48098   0.40490   0.17488
H     3.14078  -1.44834  -1.66794
H     2.34824  -2.98271  -1.24721
H     3.24405  -2.06803   0.01086
H    -2.08658  -2.81404   1.48523
H    -3.18088  -1.58603   0.75998
H    -3.01717  -1.70993   2.53982
H    -3.21630   0.49898  -2.39549
H    -2.37294   2.03433  -2.74916
H    -3.65486   2.00427  -1.53060
H    -1.40865   3.83903  -1.45277
H    -0.99194   4.22032   0.24612
H    -2.64993   3.71708  -0.20039
H     1.21259   0.92706   3.95154
H    -0.43344   0.87407   3.25676
H     0.36531  -0.64264   3.76103
