19
Generated by autodE on: 2022-06-23. E = -585.860092 Ha
C     4.22673  -0.16133   0.19733
O     2.90831   0.34664  -0.04387
C     1.88712  -0.47335   0.25242
O     2.03584  -1.59510   0.70598
C     0.63009   0.20841  -0.05886
N    -0.57379  -0.30734   0.09827
C    -0.74923  -1.68295   0.62234
C    -1.71902   0.40113  -0.21496
C    -3.00675  -0.14433  -0.04055
N    -4.10005  -0.53834   0.08134
C    -1.61800   1.71239  -0.72502
N    -1.53961   2.79796  -1.14782
H     4.91632   0.63614  -0.10192
H     4.35899  -0.39917   1.26307
H     4.40695  -1.06564  -0.40226
H     0.69873   1.22320  -0.44862
H    -0.23340  -2.38236  -0.04320
H    -1.81495  -1.91742   0.66478
H    -0.30917  -1.73842   1.62306
