26
Generated by autodE on: 2022-06-23. E = -689.460866 Ha
C    -2.95941  -1.62045   0.38266
O    -1.55464  -1.77082   0.61303
C    -0.66374  -0.84568   0.25715
C    -0.85887   0.33128  -0.40179
O    -2.07942   0.73654  -0.86096
C    -2.68513   1.82068  -0.14904
C     0.28979   1.20444  -0.72567
O     0.10289   2.23668  -1.36765
C     1.66377   0.82018  -0.28188
C     2.78405   1.75807  -0.60295
C     1.87043  -0.35064   0.37039
C     3.23181  -0.78574   0.81745
C     0.72722  -1.25130   0.66715
O     0.88300  -2.31573   1.24968
H    -3.41823  -2.52626   0.79883
H    -3.17869  -1.55048  -0.69053
H    -3.35200  -0.73697   0.90600
H    -3.64513   2.02211  -0.64267
H    -2.05921   2.72449  -0.18568
H    -2.86639   1.54159   0.90234
H     2.41709   2.64962  -1.12459
H     3.53771   1.26128  -1.23655
H     3.30573   2.07078   0.31661
H     3.92329  -0.84532  -0.03897
H     3.66318  -0.05329   1.51977
H     3.19409  -1.76459   1.30976
