45
Generated by autodE on: 2022-06-23. E = -1275.301175 Ha. Imaginary frequency = -455.6 cm-1
C     1.75249   3.11722  -2.25759
O     1.75493   2.20285  -1.14834
C     1.66554   0.90940  -1.43600
O     1.59388   0.46402  -2.56139
C     1.79401   0.07043  -0.19570
N     1.70239  -1.28884  -0.30958
C     2.49786  -2.09195   0.63838
C     0.53824  -1.86797  -0.79255
C    -0.22789  -1.40584  -1.89388
N    -0.96953  -1.14307  -2.75493
C     0.21074  -3.18207  -0.37498
N    -0.11203  -4.23787  -0.00023
C    -0.65172  -0.55287   1.11430
O    -0.53550  -1.53947   2.00360
C    -1.65016  -2.30474   2.49403
C    -1.84304  -0.37585   0.25814
O    -2.68995  -1.26087   0.14380
C    -1.99261   0.91669  -0.47213
C    -3.11229   1.01716  -1.46031
C    -1.19235   1.97788  -0.19240
C    -1.38649   3.31554  -0.83395
C    -0.12365   1.85277   0.83416
O     0.36560   2.82861   1.38305
C     0.35321   0.47309   1.19598
O     1.20386   0.41060   2.28758
C     0.62333   0.71405   3.56247
H     1.74638   4.12024  -1.81830
H     0.86065   2.96228  -2.87867
H     2.65691   2.96901  -2.86469
H     2.64314   0.40169   0.40533
H     3.43086  -1.55722   0.84236
H     2.73322  -3.05985   0.17923
H     1.95026  -2.24793   1.57623
H    -2.01043  -3.01331   1.74197
H    -2.46484  -1.63699   2.80747
H    -1.25687  -2.84320   3.36525
H    -3.58874   0.04409  -1.62196
H    -2.74388   1.40223  -2.42322
H    -3.87830   1.72715  -1.10420
H    -1.29602   3.23767  -1.92895
H    -0.65387   4.04330  -0.46662
H    -2.39927   3.70025  -0.62846
H     1.36594   0.42110   4.31659
H     0.41802   1.79110   3.65125
H    -0.30386   0.14698   3.73241
