37
Generated by autodE on: 2022-05-29. E = -1025.339178 Ha
C    -3.49333   1.59021  -1.23756
N    -2.27564   1.05225  -0.66190
C    -2.21009  -0.20564  -0.19355
O    -3.14464  -1.00766  -0.28257
C    -0.91064  -0.58704   0.50748
C    -0.64375   0.29899   1.76190
C    -1.85660   0.82829   2.50185
N     0.19145   1.37445   1.20523
N     1.12934   0.63796   0.40212
C     2.31657   1.14949  -0.02025
O     2.99802   0.63473  -0.89632
O     2.64490   2.25499   0.66218
C     3.91251   2.84598   0.34289
C     0.42688  -0.40520  -0.32423
C     0.26633  -0.05205  -1.74100
N     0.19370   0.21053  -2.86864
C     1.05159  -1.85743  -0.16762
C     0.22185  -2.76410  -1.06431
C    -0.94408  -2.91426  -0.42352
C    -0.81148  -2.10598   0.85945
O     0.59649  -2.20852   1.13230
H    -3.87684   0.91671  -2.01757
H    -4.28084   1.71642  -0.47546
H    -3.27389   2.56667  -1.68691
H    -1.51967   1.69016  -0.41983
H    -0.04805  -0.32066   2.45042
H    -2.50357  -0.00905   2.80245
H    -1.53429   1.35192   3.41452
H    -2.44614   1.52685   1.89312
H     0.72501   1.83477   1.94639
H     4.00065   3.72891   0.98632
H     4.73044   2.14160   0.55225
H     3.94400   3.14353  -0.71493
H     2.14171  -1.87401  -0.25219
H     0.51787  -3.11540  -2.05169
H    -1.84470  -3.43089  -0.74821
H    -1.41229  -2.40462   1.72454
