21
Generated by autodE on: 2022-05-29. E = -607.926396 Ha
C     3.75540   0.22234  -0.49138
N     2.39611  -0.23594  -0.27521
C     1.34060   0.47546  -0.70435
O     1.44263   1.53947  -1.33041
C    -0.01135  -0.04115  -0.39318
C    -0.52769  -0.66470   0.68705
C     0.11276  -1.12218   1.85715
N     0.62097  -1.51533   2.82970
C    -2.07344  -0.64471   0.44879
C    -2.51325   0.82769   0.58760
C    -1.99167   1.44295  -0.47731
C    -1.24467   0.33433  -1.24776
O    -2.08187  -0.79957  -0.97325
H     3.93682   1.18294   0.01622
H     4.44906  -0.52719  -0.09278
H     3.95801   0.36235  -1.56471
H     2.24291  -1.11409   0.20996
H    -2.65367  -1.41362   0.96749
H    -3.07433   1.23330   1.42822
H    -1.99982   2.49546  -0.75630
H    -1.06352   0.48187  -2.31652
