32
Generated by autodE on: 2022-06-18. E = -930.687004 Ha
C     0.96842  -2.84836  -0.79218
N     0.95162  -1.63679   0.01768
C     1.76076  -0.59628  -0.34440
C     1.82433   0.58997   0.31650
C     2.72870   1.62283  -0.21188
N     2.90270   2.73258   0.54797
O     3.31785   1.50732  -1.30463
C     1.02969   0.74541   1.58841
C    -0.29020  -0.03004   1.54709
C    -0.26682  -1.36925   0.74979
C    -1.51690  -1.11830  -0.18055
C    -2.17622  -2.27621  -0.77843
N    -2.68809  -3.21118  -1.23014
O    -1.11406  -0.18832  -1.21240
C    -1.06787   1.02370  -0.56826
O    -0.74468   2.04530  -1.10294
C    -1.48103   0.72171   0.87610
C    -2.11876   1.85192   1.62694
O    -2.39382  -0.38254   0.62563
H     0.42470  -2.72393  -1.74545
H     2.00616  -3.12490  -1.02088
H     0.50687  -3.67212  -0.22976
H     2.40431  -0.77582  -1.20820
H     2.50328   2.83374   1.47204
H     3.53485   3.45121   0.21296
H     1.61735   0.37818   2.44785
H     0.80030   1.79973   1.80243
H    -0.62756  -0.24117   2.56917
H    -0.50681  -2.22391   1.39519
H    -2.41348   1.52065   2.63243
H    -3.00193   2.22143   1.08706
H    -1.39765   2.67630   1.72113
