12
Generated by autodE on: 2022-06-18. E = -472.896364 Ha
C    -2.60264  -0.93511  -0.16803
C    -1.28009  -0.29599  -0.04103
O    -0.14471  -1.01869  -0.25606
C     0.89512  -0.24667  -0.08744
C     2.21455  -0.70233  -0.24008
N     3.31329  -1.07008  -0.36508
O     0.55054   0.97044   0.23402
C    -0.91561   1.02366   0.28687
O    -1.48064   2.05977   0.56669
H    -2.76351  -1.33414  -1.18325
H    -3.37376  -0.18043   0.03788
H    -2.72226  -1.76455   0.54870
