39
Generated by autodE on: 2022-05-30. E = -1105.493687 Ha
C    -3.73444  -2.54372  -0.93364
N    -2.75868  -1.49090  -1.14111
C    -1.83031  -1.20069  -0.22820
O    -1.70325  -1.79411   0.84603
C    -0.89956  -0.01519  -0.57247
C    -1.32129   1.25150   0.19951
C    -2.33309   1.23712   1.16557
C    -2.67277   2.41156   1.84601
C    -2.00177   3.60507   1.57405
C    -0.98470   3.62033   0.61317
C    -0.64691   2.45128  -0.06884
N    -0.89880   0.25608  -2.01441
C     0.30953   0.11695  -2.43201
C     1.25814  -0.27146  -1.37541
C     2.70241  -0.47606  -1.61660
O     3.17825  -0.57987  -2.73164
O     3.41383  -0.51668  -0.49167
C     4.82501  -0.74641  -0.62089
C     0.53561  -0.39604  -0.23733
C     0.97105  -0.87967   1.10081
O     1.49039  -1.95924   1.28686
O     0.70477   0.00686   2.05494
C     1.01064  -0.38221   3.40428
H    -4.30895  -2.68139  -1.85724
H    -3.23637  -3.49049  -0.67653
H    -4.42894  -2.29011  -0.11664
H    -2.76857  -0.93558  -1.99164
H    -2.85495   0.31265   1.41120
H    -3.46696   2.38575   2.59574
H    -2.26711   4.51996   2.10877
H    -0.44973   4.54712   0.39349
H     0.15105   2.47578  -0.81366
H     0.59165   0.26298  -3.47844
H     5.21982  -0.76839   0.40096
H     5.29357   0.06620  -1.19442
H     5.01190  -1.70600  -1.12382
H     2.08341  -0.59776   3.50739
H     0.72885   0.47036   4.03204
H     0.42572  -1.27141   3.67951
