23
Generated by autodE on: 2022-05-30. E = -572.023959 Ha
C     0.27061  -3.23516   0.48296
N     0.33895  -2.04735   0.27246
C     0.40641  -0.75504   0.20173
C     1.76332  -0.19525   0.48300
O     2.63798  -0.88678   1.02330
N     1.99628   1.07507   0.09154
C     3.28769   1.70046   0.29364
C    -0.80935   0.00140  -0.16674
C    -1.06850   1.28712   0.34901
C    -2.23944   1.96671   0.00692
C    -3.17923   1.37689  -0.84315
C    -2.93965   0.09425  -1.34849
C    -1.76821  -0.58565  -1.01699
H     0.43734  -4.00728  -0.28479
H     1.27713   1.58556  -0.40792
H     3.58868   1.64767   1.35115
H     4.07487   1.21290  -0.30533
H     3.22099   2.75437  -0.00310
H    -0.36492   1.75153   1.04064
H    -2.42198   2.96130   0.42056
H    -4.09449   1.91119  -1.10773
H    -3.66742  -0.37790  -2.01271
H    -1.58555  -1.58192  -1.42573
