39
Generated by autodE on: 2022-05-30. E = -1105.364396 Ha. Imaginary frequency = -243.6 cm-1
C    -2.26917  -3.37288  -1.10404
N    -1.77374  -2.03391  -1.35903
C    -1.92810  -1.05865  -0.44090
O    -2.59660  -1.23296   0.58628
C    -1.21269   0.23286  -0.69712
C    -1.43787   1.46725   0.07715
C    -2.57252   1.64788   0.89115
C    -2.72290   2.81424   1.64362
C    -1.75517   3.82109   1.59728
C    -0.63063   3.65654   0.77974
C    -0.47403   2.49597   0.02647
N    -0.39067   0.27250  -1.71325
C     0.67031   0.16170  -2.27587
C     1.95831  -0.54514  -0.48847
C     3.22274  -0.43598  -1.20729
O     4.08714   0.36871  -0.92282
O     3.31009  -1.31511  -2.20634
C     4.51576  -1.28056  -2.98817
C     1.22233  -0.71441   0.48595
C     0.40818  -1.00700   1.62710
O    -0.01514  -2.12104   1.89516
O     0.16845   0.08400   2.36837
C    -0.72473  -0.07992   3.48071
H    -2.05243  -4.00139  -1.97605
H    -1.78594  -3.81226  -0.21620
H    -3.35614  -3.36656  -0.93162
H    -1.19464  -1.87915  -2.17639
H    -3.33058   0.87042   0.93764
H    -3.60941   2.93530   2.27058
H    -1.87666   4.73076   2.18978
H     0.13239   4.43689   0.73210
H     0.41403   2.37900  -0.59693
H     0.96012   0.29368  -3.32477
H     4.39793  -2.05594  -3.75345
H     5.38936  -1.49695  -2.35692
H     4.63684  -0.29433  -3.45883
H    -0.27595  -0.73580   4.24103
H    -0.87883   0.92535   3.88869
H    -1.67921  -0.50428   3.14254
