63
Generated by autodE on: 2022-06-05. E = -1387.539321 Ha
C    -0.72606  -3.10286   3.30013
O    -0.27488  -2.35609   2.16083
C    -0.81359  -2.67249   0.98769
O    -1.59053  -3.59533   0.83754
C    -0.35762  -1.78167  -0.17505
C    -0.11309  -2.71685  -1.36380
O     0.88268  -1.15538   0.23142
C     1.09600   0.16682  -0.32984
C     2.31528   0.10373  -1.25992
C     2.43982   0.97758  -2.34935
C     3.57044   0.93390  -3.17037
C     4.59217   0.01481  -2.91336
C     4.47435  -0.85823  -1.82734
C     3.34500  -0.81195  -1.00516
C     1.43850   1.14772   0.78468
C     1.51046   2.52050   0.50343
C     1.80923   3.43625   1.51422
C     2.05892   2.99018   2.81712
C     2.01462   1.62125   3.09474
C     1.70874   0.70463   2.08445
C    -0.21245   0.32545  -1.13195
C    -1.00113   1.43639  -1.90547
C    -1.18680   0.80276  -3.30616
C    -2.04832  -0.46506  -2.96378
C    -2.44103  -0.28546  -1.46960
C    -2.45567   1.27045  -1.40258
C    -1.28472  -0.52481  -0.42343
C    -1.86903  -0.08136   0.93333
C    -2.92222  -0.84967   1.46362
C    -3.51110  -0.53606   2.69007
C    -3.07648   0.57854   3.41357
C    -2.07052   1.38327   2.87535
C    -1.48424   1.06025   1.64730
H    -0.17821  -2.69951   4.15916
H    -1.80775  -2.96299   3.43894
H    -0.50554  -4.17204   3.17237
H     0.60081  -3.49759  -1.06194
H    -1.04765  -3.20084  -1.67416
H     0.32136  -2.18517  -2.21769
H     1.65071   1.69907  -2.56425
H     3.64892   1.61945  -4.01767
H     5.47452  -0.02173  -3.55669
H     5.26617  -1.58183  -1.61812
H     3.25482  -1.49655  -0.16133
H     1.30927   2.87975  -0.50702
H     1.84415   4.50390   1.28422
H     2.28928   3.70639   3.60935
H     2.21053   1.26184   4.10803
H     1.64427  -0.35845   2.31088
H     0.07107  -0.33414  -1.95350
H    -0.58337   2.45001  -1.88635
H    -0.22948   0.54783  -3.78365
H    -1.73125   1.48441  -3.97707
H    -1.52072  -1.40435  -3.16606
H    -2.96975  -0.48355  -3.56365
H    -3.38127  -0.78276  -1.20373
H    -3.17724   1.70427  -2.11080
H    -2.65993   1.68671  -0.41293
H    -3.28737  -1.71637   0.91268
H    -4.31735  -1.16408   3.07686
H    -3.53071   0.82652   4.37583
H    -1.73690   2.27797   3.40654
H    -0.73821   1.73269   1.23943
