36
Generated by autodE on: 2022-06-05. E = -883.475835 Ha
C     4.65976   0.75955  -0.77978
O     3.29038   0.42173  -0.56531
C     3.01187  -0.90772  -0.44828
O     3.89502  -1.76474  -0.54795
C     1.62749  -1.19607  -0.20990
C     1.13038  -2.57023   0.03693
O     0.86328  -0.10522  -0.06931
C    -0.40975   0.10789   0.12701
C    -0.71525   1.46849   0.54807
C     0.32020   2.32102   1.00173
C     0.04264   3.62786   1.39130
C    -1.26914   4.11759   1.34847
C    -2.30129   3.28621   0.90001
C    -2.03261   1.97852   0.49976
C    -1.43193  -0.90551  -0.16075
C    -2.47788  -1.16103   0.74803
C    -3.47059  -2.08829   0.43693
C    -3.44671  -2.76188  -0.79052
C    -2.42152  -2.50405  -1.70521
C    -1.41666  -1.58690  -1.39420
H     4.69521   1.85351  -0.85599
H     5.28920   0.42477   0.05923
H     5.03834   0.30917  -1.71011
H     1.99778  -3.22601   0.18784
H     0.52643  -2.98824  -0.78844
H     0.49515  -2.60194   0.93856
H     1.34217   1.94340   1.04459
H     0.85484   4.26992   1.74016
H    -1.48436   5.14156   1.66193
H    -3.32575   3.66246   0.85253
H    -2.84580   1.35373   0.13041
H    -2.49537  -0.64198   1.70780
H    -4.26683  -2.29019   1.15694
H    -4.22815  -3.48558  -1.03310
H    -2.40294  -3.01912  -2.66821
H    -0.62718  -1.37608  -2.11802
