63
Generated by autodE on: 2022-06-05. E = -1387.483735 Ha. Imaginary frequency = -331.5 cm-1
C    -1.13263  -2.74031   3.47340
O    -0.47398  -2.05716   2.40445
C    -0.66474  -2.54583   1.16274
O    -1.39751  -3.50970   0.94572
C     0.05110  -1.83049   0.11880
C     0.36423  -2.56854  -1.13885
O     0.81499  -0.83734   0.58862
C     1.35984   0.21055  -0.03420
C     2.25669  -0.02275  -1.20236
C     2.36395   0.87911  -2.27361
C     3.28150   0.65668  -3.30162
C     4.11161  -0.46828  -3.27757
C     4.02815  -1.36204  -2.20562
C     3.11729  -1.13708  -1.17261
C     1.76116   1.25495   0.94522
C     2.35639   2.46315   0.53405
C     2.68996   3.44921   1.46444
C     2.45137   3.24965   2.82714
C     1.87373   2.04760   3.24962
C     1.52891   1.06411   2.32328
C    -0.67494   1.05707  -0.80966
C    -0.92400   1.37400  -2.28867
C    -0.70166   0.12906  -3.19055
C    -1.87234  -0.81097  -2.79338
C    -2.58297  -0.02123  -1.67523
C    -2.47720   1.41520  -2.25807
C    -1.69872   0.17338  -0.42728
C    -2.27153   0.05931   0.91870
C    -3.34607  -0.81980   1.18084
C    -3.92660  -0.89174   2.44675
C    -3.44688  -0.09705   3.49388
C    -2.37888   0.77382   3.25407
C    -1.80608   0.85690   1.98533
H    -0.96494  -2.13292   4.37041
H    -0.69882  -3.74283   3.61154
H    -2.20859  -2.83322   3.27983
H     1.26934  -3.19021  -1.00531
H    -0.46943  -3.24203  -1.36862
H     0.54574  -1.91071  -1.99113
H     1.71031   1.74832  -2.31816
H     3.34004   1.36399  -4.13211
H     4.82448  -0.64368  -4.08653
H     4.68245  -2.23618  -2.16689
H     3.07714  -1.82261  -0.32503
H     2.56043   2.64452  -0.52003
H     3.14428   4.38033   1.11756
H     2.71679   4.02116   3.55348
H     1.68865   1.87138   4.31205
H     1.07849   0.13418   2.66538
H    -0.33297   1.85633  -0.15720
H    -0.41738   2.27985  -2.64438
H    -0.76384   0.42370  -4.24887
H     0.28417  -0.32252  -3.04025
H    -1.55002  -1.80369  -2.46885
H    -2.57027  -0.95134  -3.63265
H    -3.59201  -0.38454  -1.45084
H    -2.93992   1.52082  -3.25430
H    -2.87495   2.18788  -1.58350
H    -3.71769  -1.46744   0.38568
H    -4.75538  -1.58255   2.62049
H    -3.89913  -0.15845   4.48636
H    -1.99266   1.40363   4.05964
H    -0.99347   1.56209   1.81749
