48
Generated by autodE on: 2022-06-03. E = -1567.105422 Ha
C     3.34731  -2.74116  -0.81347
N     2.66385  -1.46412  -0.85655
C     1.83855  -1.08844   0.12414
O     1.68897  -1.74103   1.16202
C     0.98558   0.20643  -0.08174
C     1.61605   1.19047  -1.10161
O     2.08041   0.80123  -2.18625
N     1.61067   2.47862  -0.75978
C     2.09103   3.51147  -1.65660
N     0.78412   0.87658   1.19931
C     1.95755   1.09510   2.04360
C    -0.33386   0.25807   1.88974
C    -0.90076   1.16206   2.90053
N    -1.32088   1.86200   3.72427
C    -1.35101  -0.16417   0.79428
Cl   -2.14115  -1.68483   1.40103
C    -2.44313   0.89461   0.49656
C    -3.45060   0.35354  -0.52966
C    -2.61515   0.30440  -1.83590
C    -1.23158   0.86161  -1.40520
C    -1.66644   1.90522  -0.35961
C    -0.49489  -0.22217  -0.55217
C    -0.37351  -1.56539  -1.31725
C    -0.06625  -1.49559  -2.79296
O    -0.44469  -2.63597  -0.74828
H     2.62229  -3.57039  -0.76567
H     4.00377  -2.81277   0.06729
H     3.95505  -2.85007  -1.71989
H     2.69606  -0.86853  -1.68640
H     1.18053   2.72292   0.12721
H     3.11808   3.29350  -1.98516
H     2.07934   4.47215  -1.12813
H     1.45396   3.58734  -2.55276
H     2.80595   1.41254   1.42396
H     1.74560   1.90001   2.76341
H     2.25325   0.19060   2.60089
H    -0.01344  -0.64964   2.42860
H    -2.90439   1.27179   1.41672
H    -4.28971   1.05866  -0.61230
H    -3.85982  -0.62269  -0.24384
H    -2.57455  -0.70732  -2.25610
H    -3.03709   0.95787  -2.61257
H    -0.63280   1.22811  -2.24549
H    -0.84932   2.40100   0.16989
H    -2.32694   2.67102  -0.79107
H     0.68116  -0.71919  -2.99966
H    -0.97014  -1.23968  -3.36401
H     0.29434  -2.47858  -3.12199
