26
Generated by autodE on: 2022-06-03. E = -681.829504 Ha
C    -1.87541   1.83162  -0.83575
N    -2.08415   1.05136   0.36868
C    -1.30778   0.06213   0.84533
O    -1.61370  -0.58327   1.86182
C    -0.08004  -0.30152   0.05829
C    -0.04189  -1.64215  -0.57713
O     0.63225  -1.90435  -1.58667
N    -0.84478  -2.56686  -0.00390
C    -0.96074  -3.90253  -0.54772
N     0.94128   0.56866  -0.02042
C     2.15654   0.21709  -0.79767
C     0.93706   1.77303   0.59689
C     1.97155   2.70519   0.46951
N     2.79836   3.53374   0.40802
H    -1.27751   1.26029  -1.55774
H    -2.84839   2.05020  -1.29613
H    -1.36611   2.78660  -0.62793
H    -2.88657   1.28225   0.95196
H    -1.28554  -2.33444   0.88288
H    -0.02426  -4.47542  -0.43748
H    -1.20705  -3.86905  -1.62000
H    -1.76057  -4.43373  -0.01697
H     1.91340   0.21641  -1.86408
H     2.49696  -0.77960  -0.50465
H     2.93470   0.95299  -0.58139
H     0.09932   2.02971   1.24146
