48
Generated by autodE on: 2022-06-03. E = -1567.039505 Ha. Imaginary frequency = -312.2 cm-1
C     3.08099  -3.00801  -0.89415
N     2.67208  -1.62322  -0.81597
C     1.98296  -1.16268   0.23799
O     1.74729  -1.89375   1.21694
C     1.51960   0.27251   0.19229
C     1.99739   1.18662  -0.89032
O     2.74259   0.78188  -1.80715
N     1.54951   2.45959  -0.93617
C     1.83346   3.29961  -2.08510
N     0.95939   0.77455   1.34746
C     1.31857   2.08372   1.93113
C    -0.02888   0.04011   1.95651
C    -0.63610   0.55109   3.14114
N    -1.21437   0.94350   4.07228
C    -1.58460  -0.26485   0.54629
Cl   -2.24306  -1.75783   1.23996
C    -2.53743   0.92998   0.56791
C    -3.61665   0.65066  -0.51781
C    -2.81672   0.77739  -1.84585
C    -1.36000   1.07450  -1.35437
C    -1.67652   1.97848  -0.14534
C    -0.89944  -0.22367  -0.69927
C    -0.39703  -1.37196  -1.46286
C     0.02090  -1.11328  -2.89009
O    -0.29978  -2.49832  -0.97238
H     2.21150  -3.67680  -0.79868
H     3.79989  -3.27131  -0.10071
H     3.55537  -3.18054  -1.86849
H     2.89730  -0.94256  -1.54543
H     0.81779   2.77497  -0.31489
H     2.91768   3.39921  -2.23898
H     1.40563   4.29304  -1.90312
H     1.39477   2.88310  -3.00706
H     2.21849   2.46829   1.44771
H     0.50102   2.81475   1.84930
H     1.53918   1.92966   2.99548
H     0.11489  -1.03846   1.93500
H    -2.92797   1.17861   1.56176
H    -4.40884   1.40987  -0.44890
H    -4.08052  -0.33594  -0.38428
H    -2.86630  -0.12778  -2.46608
H    -3.17385   1.62274  -2.45287
H    -0.69784   1.48089  -2.12579
H    -0.81307   2.28450   0.44859
H    -2.24316   2.87611  -0.42937
H     0.81271  -0.34955  -2.92263
H    -0.82514  -0.73249  -3.48324
H     0.39022  -2.04636  -3.33476
