41
Generated by autodE on: 2022-06-17. E = -791.009053 Ha
C    -5.33602  -1.46856   0.95424
C    -4.43427  -0.72538   0.28076
C    -4.85942   0.36740  -0.66478
C    -2.99994  -0.97558   0.46459
C    -2.00271  -0.30751  -0.14624
C    -0.55497  -0.59360   0.07148
C     0.25210  -1.03386  -1.19582
C    -0.23804  -0.40702  -2.50703
C     0.26512  -2.55556  -1.33214
N     1.62649  -0.54874  -0.95134
C     1.62304   0.28458   0.01661
C     2.88501   0.97717   0.44306
O     2.90118   1.94361   1.18256
O     3.98574   0.42741  -0.06837
C     5.23339   1.04377   0.28302
C     0.28263   0.58260   0.67806
C     0.32306   0.47539   2.20776
C    -0.21115   1.98332   0.27143
H    -6.41130  -1.30538   0.83909
H    -5.01787  -2.26061   1.63920
H    -4.44848   1.34246  -0.35414
H    -4.48289   0.17877  -1.68398
H    -5.95440   0.45175  -0.71031
H    -2.74159  -1.78052   1.16319
H    -2.24719   0.49713  -0.84373
H    -0.47703  -1.42594   0.78756
H     0.45231  -0.66327  -3.32486
H    -1.23451  -0.79443  -2.76572
H    -0.29827   0.68844  -2.43929
H     0.83703  -2.86936  -2.21904
H     0.71205  -3.02638  -0.44312
H    -0.76641  -2.92706  -1.43558
H     5.25583   2.08861  -0.05906
H     5.38378   1.01367   1.37198
H     6.01086   0.46103  -0.22404
H    -0.70657   0.48701   2.60010
H     0.87138   1.31389   2.65905
H     0.79860  -0.46451   2.52900
H     0.49068   2.75003   0.62831
H    -0.30633   2.08676  -0.81865
H    -1.19460   2.18380   0.72324
