41
Generated by autodE on: 2022-06-17. E = -790.911931 Ha. Imaginary frequency = -319.1 cm-1
C    -5.29418  -1.46784  -0.48547
C    -4.27674  -0.58740  -0.32107
C    -4.39694   0.82600  -0.83820
C    -3.04026  -0.97988   0.34026
C    -1.96389  -0.16567   0.55836
C    -0.73361  -0.56153   1.16977
C     0.27929  -1.45954  -1.20692
C    -0.73146  -1.06465  -2.23125
C     0.39655  -2.90261  -0.82725
N     1.24285  -0.63550  -0.90013
C     1.67856   0.16756  -0.07614
C     2.97086   0.85898  -0.05681
O     3.95175   0.42883   0.52514
O     2.89581   2.06321  -0.63392
C     4.07161   2.88726  -0.55464
C     0.31007   0.30197   1.54469
C     1.25380  -0.18486   2.62774
C     0.11442   1.80550   1.51950
H    -6.22146  -1.18196  -0.98961
H    -5.21784  -2.49669  -0.11908
H    -4.28676   1.56124  -0.02374
H    -3.60234   1.04808  -1.57023
H    -5.36940   0.99328  -1.32278
H    -2.98182  -2.02240   0.67717
H    -2.03378   0.87375   0.22312
H    -0.65550  -1.60607   1.48813
H    -0.73386   0.01971  -2.40400
H    -0.53830  -1.58536  -3.18577
H    -1.73077  -1.37309  -1.88320
H     0.73724  -3.50450  -1.68925
H     1.09636  -3.04760   0.00653
H    -0.59844  -3.28028  -0.54316
H     3.81648   3.82325  -1.06438
H     4.91858   2.39916  -1.05753
H     4.33046   3.08319   0.49579
H     0.80677  -0.00171   3.62202
H     2.22011   0.34074   2.60521
H     1.44505  -1.26532   2.54004
H    -0.52280   2.12137   2.36509
H     1.07686   2.32974   1.61903
H    -0.36235   2.15422   0.59258
