20
Generated by autodE on: 2022-05-30. E = -573.578532 Ha
C    -2.80752   0.28755  -0.81492
C    -1.74415   0.86853   0.05830
O    -1.63340   2.03895   0.36026
C    -0.65556  -0.09963   0.51174
O    -0.95784  -0.83608   1.50171
O    -2.22569  -0.62401   2.03431
C     0.64438  -0.19787  -0.10142
C     0.95807   0.63511  -1.19820
C     2.20831   0.54048  -1.80347
C     3.14957  -0.37758  -1.32617
C     2.84435  -1.20732  -0.23707
C     1.60154  -1.12285   0.37646
H    -2.38206   0.17497  -1.82798
H    -3.67082   0.96577  -0.85588
H    -3.10275  -0.70823  -0.45575
H     0.22808   1.35531  -1.57088
H     2.45060   1.18476  -2.65057
H     4.12906  -0.44909  -1.80418
H     3.58421  -1.92097   0.13053
H     1.35681  -1.76450   1.22377
