13
Generated by autodE on: 2022-05-30. E = -642.534057 Ha
C    -4.17930   0.08573   0.19227
O    -2.76706   0.37231   0.17944
C    -1.95706  -0.65892  -0.02148
O    -2.30329  -1.80765  -0.19169
C    -0.55923  -0.24775  -0.01513
C     0.61620   0.03292  -0.01949
C     2.04397   0.37617  -0.02700
F     2.72273  -0.36737   0.85730
F     2.23796   1.66388   0.28956
F     2.58073   0.16802  -1.23700
H    -4.67551   1.04695   0.36429
H    -4.41408  -0.61989   1.00147
H    -4.48690  -0.34027  -0.77304
