33
Generated by autodE on: 2022-05-30. E = -1216.114495 Ha. Imaginary frequency = -204.5 cm-1
C     0.27713  -3.60588   0.77148
O     0.56711  -2.21658   0.99746
C     1.08758  -1.53977  -0.03359
O     1.35679  -2.03516  -1.11229
C     1.25045  -0.15073   0.29541
C     1.49081   1.01338   0.62513
C     2.36710   2.07479   1.16055
F     2.37353   3.16311   0.37661
F     3.63264   1.63339   1.25035
F     1.99184   2.46606   2.38780
O    -0.11832   2.24164   0.45280
O    -1.10607   1.28700   0.55319
C    -1.12377   0.49597  -0.47072
C    -0.61591   1.07741  -1.79782
C    -1.43880   2.22964  -2.29427
O     0.28539   0.56205  -2.41792
C    -1.90380  -0.71364  -0.40424
C    -2.06676  -1.50566  -1.56283
C    -2.77933  -2.69906  -1.48909
C    -3.32721  -3.11368  -0.27091
C    -3.16151  -2.33629   0.88497
C    -2.45200  -1.14516   0.82675
H    -0.40062  -3.72114  -0.08498
H     1.20586  -4.16459   0.58658
H    -0.20527  -3.96244   1.68820
H    -1.68524   2.93305  -1.48823
H    -2.38458   1.81281  -2.68280
H    -0.90319   2.73461  -3.10903
H    -1.63104  -1.19210  -2.51148
H    -2.90477  -3.31081  -2.38413
H    -3.88135  -4.05327  -0.21700
H    -3.58275  -2.67200   1.83433
H    -2.30078  -0.54603   1.72489
