43
Generated by autodE on: 2022-10-21. E = -1029.030949 Ha
C    -3.57896   2.88548  -1.13241
N    -2.79850   1.68355  -0.91753
C    -1.63600   1.71330  -0.25790
O    -1.17113   2.74308   0.24294
C    -0.82018   0.39243  -0.17542
C    -1.65988  -0.87749  -0.48097
O    -2.36848  -0.94558  -1.50035
N    -1.52800  -1.87625   0.39258
C    -2.07156  -3.19823   0.16635
C     0.31783   0.49199  -1.21994
C     1.51670  -0.15477  -0.53036
O     2.68349   0.29055  -1.15756
C     3.90534  -0.31463  -0.74166
O     1.44638  -1.55701  -0.47770
C     1.30417  -2.24563  -1.71566
C     1.32856   0.33380   0.95699
C     1.93203   1.72619   1.20068
C     1.93240  -0.62392   1.90759
N     2.38908  -1.33713   2.70096
N    -0.12387   0.26410   1.09838
C    -0.74649   0.68722   2.33663
H    -4.51837   2.61579  -1.63025
H    -3.81229   3.37801  -0.17639
H    -3.03932   3.61191  -1.76257
H    -3.04007   0.80897  -1.38604
H    -0.81125  -1.72932   1.10148
H    -1.38477  -3.81634  -0.43715
H    -2.23799  -3.69852   1.12964
H    -3.02754  -3.11995  -0.36752
H     0.56215   1.54195  -1.41672
H     0.06102   0.01401  -2.17121
H     3.91542  -1.39558  -0.94785
H     4.70187   0.17081  -1.32086
H     4.10299  -0.15774   0.33094
H     1.57917  -3.29167  -1.52463
H     0.26608  -2.21438  -2.08428
H     1.97424  -1.83340  -2.48618
H     3.02159   1.71681   1.06642
H     1.48484   2.44829   0.50652
H     1.71289   2.05089   2.22734
H    -0.28716   0.15373   3.18404
H    -0.67997   1.77175   2.52476
H    -1.81134   0.41300   2.31395
