14
Generated by autodE on: 2022-10-21. E = -307.788430 Ha
C     0.66852   1.62764   0.38470
C     0.03796   0.48683   0.04482
O    -1.30650   0.45994  -0.11533
C    -1.98227  -0.79687  -0.05389
O     0.60354  -0.71160  -0.19890
C     2.01038  -0.83417  -0.03430
H     1.75258   1.69002   0.44993
H     0.06973   2.51880   0.57314
H    -3.05354  -0.56304  -0.10453
H    -1.71121  -1.44504  -0.90060
H    -1.76701  -1.32303   0.88981
H     2.25724  -1.88327  -0.23964
H     2.30895  -0.57734   0.99518
H     2.54804  -0.18310  -0.74266
