29
Generated by autodE on: 2022-10-26. E = -721.170374 Ha
C    -2.04067   2.73586  -1.65411
N    -1.56360   1.41082  -1.31411
C    -0.63727   1.21997  -0.34151
O    -0.12990   2.19261   0.24636
C    -0.28247  -0.16920   0.00917
C    -1.15618  -1.34768  -0.15023
O    -0.68808  -2.50036  -0.19510
N    -2.49377  -1.14314  -0.25407
C    -3.40930  -2.24882  -0.44642
N     0.93346  -0.38781   0.61514
C     1.03245  -1.35344   1.73647
C     2.04799   0.26956   0.26961
C     2.18985   1.04965  -0.98931
C     3.18234   0.16960   1.11528
N     4.15758   0.11695   1.75493
H    -1.25070   3.34970  -2.11866
H    -2.39646   3.26836  -0.75887
H    -2.87313   2.64113  -2.36263
H    -1.88765   0.61934  -1.85722
H    -2.87409  -0.21795  -0.09294
H    -4.41308  -1.84877  -0.63732
H    -3.45404  -2.90640   0.43847
H    -3.10422  -2.86524  -1.30571
H     0.03472  -1.69294   2.01732
H     1.48398  -0.83491   2.59214
H     1.65797  -2.20620   1.44791
H     1.87277   2.09766  -0.85672
H     3.23737   1.03472  -1.32029
H     1.54311   0.61212  -1.76779
