43
Generated by autodE on: 2022-10-21. E = -1028.932456 Ha. Imaginary frequency = -416.6 cm-1
C    -2.78381   2.66443  -1.86940
N    -1.93961   1.54090  -1.51290
C    -1.60467   1.29631  -0.23286
O    -1.92717   2.06125   0.68671
C    -0.94409  -0.03480   0.06227
C    -1.90982  -1.20379  -0.12881
O    -1.54485  -2.30253  -0.55975
N    -3.19256  -0.95482   0.19238
C    -4.22382  -1.96592   0.05471
C     0.55794  -0.32651  -1.51956
C     1.84663  -0.22947  -0.98995
O     2.60558   0.83793  -1.35725
C     3.89272   0.99229  -0.76765
O     2.57680  -1.27168  -0.51845
C     2.14392  -2.60036  -0.79609
C     1.02718   0.68125   1.18064
C     1.02551   2.11906   0.73437
C     2.00867   0.33277   2.13535
N     2.88156   0.05072   2.86509
N    -0.11720  -0.11445   1.15122
C    -0.09030  -1.34731   1.94958
H    -2.89697   2.69083  -2.95999
H    -2.33628   3.61288  -1.53619
H    -3.78255   2.57956  -1.40923
H    -1.70547   0.85810  -2.22444
H    -3.42828  -0.07318   0.63802
H    -4.06914  -2.79927   0.75939
H    -4.22487  -2.37850  -0.96511
H    -5.19914  -1.50662   0.25595
H     0.30359   0.46473  -2.22261
H     0.14240  -1.30931  -1.72089
H     3.83451   1.00415   0.33084
H     4.27601   1.95678  -1.12438
H     4.57492   0.18745  -1.08064
H     2.88326  -3.26555  -0.33206
H     1.15210  -2.80866  -0.36925
H     2.11467  -2.78094  -1.88296
H     0.35566   2.73598   1.35589
H     2.04323   2.52212   0.81465
H     0.71176   2.23297  -0.31056
H    -1.09836  -1.76475   2.02706
H     0.58520  -2.10115   1.52174
H     0.24512  -1.10538   2.96466
