34
Generated by autodE on: 2022-06-26. E = -749.277313 Ha
C     2.96318   1.72721  -0.49882
C     2.02015   0.65802  -0.99983
O     1.79980   0.56740  -2.23187
C     1.37325  -0.22000  -0.07932
C     1.48156  -0.22989   1.34678
C     0.79211  -1.33873   2.12939
O     2.11928   0.63144   1.99148
N     0.55676  -1.23795  -0.70781
C     1.27633  -2.33196  -1.37738
C    -0.74560  -1.26504  -0.60534
C    -1.50113  -2.47235  -1.04605
C    -1.48996  -0.09990  -0.08713
C    -2.49467  -0.28005   0.87786
C    -3.21306   0.81896   1.35332
C    -2.96007   2.09476   0.84266
C    -1.98312   2.27286  -0.14494
C    -1.24145   1.18615  -0.60236
H     2.42152   2.46028   0.11860
H     3.40478   2.23475  -1.36803
H     3.75476   1.30803   0.13873
H     0.74373  -2.29786   1.59549
H    -0.23948  -1.03721   2.37533
H     1.33350  -1.47428   3.07593
H     2.30292  -2.00411  -1.56131
H     1.29083  -3.21738  -0.72329
H     0.79515  -2.59111  -2.32882
H    -1.04505  -3.39517  -0.65810
H    -2.54954  -2.41426  -0.73612
H    -1.47469  -2.53053  -2.14798
H    -2.69800  -1.27665   1.27395
H    -3.97746   0.67496   2.11977
H    -3.53085   2.95213   1.20662
H    -1.79843   3.26557  -0.56102
H    -0.49016   1.31921  -1.38093
