43
Generated by autodE on: 2022-06-20. E = -958.542666 Ha
C    -2.51143   0.53049  -2.06356
C    -1.91742  -0.65024  -1.84237
C    -2.34224  -1.90519  -2.55623
C    -0.75391  -0.81686  -0.87526
C     0.26554   0.35672  -0.87036
C     1.68894  -0.12428  -0.75842
C     2.74779   0.40120  -1.40070
C     2.65444   1.57196  -2.34749
C     4.13563  -0.12487  -1.15681
C    -0.19340   1.26221   0.33281
C     0.98120   1.62666   1.22242
O     1.25878   1.07275   2.26683
O     1.68293   2.63684   0.70810
C     2.91839   2.96740   1.35944
N    -1.22133   0.50599   1.03301
C    -1.20627  -0.88456   0.63358
C    -0.23377  -1.70066   1.40185
N     0.51945  -2.30099   2.03309
C    -2.57816  -1.59947   0.79148
C    -3.78513  -0.75832   1.05062
O    -2.60836  -2.81211   0.70750
H    -3.34600   0.61201  -2.76614
H    -2.19846   1.45002  -1.56398
H    -3.21431  -1.72991  -3.20239
H    -1.51434  -2.28532  -3.18015
H    -2.58695  -2.70871  -1.84350
H    -0.24344  -1.75616  -1.12205
H     0.15057   0.93448  -1.79274
H     1.86788  -0.94922  -0.06200
H     1.73462   1.55726  -2.95119
H     3.51437   1.59364  -3.03390
H     2.65851   2.52238  -1.78702
H     4.14601  -0.94468  -0.42341
H     4.79242   0.68233  -0.78602
H     4.59091  -0.48584  -2.09579
H    -0.60033   2.20836  -0.05626
H     3.59068   2.09709   1.35920
H     3.35804   3.78634   0.77902
H     2.73443   3.28981   2.39413
H    -1.20153   0.63107   2.04333
H    -4.68143  -1.39164   1.03928
H    -3.67944  -0.27634   2.03674
H    -3.86336   0.04743   0.30853
