23
Generated by autodE on: 2022-06-20. E = -351.521383 Ha
C    -3.77352   0.21610  -0.11012
C    -2.56175  -0.32087   0.15271
C    -2.42876  -1.66852   0.81474
C    -1.34706   0.40871  -0.20561
C    -0.07648  -0.01709   0.00703
C     1.09475   0.74796  -0.36942
C     2.39313   0.39611  -0.19035
C     2.84513  -0.88558   0.45005
C     3.50415   1.30291  -0.63894
H    -4.69837  -0.30763   0.14731
H    -3.86664   1.19495  -0.59062
H    -1.87086  -1.59214   1.76286
H    -1.86816  -2.37140   0.17627
H    -3.41392  -2.10658   1.02832
H    -1.49821   1.38252  -0.68686
H     0.08243  -0.98659   0.48692
H     0.89493   1.71324  -0.85028
H     3.47914  -1.45903  -0.24916
H     3.47777  -0.67040   1.32934
H     2.02015  -1.53335   0.77319
H     4.15271   1.57819   0.21222
H     3.12629   2.22653  -1.10145
H     4.15839   0.78989  -1.36670
