20
Generated by autodE on: 2022-06-20. E = -606.997735 Ha
C     4.51702  -0.28999  -0.00496
O     3.26758   0.37720  -0.23929
C     2.16122  -0.30090   0.06803
O     2.14396  -1.43147   0.52857
C     0.95476   0.48011  -0.21624
N    -0.19058  -0.09301   0.04338
C    -1.47697   0.31713  -0.08797
C    -1.77435   1.59886  -0.58958
N    -2.02102   2.66193  -1.00519
C    -2.48016  -0.66074   0.32448
C    -3.92629  -0.27608   0.19915
O    -2.11215  -1.75792   0.75560
H     4.62792  -0.53104   1.06225
H     5.29717   0.41232  -0.31927
H     4.57418  -1.21461  -0.59739
H     0.99458   1.48991  -0.62388
H    -0.14538  -1.05589   0.42788
H    -4.13357   0.62694   0.79573
H    -4.56150  -1.10192   0.54285
H    -4.16521  -0.03336  -0.84893
