43
Generated by autodE on: 2022-06-20. E = -958.501160 Ha. Imaginary frequency = -438.7 cm-1
C    -2.37349   0.94907  -2.02298
C    -1.86043  -0.30773  -2.02509
C    -2.65322  -1.46857  -2.57151
C    -0.56699  -0.61560  -1.45700
C     0.42983   0.36201  -1.16014
C     1.80902  -0.12739  -0.96380
C     2.95247   0.53856  -1.22974
C     3.01640   1.92882  -1.79712
C     4.28943  -0.09845  -0.96953
C    -0.21622   1.26418   0.55647
C     1.00042   1.21068   1.40876
O     1.24090   0.37422   2.25703
O     1.81143   2.23442   1.12753
C     3.06794   2.26601   1.81769
N    -1.32919   0.55738   0.93692
C    -1.43435  -0.80546   0.88081
C    -0.39732  -1.71155   1.21716
N     0.37559  -2.55643   1.44290
C    -2.80975  -1.31018   0.74291
C    -3.04744  -2.79233   0.80982
O    -3.72199  -0.50056   0.56140
H    -3.37535   1.14147  -2.41495
H    -1.81131   1.81343  -1.66450
H    -3.68445  -1.17682  -2.81430
H    -2.17831  -1.85746  -3.48820
H    -2.68445  -2.30564  -1.85831
H    -0.26515  -1.66522  -1.45932
H     0.33258   1.30098  -1.71031
H     1.88916  -1.13879  -0.55276
H     3.51857   1.91404  -2.78071
H     2.03321   2.40007  -1.92107
H     3.62829   2.57797  -1.14843
H     4.19197  -1.11671  -0.56523
H     4.87272   0.50623  -0.25263
H     4.89088  -0.14444  -1.89475
H    -0.45420   2.28639   0.25360
H     3.62903   1.33939   1.63396
H     3.61272   3.12791   1.41663
H     2.90741   2.38900   2.89859
H    -2.22552   0.97415   0.66912
H    -2.29361  -3.35648   0.24309
H    -2.97406  -3.11815   1.86146
H    -4.05321  -3.01907   0.43455
