31
Generated by autodE on: 2022-06-17. E = -743.262510 Ha
C     3.64995  -1.77540   0.58713
N     2.35582  -1.23582   0.21426
C     2.08104   0.06628   0.31165
O     2.86703   0.92110   0.72428
C     0.64620   0.47418  -0.08854
C     0.76048   1.52744  -1.10779
N     0.83754   2.35740  -1.91449
N    -0.12824  -0.64610  -0.66346
C    -1.30046  -0.63438  -0.14624
C    -2.32362  -1.68041  -0.51543
C    -1.93495  -2.73390  -1.50611
O    -3.42286  -1.62793   0.01144
C    -1.60296   0.47798   0.82718
C    -2.51322   1.53971   0.19117
C    -0.16544   0.94255   1.17511
C     0.02076   2.39282   1.58699
H     3.91391  -1.47611   1.61223
H     3.60637  -2.86968   0.53486
H     4.44331  -1.41753  -0.08867
H     1.65136  -1.83647  -0.20506
H    -1.05146  -3.28366  -1.14555
H    -1.64933  -2.26310  -2.45993
H    -2.77330  -3.42448  -1.66126
H    -2.10681   0.07148   1.71628
H    -2.70377   2.35573   0.90292
H    -2.06361   1.96955  -0.71673
H    -3.47953   1.09298  -0.08239
H     0.19138   0.29235   1.98848
H    -0.29407   3.09073   0.79783
H     1.07764   2.59054   1.81486
H    -0.57147   2.60793   2.48937
