19
Generated by autodE on: 2022-06-17. E = -585.870067 Ha
C    -3.63153   1.47122   1.00589
N    -2.81169   0.50463   0.30082
C    -1.46857   0.54467   0.37360
O    -0.84621   1.37776   1.04249
C    -0.73532  -0.49105  -0.40929
C    -1.35432  -1.47582  -1.21095
N    -1.90774  -2.27233  -1.86057
N     0.57739  -0.44723  -0.32323
C     1.71833  -0.25436  -0.12624
C     3.11845  -0.01147   0.10962
C     3.39343   1.14519   1.02718
O     3.96653  -0.71830  -0.41658
H    -3.43881   1.44069   2.08964
H    -4.68706   1.23410   0.82749
H    -3.43402   2.49661   0.65445
H    -3.26615  -0.19956  -0.27180
H     4.04257   1.86183   0.49934
H     2.47145   1.64596   1.35379
H     3.94293   0.76918   1.90520
