44
Generated by autodE on: 2022-06-19. E = -921.609929 Ha
C    -4.34672  -0.05921   1.96142
N    -3.26000   0.26242   1.06000
C    -2.76954  -0.61410   0.17998
O    -3.23068  -1.74242  -0.01290
C    -1.57812  -0.07439  -0.67331
C    -2.25015   0.46147  -1.94917
C    -2.56459  -0.55410  -3.00568
O    -2.54825   1.63659  -2.05359
C    -0.53801  -1.18528  -0.89591
C     0.32612  -1.09655   0.38330
C     0.02454  -2.21688   1.38009
C     1.80266  -1.06005   0.07679
C     2.66918  -0.12765   0.51165
C     4.09207  -0.14280   0.21250
C     5.01255   0.77077   0.60407
C     4.70196   1.98452   1.43452
C     6.45769   0.62476   0.21676
O    -0.11792   0.14497   1.02575
N    -0.86037   0.95072   0.10123
C     0.05762   1.79847  -0.66139
H    -4.78375   0.87085   2.34647
H    -5.12291  -0.62581   1.42866
H    -4.00344  -0.66677   2.81600
H    -2.71710   1.11501   1.17918
H    -3.01898  -1.44806  -2.55396
H    -1.62642  -0.87623  -3.48650
H    -3.23040  -0.11523  -3.75967
H     0.05712  -0.97386  -1.79279
H    -1.01080  -2.16610  -1.01251
H     0.41783  -3.17329   1.00445
H    -1.05830  -2.32460   1.53935
H     0.51028  -1.99772   2.34284
H     2.16278  -1.90293  -0.52533
H     2.27756   0.69241   1.11834
H     4.44026  -0.98677  -0.39532
H     5.29404   1.97272   2.36672
H     4.99832   2.90208   0.89604
H     3.64164   2.07377   1.70368
H     7.10131   0.57857   1.11361
H     6.79970   1.50371  -0.35881
H     6.63730  -0.27714  -0.38677
H     0.70040   1.24440  -1.36599
H     0.69355   2.33362   0.05504
H    -0.53467   2.53489  -1.21580
