30
Generated by autodE on: 2022-10-06. E = -987.784246 Ha
C     0.59389   2.62636  -0.59208
C    -0.53994   1.75998  -0.11813
O    -1.58946   2.24238   0.27222
C    -0.41289   0.22030  -0.37826
C    -1.77824  -0.42660  -0.22779
C    -2.54597  -0.83184  -1.32634
C    -3.80090  -1.42306  -1.13741
C    -4.30785  -1.60618   0.15077
C    -3.55107  -1.19187   1.25337
C    -2.29865  -0.60678   1.06465
N     0.06132   0.09968  -1.79539
N     1.13209  -0.50971  -1.90223
C     1.68743  -0.96923  -0.61803
C     3.15499  -0.45529  -0.49773
O     3.31856   0.79115  -0.52463
O     4.04997  -1.32733  -0.41723
C     0.68437  -0.49685   0.45320
C     1.25818   0.27063   1.65965
O     0.65738   1.32126   2.01521
O     2.23509  -0.25587   2.24325
H     0.38696   2.88653  -1.64516
H     1.56598   2.11947  -0.55488
H     0.60821   3.55692  -0.00850
H    -2.16184  -0.68818  -2.33625
H    -4.38255  -1.74157  -2.00611
H    -5.28700  -2.06838   0.29766
H    -3.93938  -1.32445   2.26624
H    -1.71552  -0.27763   1.92715
H     1.74075  -2.06362  -0.68547
H     0.23881  -1.39315   0.90530
