20
Generated by autodE on: 2022-10-06. E = -532.706411 Ha
C     3.37936   0.10550   0.35979
C     1.94142   0.42260   0.69901
O     1.65803   1.12715   1.66540
C     0.89473  -0.14287  -0.16727
N     1.33029  -0.89488  -1.16015
N     1.70468  -1.53837  -2.01265
C    -0.57155   0.00514  -0.03356
C    -1.44315  -0.85241  -0.73603
C    -2.82608  -0.71210  -0.62583
C    -3.37435   0.28245   0.19042
C    -2.51857   1.13553   0.89182
C    -1.13207   1.00582   0.78439
H     3.56083  -0.98110   0.38020
H     3.63294   0.46524  -0.65045
H     4.03045   0.59596   1.09380
H    -1.04371  -1.64427  -1.37311
H    -3.47899  -1.39039  -1.18022
H    -4.45776   0.39040   0.27811
H    -2.93081   1.91941   1.53197
H    -0.47764   1.67548   1.33592
