10
Generated by autodE on: 2022-10-06. E = -455.045287 Ha
O     0.69352  -1.35989  -1.03567
C     1.35263  -0.32071  -0.77116
O     2.60337  -0.25240  -0.61357
C     0.61902   1.00044  -0.64784
C    -0.51098   1.23868   0.03820
C    -1.35599   0.23127   0.79396
O    -2.60009   0.33466   0.60429
O    -0.78768  -0.59430   1.55557
H     1.12071   1.84327  -1.14010
H    -0.92536   2.25482   0.02757
