30
Generated by autodE on: 2022-10-06. E = -987.725792 Ha. Imaginary frequency = -493.6 cm-1
C     0.64154   2.63140  -0.74095
C    -0.39175   1.78277  -0.05308
O    -1.00724   2.17559   0.93199
C    -0.63076   0.41168  -0.58290
C    -1.92642  -0.27465  -0.37518
C    -2.63740  -0.82679  -1.45604
C    -3.84915  -1.48807  -1.24566
C    -4.37542  -1.60288   0.04430
C    -3.67018  -1.06140   1.12434
C    -2.45468  -0.40557   0.92380
N     0.01379   0.13031  -1.75362
N     0.98066  -0.41994  -2.10341
C     1.85667  -1.11424  -0.38355
C     3.23675  -0.47381  -0.52195
O     3.35374   0.61391  -1.14729
O     4.18082  -1.13862  -0.02137
C     0.93438  -0.80732   0.62348
C     1.17616   0.14015   1.77665
O     0.42021  -0.00960   2.78028
O     2.09243   1.00069   1.68094
H     0.26381   2.94077  -1.72995
H     1.57311   2.06829  -0.89918
H     0.83531   3.52272  -0.13085
H    -2.24546  -0.72571  -2.47002
H    -4.38772  -1.90805  -2.09857
H    -5.32652  -2.11487   0.20808
H    -4.06411  -1.15892   2.13902
H    -1.88816  -0.02642   1.77178
H     1.82075  -2.14246  -0.75899
H     0.17377  -1.56185   0.83756
