18
Generated by autodE on: 2022-07-26. E = -344.258068 Ha
C     0.54092   2.66745  -0.90136
C     0.32715   1.44107  -0.08329
N     0.00489   0.25268  -0.55776
C    -0.17156   0.07603  -2.00974
C    -0.19129  -0.89866   0.20915
C    -0.56118  -2.21153  -0.42513
C    -0.03415  -0.79295   1.58653
N     0.10055  -0.69960   2.75482
H    -0.35671   2.96326  -1.47340
H     1.36717   2.56026  -1.62696
H     0.79527   3.49947  -0.23074
H     0.44115   1.49668   1.00088
H    -1.18741  -0.28422  -2.21207
H     0.54926  -0.66479  -2.37685
H    -0.01402   1.02222  -2.53001
H    -1.52550  -2.18340  -0.96390
H    -0.65840  -2.96682   0.36754
H     0.19766  -2.58540  -1.13588
