18
Generated by autodE on: 2022-05-28. E = -824.778775 Ha
N     2.34841  -0.59040   2.15907
C     1.50035  -0.56984   1.35922
C     0.46964  -0.57637   0.39349
C     0.21396   0.37246  -0.54009
Cl    1.08927   1.82873  -0.80332
C    -1.10153   0.04999  -1.20714
C    -2.19061   0.33567  -0.11762
C    -1.92734  -0.77062   0.94328
C    -0.71432  -1.54762   0.34366
C    -1.04406  -1.49235  -1.16270
H    -1.26826   0.53931  -2.17301
H    -2.10080   1.35434   0.28447
H    -3.18760   0.23471  -0.56967
H    -1.69742  -0.36704   1.93899
H    -2.78955  -1.44619   1.04068
H    -0.52170  -2.52989   0.78972
H    -2.00888  -1.96018  -1.40727
H    -0.24935  -1.91214  -1.79555
