36
Generated by autodE on: 2022-05-28. E = -1169.043367 Ha. Imaginary frequency = -180.7 cm-1
C    -1.76242   2.53774  -0.69673
C    -1.61952   1.15926  -0.15167
N    -1.93231   0.04350  -0.82436
C    -2.29350   0.08218  -2.24848
C    -1.78823  -1.20556  -0.25443
C    -1.84555  -2.45742  -1.08180
C    -1.97052  -1.30946   1.13701
N    -2.13016  -1.43051   2.29173
C     0.84659  -0.58449   0.08190
C     0.93801  -1.56486   1.09105
N     1.05357  -2.39423   1.90579
C     1.58462  -0.73986  -1.25298
C     3.06482  -0.36243  -0.92612
C     2.97678   1.16335  -0.62435
C     1.46324   1.48143  -0.84713
C     1.14121   0.52741  -2.00835
C     0.72633   0.78595   0.28389
Cl    0.72714   1.50534   1.88923
H    -2.82159   2.82045  -0.83810
H    -1.32489   3.24121   0.02507
H    -1.24608   2.67277  -1.65871
H    -1.61664   1.04410   0.93003
H    -1.58899  -0.50592  -2.84658
H    -3.29728  -0.34767  -2.36716
H    -2.30043   1.11273  -2.60820
H    -1.13097  -2.42636  -1.91822
H    -2.84932  -2.65083  -1.50117
H    -1.57840  -3.31388  -0.44768
H     1.44940  -1.70573  -1.75439
H     3.45691  -0.94728  -0.08188
H     3.70142  -0.56261  -1.80101
H     3.29560   1.42062   0.39546
H     3.58597   1.74975  -1.32766
H     1.22429   2.54319  -0.97764
H     0.09199   0.53332  -2.30663
H     1.76617   0.71919  -2.89259
