21
Generated by autodE on: 2022-06-20. E = -658.267056 Ha
C     2.95543  -0.56897   1.26166
N     1.82060   0.10111   1.87663
C     0.55235   0.12691   1.44840
O    -0.33533   0.82195   1.94689
C     0.17542  -0.83167   0.33870
C     0.51987  -2.19165   0.51645
N     0.85919  -3.28640   0.73315
N    -0.64587  -0.47193  -0.65389
C    -1.37576  -1.50860  -1.42139
C    -0.88153   0.82172  -1.02874
C    -0.04589   1.88803  -0.63054
N     0.64899   2.78385  -0.35731
C    -1.93098   1.11828  -1.92860
N    -2.78501   1.40527  -2.66949
H     3.13480  -1.56381   1.69791
H     3.85066   0.04755   1.41710
H     2.80180  -0.67529   0.18007
H     1.99835   0.67346   2.69998
H    -1.14921  -1.39045  -2.48729
H    -1.07350  -2.50083  -1.07908
H    -2.45050  -1.37386  -1.24318
