41
Generated by autodE on: 2022-06-22. E = -1143.763552 Ha
C    -0.93695   1.53513   2.62112
O    -1.31807   0.54059   1.64842
C    -1.50166   0.94534   0.40598
O    -1.47764   2.09804   0.03609
C    -1.70692  -0.23805  -0.57016
C    -2.69743   0.23656  -1.55740
N    -3.51383   0.57615  -2.30738
N    -2.17035  -1.46387   0.07351
C    -1.17198  -2.52188  -0.11717
C     0.15492  -1.81259  -0.40591
C     1.20004  -2.72946  -1.06077
C     0.77917  -1.34075   0.91267
O     0.66169  -2.00043   1.93581
C     1.57110  -0.09599   0.91387
O     2.29310   0.26271   1.98635
C     2.99533  -0.70765   2.77745
C     1.45329   0.83013  -0.09740
O     2.15760   1.96571   0.02881
C     1.71196   3.20130  -0.55360
C     0.67410   0.54504  -1.31712
O     0.82871   1.22119  -2.32385
C    -0.31388  -0.62421  -1.29668
C    -0.57190  -1.05319  -2.74456
H    -1.72470   2.29508   2.70867
H     0.00904   2.00192   2.31445
H    -0.81114   0.99208   3.56327
H    -2.30027  -1.27962   1.06496
H    -1.43487  -3.16737  -0.96771
H    -1.11091  -3.15047   0.77819
H     0.78659  -3.21707  -1.95335
H     1.49251  -3.51409  -0.34778
H     2.10199  -2.16854  -1.34689
H     3.84684  -0.17071   3.21686
H     3.36783  -1.53278   2.15370
H     2.35416  -1.10355   3.57499
H     2.17905   3.99215   0.04823
H     0.61937   3.29213  -0.49423
H     2.04018   3.28572  -1.59719
H    -1.29068  -1.88125  -2.79677
H     0.36724  -1.37089  -3.21474
H    -0.96378  -0.21234  -3.32786
