15
Generated by autodE on: 2022-06-22. E = -454.263398 Ha
C    -2.41595  -1.28940  -0.42523
N    -1.94113  -0.10308  -0.19696
C    -0.63981   0.35032  -0.00735
C    -0.47077   1.72829   0.21876
N    -0.33274   2.87506   0.40633
C     0.47691  -0.55609  -0.04140
O     0.40696  -1.76759  -0.23471
O     1.65401   0.07794   0.16906
C     2.82770  -0.73893   0.15759
H    -3.49598  -1.38126  -0.53829
H    -1.74020  -2.13795  -0.49605
H    -2.63929   0.64453  -0.14273
H     2.95487  -1.23061  -0.81853
H     3.66903  -0.06148   0.34685
H     2.78004  -1.50626   0.94475
