15
Generated by autodE on: 2022-07-27. E = -454.265752 Ha
C     0.33824  -2.80308   0.02673
N     0.36789  -1.54569   0.33576
C    -0.13354  -0.44199  -0.33575
C    -0.79680  -0.60898  -1.56112
N    -1.34739  -0.76911  -2.58077
C     0.03022   0.87023   0.23486
O    -0.37551   1.91129  -0.26949
O     0.69439   0.83494   1.41573
C     0.90980   2.08705   2.07350
H     0.80225  -3.51257   0.71079
H    -0.14314  -3.12505  -0.89854
H     0.83035  -1.28761   1.21539
H     1.45483   1.85497   2.99623
H     1.50811   2.76088   1.44268
H    -0.04830   2.57091   2.31420
