41
Generated by autodE on: 2022-06-22. E = -1143.732246 Ha. Imaginary frequency = -435.3 cm-1
C    -0.88397   2.73878   2.41600
O    -1.12678   1.47494   1.77979
C    -1.63707   1.49011   0.54655
O    -1.90596   2.49919  -0.08280
C    -1.81375   0.13500   0.01218
C    -2.60868  -0.01421  -1.14649
N    -3.28479  -0.13704  -2.08934
N    -1.46578  -0.94738   0.76401
C    -1.23151  -2.16157   0.22077
C     0.41604  -1.98999  -0.90100
C     0.41355  -3.35825  -1.55300
C     1.36777  -1.84882   0.25992
O     1.84608  -2.83368   0.82063
C     1.65222  -0.49857   0.74159
O     2.35068  -0.37139   1.90985
C     1.58737  -0.63925   3.09050
C     1.35482   0.61568   0.00188
O     1.69559   1.79272   0.52599
C     1.67386   3.05023  -0.16563
C     0.65934   0.48519  -1.32111
O     0.54834   1.46683  -2.06766
C     0.19938  -0.84800  -1.71250
C    -0.37134  -0.98851  -3.08304
H    -0.37516   2.50624   3.35792
H    -0.24929   3.37380   1.78600
H    -1.83780   3.24895   2.61270
H    -1.04501  -0.72853   1.66938
H    -0.96128  -2.94461   0.93072
H    -1.88315  -2.45275  -0.60553
H     1.27922  -3.44884  -2.22877
H     0.48890  -4.14778  -0.79517
H    -0.49583  -3.52168  -2.14485
H     0.77048   0.09251   3.19968
H     1.16825  -1.65798   3.07403
H     2.27488  -0.54720   3.94197
H     0.65426   3.33580  -0.44718
H     2.08021   3.76879   0.55779
H     2.31246   3.01901  -1.05783
H    -1.27080  -1.62255  -3.08289
H     0.36261  -1.47691  -3.74923
H    -0.62372  -0.01010  -3.50614
