33
Generated by autodE on: 2022-10-20. E = -1166.906118 Ha
C    -0.21748   3.74550   0.82600
O    -0.49444   2.52852   0.14008
C     0.03278   1.34895   0.59753
Cl   -0.87963   0.95354   2.27566
C     1.52187   1.44496   0.94504
C     2.27033   0.23583   1.51853
C     2.55921  -0.93511   0.55499
C     1.72858  -2.19997   0.79368
C     0.21044  -1.94837   0.87753
C    -0.27258  -1.08353  -0.23137
C    -0.35412   0.28444  -0.39307
C    -0.81157   0.49354  -1.75005
C    -1.07411   1.76542  -2.48579
N    -0.99459  -0.65636  -2.37498
N    -0.66548  -1.61666  -1.44909
C    -0.71837  -2.91412  -1.77058
N    -0.76074  -4.04363  -2.04621
H    -0.92406   4.48389   0.42525
H     0.80964   4.09526   0.64325
H    -0.38662   3.63079   1.90778
H     2.00887   1.76610   0.00693
H     1.63244   2.27285   1.65819
H     3.23052   0.63689   1.87692
H     1.74934  -0.11964   2.42172
H     3.62113  -1.21588   0.63505
H     2.42119  -0.59600  -0.48536
H     2.03721  -2.68045   1.73670
H     1.93326  -2.92302  -0.01323
H    -0.32903  -2.90798   0.86289
H    -0.03966  -1.45088   1.82199
H    -0.19314   2.42260  -2.46575
H    -1.90365   2.32225  -2.02722
H    -1.32983   1.53590  -3.52931
