9
Generated by autodE on: 2022-10-20. E = -280.397687 Ha
C    -2.92001  -0.36202  -0.42480
C    -1.54020   0.01625  -0.20946
N    -0.43433   0.31124  -0.03242
N     0.74131   0.81065   0.17144
C     1.74821  -0.04307   0.23229
N     2.72549  -0.68906   0.30768
H    -3.16890  -0.31760  -1.49622
H    -3.57692   0.32332   0.13339
H    -3.07801  -1.38695  -0.05463
