24
Generated by autodE on: 2022-10-20. E = -886.360065 Ha
C     1.66903  -2.19825  -0.81802
O     0.51509  -1.45274  -1.19088
C    -0.20384  -0.86230  -0.17588
Cl   -1.10274  -2.23073   0.80284
C     0.58849  -0.07461   0.76136
C     1.00790   0.98188   1.18891
C     1.20648   2.41478   1.34145
C     0.71326   3.07814   0.03038
C    -0.67038   2.61921  -0.48009
C    -0.75172   1.36143  -1.39266
C    -1.28185   0.04276  -0.78742
H     2.40230  -1.56208  -0.29567
H     2.11057  -2.57945  -1.74751
H     1.38972  -3.04234  -0.16720
H     2.25727   2.67869   1.53983
H     0.61565   2.77693   2.20007
H     0.68953   4.16576   0.20559
H     1.46460   2.90366  -0.75791
H    -1.07244   3.46018  -1.06650
H    -1.35974   2.50335   0.37494
H     0.22281   1.17652  -1.87444
H    -1.44141   1.60419  -2.21560
H    -1.77680  -0.55880  -1.56541
H    -2.02821   0.25757  -0.01005
