33
Generated by autodE on: 2022-10-20. E = -1166.753076 Ha. Imaginary frequency = -318.6 cm-1
C     0.61878   3.62203  -0.14939
O     0.25857   2.27491  -0.44585
C     0.38952   1.32804   0.53456
Cl   -0.95718   1.70123   1.91020
C     1.73726   1.34109   1.26471
C     2.01692   0.19532   2.25046
C     2.68473  -1.09567   1.70544
C     1.79995  -2.34776   1.57331
C     0.98701  -2.45933   0.26665
C     0.31380  -1.19561  -0.00712
C     0.04566   0.00696   0.01418
C    -1.85515   0.29021  -1.44715
C    -2.51729   1.58531  -1.37204
N    -1.83217  -0.83597  -1.83052
N    -1.35125  -2.01447  -1.60233
C    -0.83316  -2.69499  -2.61129
N    -0.33773  -3.40940  -3.39839
H     0.25535   4.22580  -0.99081
H     1.70887   3.74334  -0.06082
H     0.12983   3.95708   0.77852
H     2.50012   1.34595   0.46654
H     1.82086   2.30148   1.79129
H     2.69043   0.61524   3.01272
H     1.08774  -0.05368   2.78842
H     3.49870  -1.35698   2.39948
H     3.17780  -0.88640   0.73974
H     1.10577  -2.38867   2.42953
H     2.43068  -3.24886   1.63919
H     1.65413  -2.69194  -0.58199
H     0.26823  -3.29025   0.33239
H    -1.93437   2.34119  -1.91565
H    -2.57166   1.89429  -0.31783
H    -3.53235   1.50571  -1.79133
