55
Generated by autodE on: 2022-06-03. E = -1244.335483 Ha
C    -6.29768  -6.46616   6.35007
N    -7.11461  -5.83932   5.33134
C    -7.57415  -4.59494   5.47165
O    -7.35079  -3.89270   6.46471
C    -8.51794  -4.04308   4.36736
C    -8.57293  -4.84114   3.02745
O    -8.41072  -6.07192   2.99000
N    -8.93812  -4.13887   1.95118
C    -9.06244  -4.76666   0.64966
O    -9.83098  -4.23248   4.92966
N   -10.56422  -3.01432   4.74641
C    -9.62129  -2.00790   4.44494
C    -8.39540  -2.52839   4.19460
C    -7.07453  -1.88011   3.76085
C    -6.04044  -2.96077   3.31602
C    -7.27168  -1.08054   2.47336
O    -8.09327  -1.35407   1.61370
O    -6.37720  -0.10914   2.31944
C    -6.42593   0.63898   1.09421
C    -6.35716  -1.10010   4.90944
C    -6.80979   0.29324   5.35138
C    -8.28594   0.45624   5.70491
C    -9.19632   0.50457   4.46349
C   -10.24053  -0.61683   4.35617
C   -11.27446  -0.43058   5.48982
C   -10.97549  -0.49785   3.00382
H    -5.40745  -5.85650   6.56975
H    -6.85596  -6.59735   7.29162
H    -5.97360  -7.45090   5.99167
H    -7.42491  -6.34517   4.49689
H    -8.90789  -3.11684   1.99060
H    -9.29800  -3.99321  -0.09162
H    -8.12620  -5.26932   0.35721
H    -9.86624  -5.51891   0.64800
H   -11.02353  -2.85466   5.64630
H    -5.15319  -2.45979   2.90588
H    -6.43104  -3.63154   2.54201
H    -5.71121  -3.55395   4.17823
H    -5.60629   1.36399   1.15258
H    -7.38995   1.16002   1.00582
H    -6.28726  -0.02855   0.23222
H    -6.39371  -1.78028   5.77165
H    -5.29677  -1.01879   4.62611
H    -6.19826   0.54304   6.23496
H    -6.54524   1.03660   4.58217
H    -8.40734   1.38504   6.28369
H    -8.59285  -0.36046   6.37914
H    -8.58730   0.53055   3.54967
H    -9.75793   1.45135   4.44316
H   -11.66374   0.59778   5.45423
H   -10.83091  -0.59164   6.48415
H   -12.13454  -1.10760   5.37862
H   -10.27012  -0.55736   2.16467
H   -11.49751   0.47068   2.95187
H   -11.72116  -1.29813   2.89022
