20
Generated by autodE on: 2022-07-27. E = -586.071759 Ha
C     3.38907  -1.15644   0.08378
N     2.03574  -0.70715  -0.16067
C     1.21686  -0.38316   0.85112
O     1.53990  -0.44129   2.04394
C    -0.15733   0.07111   0.45750
O    -0.85769   0.36388   1.51074
N    -2.09912   0.79703   1.53187
C    -0.66073   0.18287  -0.93692
O     0.07185  -0.11495  -1.90205
N    -1.92143   0.61292  -1.09607
C    -2.49707   0.75111  -2.41777
H     3.97391  -0.39224   0.62112
H     3.87471  -1.36148  -0.87792
H     3.40288  -2.07555   0.69188
H     1.65182  -0.61855  -1.10564
H    -2.26622   0.90245   2.54038
H    -2.45249   0.83671  -0.24661
H    -1.92890   1.47403  -3.02469
H    -2.49401  -0.21121  -2.95391
H    -3.53089   1.10218  -2.31784
