35
Generated by autodE on: 2022-06-03. E = -658.135284 Ha
C    -2.70035   2.98458   0.02542
O    -1.84072   1.83951  -0.07808
C    -1.31545   1.58499  -1.27823
O    -1.54426   2.26130  -2.26107
C    -0.34704   0.40362  -1.26801
C    -0.44885  -0.34259  -2.60900
C    -0.53494  -0.50809  -0.13567
C    -0.20888  -1.25593   0.76281
C     0.62258  -1.93322   1.76669
C     0.30084  -3.43148   1.87851
C     0.44320  -1.25992   3.14034
C     2.08373  -1.74364   1.24550
C     2.48131  -0.33679   0.75070
C     2.21651   0.02096  -0.74021
C     1.08712   1.01933  -1.06670
H    -3.56588   2.87718  -0.64392
H    -2.15026   3.90134  -0.23191
H    -3.03031   3.02067   1.07000
H    -0.28120   0.35522  -3.44097
H    -1.44314  -0.79827  -2.72698
H     0.30494  -1.14032  -2.65598
H    -0.71958  -3.58737   2.26177
H     0.38228  -3.92809   0.89949
H     1.00563  -3.91757   2.57160
H     0.70225  -0.19140   3.10057
H     1.09325  -1.74803   3.88369
H    -0.59912  -1.34496   3.48418
H     2.75393  -2.04160   2.06962
H     2.25323  -2.46669   0.43003
H     3.56760  -0.25154   0.91199
H     2.03268   0.43172   1.40244
H     2.08252  -0.90222  -1.32801
H     3.13765   0.48023  -1.13223
H     1.02811   1.76884  -0.26059
H     1.32772   1.56466  -1.99300
