55
Generated by autodE on: 2022-06-03. E = -1244.212316 Ha. Imaginary frequency = -179.6 cm-1
C    -5.32461  -5.72342   3.41467
N    -6.69013  -5.23785   3.37975
C    -7.42487  -5.13877   4.50919
O    -7.04608  -5.58506   5.59893
C    -8.72128  -4.42328   4.37077
C    -9.53428  -4.43550   3.08910
O   -10.46364  -5.24594   3.00614
N    -9.15723  -3.63386   2.08860
C    -9.87549  -3.62004   0.82903
O    -9.37628  -4.34596   5.49883
N   -10.51952  -3.66817   5.49792
C    -9.49385  -1.61759   4.73814
C    -8.30345  -1.91656   4.63125
C    -6.85976  -1.60223   4.65984
C    -6.15506  -2.25967   5.86086
C    -6.20658  -1.98202   3.33303
O    -6.79968  -2.05045   2.26823
O    -4.89728  -2.17205   3.43306
C    -4.18076  -2.45987   2.22011
C    -6.71365  -0.04607   4.80352
C    -7.57937   0.83945   3.89433
C    -8.96065   1.28561   4.43622
C   -10.21186   0.55875   3.91643
C   -10.67750  -0.73824   4.64217
C   -11.21312  -0.41880   6.04883
C   -11.79148  -1.37819   3.79405
H    -4.65321  -5.00525   3.91483
H    -5.27202  -6.67770   3.95700
H    -4.97518  -5.87799   2.38671
H    -6.99593  -4.73605   2.55182
H    -8.43402  -2.92775   2.25324
H    -9.33754  -2.97348   0.12448
H    -9.94487  -4.63318   0.40518
H   -10.89987  -3.23252   0.95735
H   -10.71035  -3.59269   6.50703
H    -5.11970  -1.90124   5.93842
H    -6.14347  -3.35318   5.79095
H    -6.68884  -1.98118   6.78062
H    -3.14094  -2.63062   2.51997
H    -4.24570  -1.60578   1.53127
H    -4.59274  -3.35600   1.73700
H    -6.93045   0.18823   5.85770
H    -5.64805   0.18427   4.64576
H    -6.99253   1.75325   3.71157
H    -7.69767   0.36649   2.90515
H    -9.08647   2.34428   4.15897
H    -8.94513   1.27703   5.53953
H   -10.06006   0.31463   2.85148
H   -11.06761   1.25366   3.95409
H   -12.08328   0.25246   5.97560
H   -10.44845   0.07247   6.66894
H   -11.52965  -1.33712   6.56537
H   -11.41498  -1.66054   2.79861
H   -12.61133  -0.65529   3.65840
H   -12.18661  -2.28015   4.27707
