44
Generated by autodE on: 2022-05-31. E = -1282.402655 Ha. Imaginary frequency = -317.1 cm-1
C     4.17793  -2.71152   0.15518
N     3.31637  -1.55368   0.00998
C     2.50795  -1.15624   1.00890
O     2.48655  -1.67909   2.12997
C     1.59366  -0.04200   0.71551
O     1.54968   0.54862  -0.51816
C     0.58814   1.45616  -0.46008
C     0.31358   2.31201  -1.65018
C    -0.43819   3.58050  -1.41974
O     0.68778   1.90103  -2.73487
O     0.39993   1.84793   0.80295
C     0.99988   0.86643   1.65646
O     0.87830   0.92165   2.85216
C    -1.13939  -0.09624  -0.48253
C    -2.23988   0.84820  -0.13825
O    -2.88440   1.39799  -1.04641
N    -2.50440   1.08292   1.16082
C    -3.49506   2.06148   1.56446
C    -1.16727  -0.79141  -1.84722
C    -2.29476  -1.86419  -1.72144
C    -1.69160  -2.88791  -0.71584
C    -0.26728  -2.30062  -0.41927
C     0.07762  -1.69823  -1.79490
C    -0.55918  -1.05223   0.36994
F    -0.88094  -1.17360   1.67044
H     4.80636  -2.61764   1.05298
H     3.59296  -3.64192   0.24318
H     4.82582  -2.78239  -0.72657
H     3.23244  -1.11095  -0.89973
H    -0.38974   4.20055  -2.32352
H    -1.49117   3.32586  -1.21029
H    -0.04483   4.12216  -0.54699
H    -1.96381   0.61468   1.87832
H    -4.46392   1.86171   1.08282
H    -3.18433   3.08400   1.29278
H    -3.62065   2.00892   2.65275
H    -1.26395  -0.11522  -2.70330
H    -2.47461  -2.32579  -2.70311
H    -3.24139  -1.42713  -1.37589
H    -2.28543  -2.99505   0.20242
H    -1.57635  -3.88476  -1.16429
H     0.43534  -2.99923   0.04947
H     0.06264  -2.46198  -2.58495
H     1.02670  -1.15939  -1.84016
