14
Generated by autodE on: 2022-06-19. E = -470.221439 Ha
C     2.94488  -0.67569   0.35347
N     1.57308  -0.62843  -0.10936
C     0.64667   0.17406   0.44010
O     0.83208   0.95400   1.38410
C    -0.71970   0.11198  -0.14442
C    -1.73093   0.94209   0.40554
N    -2.56060   1.62323   0.85662
O    -1.13251  -0.63016  -1.13611
N    -0.37752  -1.46872  -1.79489
H     3.63582  -0.38195  -0.45206
H     3.20768  -1.69412   0.67886
H     3.06731   0.01243   1.19732
H     1.27045  -1.21833  -0.88881
H    -1.03872  -1.85562  -2.48124
