14
Generated by autodE on: 2022-07-27. E = -470.215604 Ha
C     0.71622  -2.58435   1.46700
N     0.50459  -1.17984   1.17596
C     0.02542  -0.78875  -0.02409
O    -0.27148  -1.58136  -0.92092
C    -0.11398   0.68179  -0.19283
C     0.30982   1.61673   0.78445
N     0.67126   2.34983   1.61607
O    -0.61482   1.26276  -1.25530
N    -1.08824   0.68045  -2.31449
H     1.11115  -2.67705   2.48537
H     1.43549  -3.03176   0.76271
H    -0.22507  -3.15215   1.39579
H     0.72440  -0.49481   1.89253
H    -1.36604   1.50359  -2.87234
