57
Generated by autodE on: 2022-06-05. E = -1469.928279 Ha
C    -2.22756   0.18205   4.34642
N    -1.89435   0.63959   3.01308
C    -1.83690  -0.20096   1.97632
O    -2.08035  -1.41022   2.07868
C    -1.37685   0.36584   0.60109
C    -1.52511   1.90948   0.46895
O    -1.25307   2.68904   1.40183
N    -1.90040   2.32532  -0.74086
C    -1.87867   3.72041  -1.12319
C     0.12737  -0.04916   0.44934
C     1.11269   1.08174   0.02149
O     0.86473   1.18521  -1.38003
C     1.17721  -0.16927  -1.70001
C     2.55000  -0.34124  -1.05237
C     3.45190  -1.41483  -1.53496
C     4.87804  -1.48740  -1.08638
O     2.97365  -2.23624  -2.31289
C     2.50782   0.45451   0.04228
C     3.43068   0.62408   1.18231
O     4.64067   0.51848   1.15297
O     2.74119   0.94348   2.28484
C     3.49778   1.15487   3.48650
C     0.19978  -0.98804  -0.78932
C    -1.26219  -1.20281  -1.28360
C    -1.66728  -2.67610  -1.09393
C    -1.36352  -0.79870  -2.77550
C    -0.91276  -1.78903  -3.81201
O    -1.78530   0.30238  -3.09175
N    -2.05665  -0.28739  -0.48827
C    -3.49452  -0.42725  -0.44930
H    -1.48540  -0.54182   4.72142
H    -3.21289  -0.30949   4.36405
H    -2.25143   1.04450   5.02387
H    -1.63620   1.61156   2.82449
H    -1.97225   1.59577  -1.45802
H    -0.85648   4.05039  -1.37800
H    -2.52201   3.86795  -2.00056
H    -2.24673   4.34664  -0.29909
H     0.48054  -0.52949   1.36696
H     1.00182   2.03925   0.53455
H     1.13757  -0.34986  -2.77614
H     5.39360  -2.28203  -1.64091
H     5.38037  -0.52028  -1.23344
H     4.91530  -1.69774  -0.00617
H     4.05352   0.24455   3.75337
H     2.76468   1.39602   4.26429
H     4.20200   1.98826   3.35164
H     0.64567  -1.96001  -0.55622
H    -0.97894  -3.34892  -1.62227
H    -2.68578  -2.86505  -1.46327
H    -1.63485  -2.91425  -0.02233
H    -1.69028  -2.56289  -3.92414
H    -0.77200  -1.28221  -4.77550
H     0.01117  -2.30168  -3.50545
H    -3.93905   0.47136   0.00455
H    -3.89647  -0.50818  -1.47130
H    -3.84352  -1.29995   0.13179
