33
Generated by autodE on: 2022-06-05. E = -781.608379 Ha
C     3.10650  -2.09879  -1.45101
N     1.88489  -1.60776  -0.84886
C     1.81641  -0.37002  -0.29071
O     2.81743   0.38473  -0.33921
C     0.53311   0.02346   0.28832
C     0.15948   1.42680   0.55523
O    -0.92756   1.74843   1.07254
N     1.09317   2.35808   0.25262
C     0.91582   3.74323   0.62341
N    -0.36989  -0.95210   0.67126
C     0.10093  -2.04544   1.54652
C    -1.68291  -0.85506   0.41983
C    -2.65573  -1.63223   1.24818
C    -2.13114  -0.20318  -0.83224
C    -3.52181  -0.55552  -1.30840
O    -1.41386   0.52699  -1.51352
H     2.96470  -3.15047  -1.73049
H     3.94891  -2.03155  -0.74558
H     3.38013  -1.52853  -2.35524
H     1.04014  -2.15582  -0.95771
H     2.01339   1.99589  -0.00770
H    -0.06783   4.11043   0.29460
H     1.69594   4.34651   0.14073
H     0.98073   3.90151   1.71505
H    -0.27605  -3.01472   1.19656
H     1.19294  -2.04486   1.56586
H    -0.26237  -1.86028   2.56711
H    -3.65932  -1.19671   1.17855
H    -2.72599  -2.68498   0.92149
H    -2.36283  -1.63537   2.30691
H    -3.72030  -1.63677  -1.27039
H    -4.26978  -0.06230  -0.66513
H    -3.64212  -0.18791  -2.33538
