24
Generated by autodE on: 2022-06-05. E = -688.223159 Ha
C     3.08232   1.79578   1.49823
O     2.26891   0.87019   0.76195
C     1.02451   1.26520   0.46171
O     0.57365   2.35236   0.76578
C     0.32840   0.20477  -0.28954
C    -0.96560  -0.18029  -0.34664
C    -2.21036   0.21522   0.34911
C    -2.32151   1.54260   1.03535
O    -3.13577  -0.59224   0.34666
C    -0.93647  -1.48027  -1.19318
C    -0.24631  -2.55787  -0.32921
C     1.03256  -2.17730  -0.26708
C     1.09484  -0.87729  -1.09919
O     0.11798  -1.15238  -2.11005
H     3.22158   2.72268   0.92336
H     2.61453   2.03168   2.46493
H     4.04448   1.29456   1.65273
H    -1.60131   1.59358   1.86678
H    -2.05973   2.35797   0.34561
H    -3.34297   1.66973   1.41654
H    -1.87002  -1.74708  -1.69644
H    -0.75621  -3.39139   0.15186
H     1.87046  -2.60806   0.27908
H     2.06213  -0.57858  -1.51351
