57
Generated by autodE on: 2022-06-05. E = -1469.818183 Ha. Imaginary frequency = -200.1 cm-1
C    -1.03196   1.43678   3.86130
N    -1.46703   1.55128   2.48445
C    -1.83466   0.44907   1.78680
O    -2.00750  -0.63982   2.36187
C    -1.87864   0.60687   0.30167
C    -1.99500   2.01737  -0.19919
O    -1.19602   2.91466   0.12077
N    -3.16101   2.30413  -0.82474
C    -3.34347   3.57755  -1.49327
C     0.28671  -0.31792   0.26988
C     1.28613   0.84749   0.34146
O     1.33345   1.25948  -1.02338
C     1.63956  -0.02851  -1.56374
C     2.91012  -0.37230  -0.73618
C     3.89168  -1.33940  -1.27441
C     5.22571  -1.52872  -0.61996
O     3.56051  -1.97756  -2.27063
C     2.68379   0.19162   0.47356
C     3.38426   0.11334   1.76714
O     4.57633  -0.05079   1.94251
O     2.50566   0.26863   2.76856
C     3.02532   0.22561   4.10522
C     0.51761  -0.89665  -0.96059
C    -1.97985  -0.79222  -1.68812
C    -2.42798  -2.12236  -2.21748
C    -1.23792   0.10382  -2.59351
C    -0.67949  -0.47883  -3.87902
O    -1.15631   1.32433  -2.41848
N    -2.43073  -0.42627  -0.45992
C    -3.45663  -1.30002   0.15980
H    -0.10187   0.84785   3.94896
H    -1.80056   0.94985   4.47829
H    -0.84707   2.44257   4.25974
H    -1.16610   2.35715   1.93683
H    -3.69697   1.51796  -1.17663
H    -4.37533   3.64498  -1.86050
H    -2.65282   3.69149  -2.34632
H    -3.16299   4.40576  -0.79409
H    -0.03926  -0.85716   1.15446
H     1.06462   1.67291   1.02109
H     1.77020  -0.00838  -2.64895
H     5.83981  -2.20209  -1.23187
H     5.08652  -1.95613   0.38522
H     5.72990  -0.56144  -0.47976
H     3.49598  -0.74840   4.30210
H     2.16460   0.37430   4.76705
H     3.76465   1.02597   4.25283
H     0.37719  -1.94432  -1.21849
H    -1.81624  -2.42501  -3.07083
H    -3.47500  -2.07990  -2.56628
H    -2.36299  -2.91040  -1.45562
H    -0.01937   0.27451  -4.32762
H    -1.50464  -0.67586  -4.58366
H    -0.12620  -1.41641  -3.73833
H    -3.92831  -0.76328   0.98333
H    -4.21920  -1.51979  -0.59605
H    -3.02950  -2.23784   0.53404
