23
Generated by autodE on: 2022-05-31. E = -500.847962 Ha
C     3.37923  -0.44051   0.99282
O     2.02130  -0.02063   0.81798
C     1.43011  -0.35413  -0.34418
O     2.00836  -0.97657  -1.22164
C     0.04212   0.11466  -0.41057
C    -0.86180  -0.27535  -1.33643
C    -2.20295   0.27972  -0.91844
C    -2.61619  -0.54884   0.34901
C    -1.58515  -0.09216   1.42014
C    -0.70188   0.93103   0.63746
C    -1.76617   1.60537  -0.25397
H     3.45634  -1.53666   0.94191
H     4.02485   0.00309   0.22047
H     3.68148  -0.08700   1.98567
H    -0.68621  -0.96988  -2.16009
H    -2.97278   0.32448  -1.69853
H    -3.64375  -0.28498   0.64022
H    -2.58866  -1.63057   0.15526
H    -0.98225  -0.91918   1.82146
H    -2.08184   0.40625   2.26585
H    -0.08011   1.57750   1.26697
H    -1.33615   2.32229  -0.96923
H    -2.57256   2.08847   0.31882
