16
Generated by autodE on: 2022-05-31. E = -658.620773 Ha
C    -3.86245   0.05120  -0.04602
O    -2.42860   0.18594  -0.03662
C    -1.72977  -0.93342   0.05202
O    -2.18075  -2.05891   0.12810
C    -0.26811  -0.69226   0.05375
C     0.61285  -1.79363   0.16315
N     1.30312  -2.72730   0.25358
O     0.13288   0.53807  -0.04998
C     1.30414   1.12885  -0.08393
C     1.26803   2.53746  -0.20989
N     1.26688   3.69776  -0.31187
C     2.53386   0.43714   0.00588
N     3.57407  -0.08301   0.07733
H    -4.25617   1.07149  -0.10587
H    -4.17981  -0.53655  -0.91892
H    -4.20179  -0.44042   0.87648
