39
Generated by autodE on: 2022-05-31. E = -1159.480417 Ha. Imaginary frequency = -164.2 cm-1
C     3.67604   1.78725  -1.49069
O     3.15417   0.62247  -0.82196
C     2.28111   0.84027   0.15040
O     1.91903   1.92404   0.55316
C     1.76363  -0.43468   0.70045
C     2.50439  -1.63994   0.56721
N     3.09775  -2.63127   0.42635
O     0.83752  -0.47437   1.63113
C    -0.25183   0.23653   1.87649
C    -1.25458  -0.47686   2.58741
N    -2.11069  -1.05045   3.12990
C    -0.40140   1.64676   1.82539
N    -0.70976   2.76912   1.87278
C    -0.96970  -0.27676  -0.73030
C    -1.33810   1.14011  -0.90791
O    -0.58896   2.00261  -1.33418
O    -2.60425   1.37771  -0.54539
C    -3.07898   2.72393  -0.69455
C    -1.93063  -1.43163  -0.50828
C    -2.36205  -1.84980  -1.95351
C    -1.05083  -2.43136  -2.55445
C    -0.02626  -2.29998  -1.37115
C    -0.95268  -2.57748  -0.17095
C     0.19012  -0.81064  -1.25516
H     4.34658   1.40735  -2.26866
H     2.84881   2.35808  -1.93533
H     4.22682   2.41665  -0.77814
H    -4.12115   2.71457  -0.35557
H    -3.02390   3.03559  -1.74755
H    -2.48319   3.40874  -0.07550
H    -2.75773  -1.24152   0.18363
H    -2.75821  -0.99662  -2.52181
H    -3.15094  -2.61336  -1.89271
H    -1.16035  -3.49404  -2.81475
H    -0.71232  -1.89606  -3.45264
H     0.87619  -2.91220  -1.48041
H    -0.45249  -2.47871   0.80098
H    -1.43081  -3.56587  -0.22502
H     0.91567  -0.24983  -1.84449
