30
Generated by autodE on: 2022-06-09. E = -742.281188 Ha
C    -4.80988   0.35612  -0.84615
N    -3.36660   0.40694  -0.95521
C    -2.57943  -0.37133  -0.18689
O    -3.02912  -1.17143   0.64130
C    -1.13306  -0.15614  -0.45439
N    -0.14846  -0.78295   0.12867
C    -0.37604  -1.89182   1.08080
C     1.15603  -0.24540   0.01895
C     2.27064  -1.08856  -0.26680
C     2.05304  -2.52748  -0.70078
O     3.46124  -0.68050  -0.23638
C     1.24470   1.21052   0.27442
O     0.23673   1.92592   0.46362
N     2.49038   1.72627   0.32424
C     2.72414   3.11903   0.62827
H    -5.24674   1.03259  -1.58977
H    -5.18061  -0.66503  -1.02653
H    -5.14391   0.66348   0.15804
H    -2.94104   1.06044  -1.60545
H    -0.86226   0.58639  -1.20181
H     0.59465  -2.27801   1.39723
H    -0.90919  -1.49870   1.95510
H    -0.98004  -2.67680   0.61482
H     2.31310  -3.20799   0.12643
H     2.75567  -2.73385  -1.52157
H     1.03446  -2.75679  -1.03767
H     3.25252   1.05389   0.19619
H     2.13295   3.77595  -0.02963
H     2.45893   3.37052   1.67012
H     3.78876   3.34253   0.48090
