30
Generated by autodE on: 2022-07-27. E = -742.277781 Ha
C     0.98552  -4.10828  -0.46752
N     1.00242  -2.84606  -1.17777
C     0.22243  -1.81539  -0.79729
O    -0.55382  -1.88625   0.16467
C     0.32145  -0.63761  -1.68851
N    -0.10178   0.57296  -1.40185
C    -0.21267   1.49893  -2.55823
C    -0.32446   1.04947  -0.10885
C    -1.29509   2.09889   0.06938
C    -1.31788   2.92618   1.34323
O    -2.12966   2.37991  -0.81437
C     0.56625   0.49452   0.94277
O     1.70603   0.06623   0.68329
N     0.11088   0.49165   2.21355
C     0.92350  -0.00862   3.30323
H     1.77423  -4.75450  -0.87050
H     1.16401  -3.95146   0.60750
H     0.01546  -4.62030  -0.57759
H     1.59888  -2.74115  -1.99295
H     0.68942  -0.79915  -2.70258
H    -1.22138   1.44443  -2.97951
H    -0.00126   2.52065  -2.23219
H     0.52181   1.18834  -3.31009
H    -2.03139   2.49826   2.06778
H    -0.34104   3.02005   1.83265
H    -1.69540   3.92268   1.07300
H    -0.86201   0.70625   2.39331
H     1.13529  -1.08514   3.18815
H     0.38546   0.14698   4.24678
H     1.88703   0.52090   3.35459
