51
Generated by autodE on: 2022-06-09. E = -6293.861185 Ha. Imaginary frequency = -143.8 cm-1
C    -8.14062  -7.05315   3.23969
N    -8.28065  -5.83187   2.47498
C    -8.78413  -4.70859   3.03849
O    -9.33377  -4.75240   4.16281
C    -8.71011  -3.51785   2.19720
C    -6.50277  -2.38489   2.35903
C    -6.73778  -1.21167   2.65590
C    -6.39431   0.20752   2.82940
C    -5.64584   0.37362   4.08305
N    -5.00840   0.50205   5.04430
C    -5.54802   0.69126   1.61783
C    -4.17882   0.03067   1.41208
C    -4.10282  -1.40409   0.84593
C    -4.09926  -2.57328   1.85523
C    -5.43742  -3.30454   2.02404
Br   -5.22079  -4.65514   3.48602
Br   -5.83812  -4.31021   0.32534
C    -9.23819  -1.51489   3.48244
C    -9.97985  -0.17950   3.45882
C   -11.19051  -0.09038   4.33973
O    -9.62644   0.72848   2.72764
C    -8.47795  -1.59020   4.75889
O    -8.26952  -0.47468   5.29289
N    -8.04057  -2.73156   5.28588
C    -7.14495  -2.73139   6.42216
N    -9.35664  -2.33728   2.42805
C    -9.92927  -1.73357   1.19482
H    -7.45943  -6.92162   4.09822
H    -7.73552  -7.83542   2.58593
H    -9.11413  -7.38682   3.62700
H    -7.71328  -5.72711   1.63934
H    -8.64103  -3.74557   1.13573
H    -7.29926   0.83111   2.89998
H    -5.39953   1.77441   1.74909
H    -6.17566   0.55764   0.72298
H    -3.59698   0.08609   2.34867
H    -3.64653   0.67993   0.69906
H    -4.89061  -1.55258   0.08960
H    -3.15300  -1.47571   0.29529
H    -3.34138  -3.31970   1.57876
H    -3.82888  -2.19866   2.85518
H   -11.51780   0.95373   4.43604
H   -11.99178  -0.67926   3.85882
H   -11.00620  -0.53709   5.32649
H    -8.45604  -3.61082   4.94912
H    -6.23107  -2.15897   6.19788
H    -6.86545  -3.76791   6.64911
H    -7.61157  -2.28565   7.31672
H   -10.87722  -1.23602   1.42734
H    -9.21911  -1.00502   0.78234
H   -10.12394  -2.53248   0.47498
