21
Generated by autodE on: 2022-06-19. E = -607.966512 Ha
C     3.93028   0.93064  -0.00594
O     2.78381   0.11984  -0.29465
C     1.58691   0.60599   0.07576
O     1.43650   1.69879   0.59280
C     0.49867  -0.33181  -0.21786
N     0.86098  -1.49510  -0.71266
N     1.15187  -2.48510  -1.13115
C    -0.93599  -0.10219   0.04699
C    -1.80619  -1.19041   0.25028
C    -3.16495  -0.97955   0.48468
C    -3.68087   0.31950   0.53043
C    -2.82246   1.40479   0.33113
C    -1.46307   1.20271   0.08542
H     3.95752   1.80569  -0.67260
H     3.91639   1.26809   1.03971
H     4.80384   0.29353  -0.18723
H    -1.41923  -2.21158   0.22998
H    -3.82241  -1.83800   0.64089
H    -4.74406   0.48415   0.71921
H    -3.21392   2.42456   0.35839
H    -0.80726   2.05611  -0.07666
