52
Generated by autodE on: 2022-06-23. E = -1151.624869 Ha
C     0.90994  -4.18994   0.11653
N     0.39066  -2.86978   0.41558
C    -0.38646  -2.20808  -0.45298
O    -0.70844  -2.65996  -1.55681
C    -0.80171  -0.81074  -0.03001
C    -0.99308  -0.53483   1.47311
O    -0.52843  -1.09443   2.44169
O    -1.77559   0.54631   1.54921
C    -2.05476   0.94320   0.11970
C    -3.30348   1.77169   0.06165
C    -4.04825   2.06797   1.20938
C    -5.21328   2.83528   1.11087
C    -5.64383   3.30679  -0.13146
C    -4.90233   3.00989  -1.28039
C    -3.73662   2.24867  -1.18518
C    -0.74303   1.57389  -0.36172
C     0.20991   0.34327  -0.51757
C     0.58160   0.12587  -1.98472
C     1.41065   0.44123   0.38800
C     2.67520   0.09069   0.08168
C     3.78196   0.20254   1.01667
C     5.07334  -0.13922   0.78963
C     6.11358   0.02917   1.86131
C     5.58806  -0.70312  -0.50476
N    -2.07754  -0.32649  -0.57419
C    -3.23925  -1.17855  -0.31998
H     0.09939  -4.93029   0.01735
H     1.57669  -4.50146   0.92957
H     1.47772  -4.18143  -0.82621
H     0.52257  -2.46659   1.34118
H    -3.71840   1.69876   2.17984
H    -5.78641   3.06275   2.01268
H    -6.55499   3.90488  -0.20615
H    -5.23252   3.37399  -2.25594
H    -3.16192   2.02138  -2.08503
H    -0.38235   2.30654   0.37018
H    -0.90012   2.08089  -1.32107
H     1.19694  -0.77208  -2.12982
H    -0.32007   0.02215  -2.59992
H     1.15220   0.99463  -2.34551
H     1.21709   0.83821   1.39118
H     2.89325  -0.30471  -0.91308
H     3.52816   0.60322   2.00534
H     6.59176  -0.93830   2.09770
H     5.69230   0.44507   2.78829
H     6.92539   0.69459   1.51676
H     6.38609  -0.05740  -0.91169
H     6.05155  -1.69061  -0.33307
H     4.81491  -0.81783  -1.27522
H    -3.39174  -1.41354   0.74987
H    -4.14062  -0.67610  -0.69444
H    -3.11589  -2.11800  -0.87183
