23
Generated by autodE on: 2022-06-23. E = -351.521381 Ha
C     3.58041  -0.79778   0.91907
C     2.56471  -0.22152   0.23934
C     2.82480   0.71940  -0.90925
C     1.18097  -0.50829   0.61241
C     0.07805   0.00087   0.00825
C    -1.27530  -0.31617   0.41628
C    -2.42401   0.14177  -0.14276
C    -2.48136   1.07711  -1.31713
C    -3.76267  -0.27679   0.39612
H     4.62469  -0.60121   0.66076
H     3.38827  -1.48077   1.75235
H     2.38383   1.71182  -0.71791
H     2.36633   0.34616  -1.84011
H     3.90253   0.84795  -1.08264
H     1.04469  -1.19694   1.45498
H     0.20644   0.68785  -0.83254
H    -1.36519  -0.99994   1.26911
H    -3.04924   0.61560  -2.14428
H    -1.49426   1.36608  -1.70033
H    -3.02891   1.99739  -1.04706
H    -3.67148  -0.95792   1.25491
H    -4.35103   0.60434   0.70959
H    -4.35991  -0.77889  -0.38624
