52
Generated by autodE on: 2022-06-23. E = -1151.591388 Ha. Imaginary frequency = -469.2 cm-1
C     1.50463  -3.68089   0.05373
N     0.68780  -2.60518   0.57232
C    -0.47663  -2.25220  -0.02574
O    -0.96688  -2.91599  -0.95808
C    -1.05127  -1.00498   0.47443
C    -0.49766  -0.20013   1.51214
O     0.42274  -0.37006   2.30560
O    -1.23343   0.97934   1.51049
C    -2.04269   0.97629   0.38544
C    -3.20116   1.90569   0.45561
C    -3.54683   2.48507   1.68765
C    -4.62676   3.36565   1.77330
C    -5.37264   3.67879   0.63322
C    -5.02796   3.11074  -0.59688
C    -3.94551   2.23433  -0.68964
C    -0.77682   1.72658  -0.93716
C     0.33348   0.86114  -1.06428
C     0.38908  -0.10595  -2.21872
C     1.47518   1.01879  -0.20660
C     2.55605   0.18469  -0.16584
C     3.62415   0.31755   0.79120
C     4.66443  -0.54071   0.96937
C     5.69433  -0.28787   2.03189
C     4.87142  -1.79552   0.17120
N    -2.17569  -0.34741   0.00710
C    -3.06894  -0.79770  -1.04473
H     0.94500  -4.62891   0.03133
H     2.38009  -3.80507   0.70290
H     1.85435  -3.47488  -0.97210
H     1.07054  -1.97223   1.27342
H    -2.96986   2.24012   2.57936
H    -4.88687   3.80717   2.73802
H    -6.21775   4.36762   0.70168
H    -5.59981   3.35609  -1.49453
H    -3.67629   1.81927  -1.66050
H    -0.62072   2.66478  -0.39727
H    -1.44183   1.80214  -1.80213
H     0.87333  -1.05878  -1.96834
H    -0.61117  -0.32456  -2.61274
H     0.97879   0.34372  -3.03818
H     1.42397   1.83436   0.52289
H     2.60080  -0.65040  -0.86798
H     3.56509   1.18713   1.45625
H     5.73967  -1.13392   2.74124
H     5.49010   0.63203   2.59897
H     6.70320  -0.20922   1.58800
H     4.83320  -2.67709   0.83579
H     4.13322  -1.94087  -0.62734
H     5.87820  -1.79903  -0.28207
H    -2.76780  -0.39277  -2.02347
H    -4.09114  -0.46643  -0.82113
H    -3.03132  -1.88845  -1.08566
