58
Generated by autodE on: 2022-06-28. E = -1317.813716 Ha
C    -3.99158   2.29131  -0.91744
N    -3.17137   1.47140  -0.04732
C    -1.86166   1.71042   0.12203
O    -1.31622   2.74332  -0.29591
C    -1.06168   0.64867   0.93119
C    -1.58909   0.65544   2.37443
C    -1.12156  -0.80063   0.35228
N    -2.42437  -1.29409  -0.07443
C    -3.04361  -2.28581   0.79661
C    -2.68162  -1.39621  -1.43540
C    -1.87444  -0.90910  -2.39452
C    -0.57124  -0.25315  -2.04884
C    -0.00687  -0.82820  -0.71567
C     0.48213  -2.25933  -0.98840
N     1.55144  -2.35329  -1.79402
O    -0.09660  -3.24726  -0.52372
C     1.11308   0.09622  -0.06523
C     1.75685   0.90587  -1.22317
O     2.50647   0.35393  -2.04925
N     1.40932   2.19182  -1.29644
C     1.76004   3.00676  -2.44163
C     2.21518  -0.65045   0.71898
C     3.55441  -0.23380   0.66558
C     4.53402  -0.83218   1.46373
C     4.19603  -1.86374   2.34151
C     2.86377  -2.27908   2.41885
C     1.88773  -1.67317   1.62506
N     0.35261   0.95169   0.83391
C     1.02797   1.73334   1.84320
H    -3.72266   2.14896  -1.97883
H    -5.04592   2.01769  -0.78288
H    -3.86689   3.35493  -0.67165
H    -3.46598   0.51263   0.13844
H    -0.97797  -0.01147   2.99967
H    -1.56916   1.66521   2.80763
H    -2.62786   0.29913   2.40139
H    -0.81019  -1.44089   1.18267
H    -4.08226  -2.45503   0.47795
H    -2.50609  -3.25121   0.77296
H    -3.06161  -1.92183   1.83265
H    -3.62657  -1.88934  -1.67854
H    -2.17619  -0.98646  -3.44020
H     0.15790  -0.39467  -2.85582
H    -0.69890   0.83536  -1.95335
H     2.07717  -1.51035  -2.04618
H     1.95018  -3.27116  -1.96522
H     0.61948   2.47133  -0.70111
H     1.20481   2.69693  -3.34394
H     1.52233   4.05585  -2.22440
H     2.83426   2.92187  -2.65852
H     3.85300   0.57092  -0.00531
H     5.56740  -0.48355   1.39644
H     4.96018  -2.33486   2.96412
H     2.57562  -3.07888   3.10518
H     0.86141  -2.01936   1.72471
H     0.42440   2.61570   2.10161
H     1.24670   1.17674   2.77473
H     1.98440   2.10510   1.45012
