20
Generated by autodE on: 2022-06-28. E = -457.715325 Ha
C     3.10299   0.68660   0.08542
N     1.82683  -0.00879   0.11455
C     1.78831  -1.36357   0.46745
C     0.64210  -2.05632   0.55804
C    -0.71236  -1.44829   0.28882
C    -0.57363   0.02567  -0.05584
C    -1.75357   0.85845  -0.33776
N    -2.95440   0.22955  -0.27616
O    -1.68881   2.07316  -0.61730
C     0.64657   0.63004  -0.11886
H     3.56425   0.71836   1.08659
H     3.80442   0.18823  -0.60235
H     2.94762   1.71611  -0.26031
H     2.76275  -1.81487   0.66305
H     0.69329  -3.11113   0.83757
H    -1.37294  -1.58822   1.16871
H    -1.22215  -2.00015  -0.52783
H    -3.79389   0.76606  -0.46508
H    -3.04647  -0.75429  -0.05779
H     0.71789   1.68924  -0.37093
