58
Generated by autodE on: 2022-06-28. E = -1317.723649 Ha. Imaginary frequency = -264.2 cm-1
C    -3.61173   1.92069  -1.61549
N    -2.99424   1.51360  -0.37178
C    -1.63882   1.44943  -0.26117
O    -0.92941   1.90713  -1.17548
C    -1.08927   0.82474   0.96142
C    -1.94195   0.88466   2.20675
C    -1.32321  -1.30843   0.20453
N    -2.66029  -1.48533  -0.10758
C    -3.64864  -1.75960   0.92360
C    -3.04705  -1.54520  -1.44136
C    -2.19105  -1.34225  -2.45891
C    -0.75279  -0.95655  -2.22844
C    -0.33025  -1.33053  -0.81326
C     0.79416  -2.26180  -0.63019
N     1.78436  -2.21656  -1.57248
O     0.83383  -3.09348   0.29805
C     1.24344   0.38668   0.25631
C     1.52533   1.20761  -0.97938
O     1.81397   0.70617  -2.07649
N     1.68276   2.53181  -0.74168
C     1.79602   3.46858  -1.84149
C     2.44035  -0.31823   0.75945
C     3.70965  -0.15851   0.15554
C     4.82090  -0.87124   0.60265
C     4.70744  -1.76652   1.67151
C     3.46148  -1.94449   2.27986
C     2.34735  -1.24173   1.82625
N     0.29239   0.79820   1.18110
C     0.73142   1.07555   2.56781
H    -3.40148   1.20655  -2.43109
H    -4.69839   1.97460  -1.46992
H    -3.24840   2.91097  -1.92700
H    -3.57072   1.00293   0.28200
H    -1.63810   0.13054   2.94356
H    -1.90085   1.87445   2.69420
H    -2.99538   0.69343   1.98270
H    -1.04524  -1.68980   1.18806
H    -4.40799  -0.96271   0.99404
H    -4.17145  -2.70682   0.71283
H    -3.14946  -1.85030   1.89573
H    -4.09886  -1.79125  -1.60078
H    -2.55581  -1.44700  -3.48335
H    -0.10797  -1.46937  -2.95684
H    -0.61456   0.12157  -2.41500
H     1.93723  -1.29882  -1.99802
H     2.62800  -2.72168  -1.31670
H     1.24053   2.87610   0.10445
H     0.85378   3.53809  -2.41215
H     2.04617   4.46220  -1.44745
H     2.59171   3.15204  -2.52935
H     3.83634   0.52812  -0.68035
H     5.78621  -0.72089   0.11321
H     5.57968  -2.32318   2.02200
H     3.34977  -2.65045   3.10636
H     1.38311  -1.42772   2.29328
H     0.25777   2.00787   2.90046
H     0.47448   0.28169   3.27943
H     1.81384   1.22445   2.57632
