60
Generated by autodE on: 2022-06-09. E = -1948.770191 Ha
C     1.69665  -0.65030   3.48725
N     1.38938  -0.45758   4.89032
C     2.35019  -0.28588   5.79846
O     3.55707  -0.32284   5.51837
C     1.92459  -0.13182   7.28648
C     0.49924   0.45920   7.50868
O    -0.40870   0.37069   6.66918
N     0.29879   1.00296   8.71400
C    -1.00708   1.48779   9.11909
C     1.84214  -1.56482   7.87931
C     3.07381  -2.46190   7.76030
C     4.32402  -1.94923   8.48543
C     3.98979  -1.38962   9.87490
C     4.16039   0.14279  10.03157
Cl    5.93883   0.38277  10.45989
C     3.25591   0.53453  11.23948
C     3.79626   0.40705  12.62859
O     2.08891   0.79979  11.01436
C     3.81920   1.01351   8.84534
C     2.91141   0.86866   7.85194
N     2.85183   2.08760   7.07755
N     3.65432   2.94729   7.48015
C     4.43865   2.39474   8.61910
C     4.28257   3.34896   9.80870
O     4.13056   2.98944  10.95433
O     4.35088   4.61694   9.43226
C     4.28212   5.60550  10.47632
C     5.89554   2.33882   8.11533
C     6.91233   3.11968   8.67427
C     8.21754   3.02622   8.18258
C     8.51427   2.16262   7.12568
C     7.49442   1.39285   6.55689
C     6.19087   1.47926   7.04762
H     2.37306  -1.50722   3.34818
H     2.18448   0.23774   3.05227
H     0.76431  -0.84315   2.94230
H     0.43260  -0.29216   5.21701
H     1.04109   0.96436   9.41869
H    -0.92920   1.88965  10.13676
H    -1.75726   0.68053   9.11024
H    -1.35835   2.28529   8.44659
H     1.00249  -2.05182   7.36238
H     1.53230  -1.47492   8.92867
H     2.78683  -3.43487   8.19369
H     3.31063  -2.65266   6.70301
H     4.82794  -1.18330   7.87884
H     5.04110  -2.77744   8.58393
H     4.61344  -1.84751  10.65178
H     2.95739  -1.64399  10.14758
H     4.58587   1.15215  12.79422
H     2.97929   0.55457  13.34610
H     4.25012  -0.58636  12.76864
H     5.11559   5.47028  11.17990
H     4.35862   6.57535   9.97290
H     3.32696   5.52365  11.01313
H     6.71143   3.79290   9.50780
H     9.00539   3.63299   8.63469
H     9.53569   2.09034   6.74517
H     7.71292   0.71730   5.72672
H     5.40497   0.87060   6.59628
