39
Generated by autodE on: 2022-06-09. E = -1340.736587 Ha
C     2.49795  -4.54543   0.07272
N     2.22659  -3.18757  -0.35616
C     1.20898  -2.48086   0.14764
O     0.43870  -2.91348   1.00937
C     1.07443  -1.02080  -0.35657
C     1.36706  -0.91625  -1.87275
O     2.48767  -1.21963  -2.30455
N     0.37854  -0.49753  -2.66743
C     0.56224  -0.35491  -4.10017
C    -0.22167  -0.46490   0.01198
C    -1.03753   0.35414   0.37551
C    -1.51006   1.62303   0.88849
Cl   -1.99894   1.38297   2.67801
C    -2.82159   2.15165   0.26040
C    -3.85787   1.13019  -0.09861
O    -2.95947   3.34350   0.07811
C    -0.35007   2.62811   0.81164
C     1.02000   2.12051   1.29974
C     1.94358   1.38804   0.28478
C     2.12375  -0.13760   0.41495
H     1.65275  -5.21498  -0.15431
H     3.38902  -4.91135  -0.45170
H     2.68132  -4.58878   1.15768
H     2.77703  -2.75219  -1.09601
H    -0.50759  -0.22891  -2.25057
H     0.86485  -1.31104  -4.55364
H     1.33837   0.39230  -4.32851
H    -0.38526  -0.03181  -4.54718
H    -4.81928   1.62118  -0.29581
H    -3.96004   0.37388   0.69285
H    -3.52361   0.60540  -1.00979
H    -0.65372   3.51853   1.37972
H    -0.27931   2.93777  -0.24442
H     0.88167   1.50193   2.20190
H     1.56282   3.01514   1.63973
H     2.95194   1.81194   0.40729
H     1.64622   1.64296  -0.74662
H     3.11189  -0.42783   0.03167
H     2.08205  -0.43058   1.47521
