21
Generated by autodE on: 2022-06-09. E = -607.966361 Ha
C     3.90988   0.90071   0.51361
O     2.78141   0.03392   0.34166
C     1.57923   0.62531   0.22578
O     1.42543   1.83351   0.26553
C     0.50426  -0.35730   0.04748
N     0.89992  -1.61475   0.01675
N     1.22152  -2.69895  -0.01157
C    -0.93734  -0.08241  -0.11476
C    -1.46124   1.21206   0.07123
C    -2.82903   1.44866  -0.08279
C    -3.70267   0.41167  -0.41961
C    -3.19029  -0.87652  -0.60416
C    -1.82603  -1.12279  -0.45607
H     4.78507   0.24393   0.57922
H     4.01020   1.58082  -0.34471
H     3.80826   1.48976   1.43670
H    -0.79467   2.02949   0.33486
H    -3.21241   2.46102   0.06635
H    -4.77140   0.60380  -0.53748
H    -3.85645  -1.70083  -0.86947
H    -1.45426  -2.13723  -0.61298
