60
Generated by autodE on: 2022-06-09. E = -1948.692690 Ha. Imaginary frequency = -375.4 cm-1
C     1.29001  -1.05578   3.62725
N     1.08666  -0.65748   5.00581
C     2.11171  -0.42995   5.83097
O     3.29512  -0.57396   5.49697
C     1.76388  -0.05341   7.29289
C     0.48213   0.81095   7.44407
O    -0.54109   0.55984   6.79155
N     0.53100   1.76523   8.38310
C    -0.57946   2.64283   8.69537
C     1.47537  -1.36198   8.10617
C     2.55174  -2.45283   8.11012
C     3.94409  -2.12360   8.68352
C     3.94390  -1.35146  10.01759
C     4.43157   0.12038   9.90077
Cl    6.26601   0.07295   9.69685
C     4.04013   0.83624  11.21817
C     5.00749   0.86543  12.35732
O     2.91547   1.29491  11.29019
C     3.81074   0.76939   8.73722
C     2.92382   0.63828   7.87735
N     2.98739   2.39338   6.63578
N     3.84158   2.96662   7.15869
C     4.72057   2.91003   8.17803
C     4.23736   3.54937   9.42587
O     4.89250   3.62144  10.44864
O     2.97293   3.96685   9.31664
C     2.34405   4.47976  10.50218
C     6.14252   2.72845   7.81781
C     7.17898   3.34104   8.53951
C     8.50997   3.09884   8.19323
C     8.82177   2.25852   7.12135
C     7.79032   1.65839   6.38877
C     6.46135   1.88827   6.73399
H     0.31377  -1.24157   3.16289
H     1.81309  -0.27393   3.05234
H     1.89187  -1.97561   3.56902
H     0.15852  -0.41754   5.36178
H     1.41348   1.92656   8.86232
H    -1.52421   2.14943   8.43437
H    -0.57542   2.86760   9.77048
H    -0.51321   3.59152   8.13762
H     1.25633  -1.04398   9.13660
H     0.54473  -1.78999   7.70545
H     2.12307  -3.28240   8.69782
H     2.68394  -2.84624   7.08918
H     4.53151  -1.57131   7.93690
H     4.47109  -3.07903   8.82752
H     4.57314  -1.84670  10.77036
H     2.92719  -1.30952  10.43680
H     5.82454   1.56132  12.11183
H     4.49159   1.20473  13.26446
H     5.46278  -0.12387  12.51307
H     1.33618   4.78106  10.19541
H     2.29383   3.69822  11.27175
H     2.90090   5.34668  10.88502
H     6.94569   3.99180   9.38012
H     9.30894   3.57514   8.76618
H     9.86463   2.07135   6.85527
H     8.02457   0.99785   5.55091
H     5.66429   1.38788   6.18003
