48
Generated by autodE on: 2022-06-01. E = -1070.291297 Ha
C     3.26373  -1.68532   1.42292
N     1.97915  -1.05644   1.18306
C     1.90262   0.16936   0.63557
O     2.90539   0.87117   0.46974
C     0.53179   0.66330   0.12921
C     0.53465   2.21415   0.00853
C     0.74651   2.83632   1.41154
C    -0.64377   2.68460   2.08143
C    -1.41927   1.84105   1.05117
C    -0.95193   2.51769  -0.24516
C    -0.81676   0.39090   0.95710
C    -0.65255  -0.18463   2.37070
C    -1.68727  -0.55770   0.03083
C    -3.17971  -0.21162   0.01661
C    -1.47675  -2.02894   0.48854
C    -2.53523  -2.73353   1.28145
O    -0.43981  -2.59837   0.17909
N    -1.12406  -0.37401  -1.30995
C    -1.57418  -1.22177  -2.40069
C     0.27267  -0.02127  -1.29192
C     0.55471   0.91097  -2.42013
N     0.75203   1.59620  -3.33393
C     1.19373  -1.16941  -1.58368
N     1.89398  -2.02169  -1.94203
H     3.10570  -2.61664   1.98101
H     3.91231  -1.02154   2.01125
H     3.77876  -1.91918   0.47503
H     1.17031  -1.66754   1.11369
H     1.25399   2.57408  -0.73368
H     1.03438   3.89201   1.30410
H     1.54695   2.33807   1.97222
H    -0.60159   2.24818   3.08595
H    -1.14559   3.65898   2.17583
H    -2.49647   1.82967   1.24360
H    -1.15798   3.59808  -0.25469
H    -1.36167   2.07413  -1.15881
H    -1.60338  -0.07923   2.91477
H    -0.37620  -1.24386   2.39806
H     0.11907   0.35216   2.93341
H    -3.75470  -0.96877  -0.53315
H    -3.58023  -0.16373   1.03735
H    -3.34245   0.75682  -0.47034
H    -3.39368  -2.95024   0.62496
H    -2.13235  -3.67647   1.67267
H    -2.90981  -2.10347   2.10018
H    -1.20077  -2.26013  -2.33168
H    -2.67134  -1.24575  -2.41935
H    -1.23709  -0.79795  -3.35882
