21
Generated by autodE on: 2022-07-26. E = -549.929938 Ha
C    -1.19829  -1.23789   2.81544
C    -0.41801  -0.65580   1.66529
O     0.80475  -0.55510   1.72752
C    -1.20174  -0.11838   0.52114
C    -2.69631  -0.10322   0.59936
N    -0.59317   0.52629  -0.47879
C    -1.36817   1.50290  -1.27342
C     0.71042   0.29881  -0.89293
C     1.42243   1.27615  -1.61969
N     2.06019   2.05100  -2.21950
C     1.32788  -0.95812  -0.74111
N     1.85150  -2.00047  -0.68348
H    -0.49487  -1.50770   3.61286
H    -1.74607  -2.13699   2.48966
H    -1.94187  -0.52510   3.20358
H    -3.05548  -1.03220   1.05932
H    -3.06360   0.73191   1.22181
H    -3.15832  -0.01899  -0.39150
H    -0.67428   2.20337  -1.74805
H    -2.04944   2.05604  -0.62049
H    -1.93108   0.97203  -2.05341
