21
Generated by autodE on: 2022-06-01. E = -549.929907 Ha
C    -3.23494   0.46527  -0.45061
C    -1.75534   0.51030  -0.16817
O    -1.19945   1.57668   0.08246
C    -1.04278  -0.79348  -0.10056
C    -1.82185  -2.06324  -0.24328
N     0.23626  -0.85155   0.28229
C     0.74694  -2.10761   0.87151
C     1.16447   0.16196   0.09746
C     2.32181   0.24325   0.90007
N     3.29386   0.36142   1.53888
C     1.07000   1.06307  -0.98109
N     1.05628   1.79028  -1.89489
H    -3.76344  -0.19360   0.25526
H    -3.63525   1.48390  -0.37552
H    -3.41827   0.07342  -1.46422
H    -2.34064  -2.33112   0.69424
H    -1.18235  -2.90620  -0.53158
H    -2.59037  -1.94586  -1.01726
H    -0.00654  -2.53985   1.53684
H     1.65422  -1.88920   1.44274
H     0.99372  -2.81174   0.06508
