27
Generated by autodE on: 2022-06-01. E = -520.325053 Ha
C     3.66245  -0.68404   0.41801
N     2.26874  -0.69500   0.02676
C     1.47664   0.39290   0.18534
O     1.93806   1.44914   0.65681
C     0.07016   0.23050  -0.23333
C    -0.99017   0.98656   0.15561
C    -1.07405   2.16321   1.06285
C    -2.23671   0.29906  -0.37806
C    -2.40519  -0.99345   0.48842
C    -1.20373  -1.87352   0.03828
C    -0.49107  -0.96213  -1.00992
C    -1.70389  -0.30165  -1.69244
H     4.10993  -1.65467   0.17101
H     4.21917   0.10617  -0.11057
H     3.77982  -0.50674   1.50000
H     1.86703  -1.55412  -0.32941
H    -0.09619   2.45489   1.46159
H    -1.75870   1.94039   1.90018
H    -1.51345   3.02492   0.53007
H    -3.13309   0.93146  -0.42478
H    -2.39393  -0.76424   1.56391
H    -3.36696  -1.47618   0.25890
H    -1.54489  -2.80733  -0.43370
H    -0.52989  -2.14020   0.86498
H     0.21785  -1.48660  -1.66410
H    -2.39340  -1.02632  -2.15295
H    -1.41810   0.46228  -2.43073
