52
Generated by autodE on: 2022-06-05. E = -1280.055100 Ha
C    -2.65673  -0.80312   3.05385
N    -2.13405  -0.48833   1.73908
C    -1.01920  -1.07308   1.26992
O    -0.43843  -1.97473   1.88152
C    -0.54709  -0.57745  -0.10744
C    -1.48371  -1.13915  -1.24021
C    -1.67446  -2.65631  -1.02214
C    -0.27024  -3.24096  -1.34647
C     0.52706  -1.99577  -1.78966
C    -0.55695  -1.14563  -2.47091
C     0.83642  -1.17519  -0.51906
C     1.78415   0.03974  -0.69103
C     2.63287  -0.07211  -1.89598
N     3.30810  -0.13849  -2.83635
C     2.79996   0.19852   0.49376
O     3.49897   1.18101   0.61100
O     2.84650  -0.84621   1.30401
C     3.69487  -0.73079   2.45856
N     0.89689   1.19260  -0.86083
C     1.47432   2.53155  -0.90889
C    -0.34958   0.99549  -0.12872
C    -1.57805   1.65605  -0.79022
C    -1.50143   2.28949  -2.14453
O    -2.63457   1.62333  -0.17477
C    -0.11537   1.56214   1.31947
C    -0.76562   2.83870   1.75604
O     0.70533   0.99178   2.01547
H    -3.57197  -0.22181   3.22093
H    -2.89542  -1.87441   3.14069
H    -1.92798  -0.55299   3.84256
H    -2.54637   0.27750   1.20186
H    -2.43317  -0.60269  -1.33389
H    -2.42941  -3.01902  -1.73442
H    -2.02965  -2.91453  -0.01619
H    -0.31961  -3.97535  -2.16329
H     0.19167  -3.73272  -0.47833
H     1.41796  -2.23156  -2.38430
H    -1.02059  -1.64693  -3.33374
H    -0.20454  -0.15554  -2.78206
H     1.22550  -1.81821   0.26926
H     3.35830   0.10860   3.08313
H     3.59209  -1.67713   3.00076
H     4.73844  -0.57228   2.15276
H     2.32447   2.53221  -1.60512
H     0.72950   3.23818  -1.29489
H     1.83345   2.90162   0.06529
H    -1.39353   3.37832  -2.00064
H    -2.45206   2.11820  -2.66810
H    -0.65324   1.93598  -2.73908
H    -1.83085   2.66229   1.96669
H    -0.71866   3.59188   0.95449
H    -0.26420   3.20731   2.65982
