52
Generated by autodE on: 2022-06-05. E = -1279.981115 Ha. Imaginary frequency = -255.5 cm-1
C    -2.95471  -0.71616   2.89753
N    -2.34603  -0.75375   1.58418
C    -1.00563  -0.85098   1.43205
O    -0.25785  -1.09513   2.39080
C    -0.49867  -0.72993   0.03636
C    -1.36961  -0.97438  -1.19713
C    -1.60068  -2.52029  -1.22821
C    -0.18650  -3.08058  -1.55444
C     0.67732  -1.78610  -1.70431
C    -0.34629  -0.83165  -2.34050
C     0.77282  -1.23812  -0.29559
C     2.09861   0.62038  -0.37943
C     3.05021   0.29406  -1.39419
N     3.79386  -0.02194  -2.23191
C     2.53050   0.31606   1.00820
O     2.03721   0.78305   2.01442
O     3.52101  -0.57834   1.02169
C     3.93160  -1.05434   2.31425
N     1.16502   1.58903  -0.69639
C     1.39669   2.33014  -1.96018
C    -0.00063   1.72486   0.02567
C    -1.24275   2.12513  -0.69936
C    -2.45761   2.50911   0.10623
O    -1.30619   2.10166  -1.92561
C     0.06671   2.18420   1.46920
C     1.00431   3.34588   1.70726
O    -0.74133   1.84370   2.31368
H    -2.65941   0.19058   3.45222
H    -2.65131  -1.59110   3.49110
H    -4.04641  -0.72554   2.78708
H    -2.89920  -0.44722   0.79186
H    -2.28646  -0.37795  -1.27580
H    -2.32155  -2.76272  -2.02290
H    -2.00590  -2.89865  -0.28035
H    -0.18060  -3.63836  -2.50266
H     0.20333  -3.74568  -0.77046
H     1.63045  -1.93628  -2.22536
H     0.01517   0.18840  -2.47908
H    -0.73786  -1.20372  -3.29856
H     1.39596  -1.72962   0.45106
H     3.07499  -1.50371   2.83640
H     4.70445  -1.80703   2.12352
H     4.34027  -0.22891   2.91401
H     0.74181   3.20156  -1.99216
H     1.22910   1.71040  -2.84986
H     2.43868   2.67380  -1.95028
H    -2.26708   3.43533   0.67144
H    -3.29020   2.67004  -0.58967
H    -2.71895   1.73594   0.83863
H     1.92778   3.28300   1.12048
H     0.46665   4.25826   1.39333
H     1.22917   3.42276   2.77938
