39
Generated by autodE on: 2022-06-21. E = -968.582678 Ha
C    -2.80467   2.89346  -0.44319
N    -2.23725   1.55932  -0.47812
C    -1.04652   1.29630   0.06099
O    -0.38708   2.14347   0.68053
C    -0.45295  -0.12864  -0.09194
C    -1.44306  -1.15210  -0.68383
O    -2.11862  -0.87757  -1.68974
N    -1.49605  -2.33340  -0.06880
C    -2.28977  -3.43612  -0.57119
N     0.06997  -0.61138   1.19209
C    -0.61483  -0.24339   2.42531
N     1.48558  -0.33625   1.24089
C     2.21731  -1.37545   1.64976
N     2.85954  -2.24687   2.08831
C     1.89804   0.40121   0.03914
C     2.09430   1.87945   0.34309
O     2.42584   2.68194  -0.50282
C     0.83204  -0.02482  -1.01380
C     1.23242  -1.40796  -1.55569
C     0.65194   0.93281  -2.18937
H    -3.83068   2.85344  -0.82852
H    -2.82346   3.27817   0.58658
H    -2.21985   3.59694  -1.05896
H    -2.63083   0.84316  -1.08990
H    -0.84477  -2.46147   0.70321
H    -2.39751  -4.18988   0.21866
H    -1.81659  -3.90702  -1.44915
H    -3.28645  -3.08130  -0.86880
H    -0.26206  -0.89537   3.23794
H    -1.68916  -0.42825   2.28523
H    -0.46358   0.80965   2.70854
H     2.88979   0.04538  -0.28073
H     2.04405   2.14020   1.42251
H     1.34542  -2.15962  -0.76226
H     0.48806  -1.77571  -2.27578
H     2.19383  -1.32023  -2.08204
H     0.41928   1.95811  -1.87948
H     1.57351   0.96267  -2.78818
H    -0.16375   0.56704  -2.82889
