13
Generated by autodE on: 2022-10-06. E = -245.298501 Ha
C    -1.63544   0.57365  -0.95453
N    -0.90931  -0.27100  -0.02136
C     0.39454  -0.14700   0.23725
N     1.11624   0.79678  -0.37079
N     0.97992  -0.96939   1.11307
H    -2.68312   0.25324  -0.96330
H    -1.59899   1.63233  -0.65184
H    -1.23536   0.48223  -1.97710
H    -1.41233  -1.00925   0.46080
H     2.10786   0.88470  -0.17708
H     0.69851   1.42806  -1.04374
H     1.97169  -0.89173   1.30975
H     0.44554  -1.69902   1.57155
