35
Generated by autodE on: 2022-10-06. E = -758.302661 Ha. Imaginary frequency = -95.0 cm-1
C     3.45743   2.03533  -0.07294
N     2.36295   1.16205  -0.46394
C     1.87700   0.24665   0.37328
O     2.28369   0.03833   1.51123
C     0.84183  -0.75185  -0.18337
C     1.38918  -1.57930  -1.22539
N     1.85449  -2.16585  -2.11331
N    -0.52422   0.79896  -1.12551
C    -1.70921   0.41164  -0.37248
N    -2.47905  -0.59299  -1.06520
N    -2.56178   1.56077  -0.13273
C    -3.73737   1.33080   0.70246
C    -1.13664  -0.21487   1.00153
C    -0.60706   0.85623   1.94652
N    -0.17072  -1.21087   0.53954
C    -0.61928  -2.60805   0.49123
H     3.15825   2.69144   0.75883
H     3.73609   2.65321  -0.93418
H     4.32903   1.44489   0.24712
H     1.96163   1.25515  -1.39193
H    -0.62280   0.65809  -2.13056
H    -0.18987   1.74256  -0.92363
H    -1.87688  -1.32390  -1.44271
H    -2.93187  -0.14767  -1.86549
H    -2.00265   2.32064   0.25335
H    -4.30065   2.27203   0.77566
H    -3.51796   0.99256   1.73214
H    -4.38999   0.58256   0.23524
H    -1.94236  -0.76538   1.49697
H     0.02081   1.60891   1.45167
H    -1.45923   1.38101   2.39711
H    -0.02607   0.39309   2.75337
H    -0.54329  -3.01950   1.50870
H     0.01959  -3.19580  -0.17689
H    -1.66330  -2.66981   0.16431
