51
Generated by autodE on: 2022-06-23. E = -1109.728584 Ha
C    -3.07913   2.11316  -2.68196
N    -2.44548   1.23111  -1.72716
C    -1.47158   1.61828  -0.89288
O    -1.08156   2.78501  -0.77155
C    -0.90139   0.47342  -0.00676
C    -1.69753   0.53512   1.29159
C    -1.48078   1.60043   2.18173
C    -2.20521   1.69498   3.37087
C    -3.16562   0.72859   3.68981
C    -3.39771  -0.32598   2.80444
C    -2.67268  -0.41957   1.61117
N    -1.03947  -0.81521  -0.70156
C     0.16927  -1.04347  -1.54941
C    -0.20647  -0.99369  -3.03404
C     0.77524  -2.40832  -1.21833
C     1.12685   0.15406  -1.18427
C     0.62370   0.66592   0.17282
C     1.17895  -0.12643   1.36570
C     2.64061  -0.44713   1.18938
C     3.50435  -0.81667   2.31413
N     2.91475  -0.89424   3.53747
O     4.72616  -1.05646   2.19654
C     3.19845  -0.43989  -0.05969
N     2.54977  -0.12850  -1.20331
C     3.21117  -0.23186  -2.49125
H    -4.12695   1.81649  -2.83031
H    -3.05074   3.14301  -2.30287
H    -2.56874   2.08995  -3.66027
H    -2.55762   0.22105  -1.80119
H    -0.74067   2.36403   1.93942
H    -2.01711   2.52742   4.05313
H    -3.73104   0.80049   4.62188
H    -4.15025  -1.08320   3.03712
H    -2.88342  -1.24200   0.92687
H    -1.08912  -1.55288  -0.00193
H    -0.66293  -0.02797  -3.29487
H     0.68377  -1.12977  -3.66642
H    -0.92571  -1.79181  -3.27549
H     1.63736  -2.62579  -1.86419
H     1.10657  -2.46993  -0.17248
H     0.02342  -3.19564  -1.38722
H     0.95583   0.94785  -1.92765
H     0.88008   1.72608   0.28708
H     1.02242   0.47286   2.27468
H     0.58861  -1.04955   1.51464
H     3.48118  -1.18251   4.32715
H     1.91992  -0.77217   3.67524
H     4.25713  -0.68266  -0.17282
H     4.29987  -0.19415  -2.35097
H     2.91120   0.60857  -3.13646
H     2.96205  -1.17024  -3.01597
