31
Generated by autodE on: 2022-06-23. E = -651.950386 Ha
C    -1.34911   3.66600   1.11000
N    -1.01981   2.26849   0.93530
C     0.18648   1.88199   0.42536
O     1.08237   2.74713   0.21684
C     0.41477   0.48742   0.10913
N     1.64684   0.32501  -0.50826
C     2.42066  -0.70609  -0.75098
C     3.68055  -0.47783  -1.51841
C     2.09232  -2.07254  -0.26562
C    -0.61508  -0.55479   0.08986
C    -1.48028  -0.76560   1.18897
C    -2.50296  -1.71485   1.13708
C    -2.68689  -2.50074  -0.00520
C    -1.83514  -2.31470  -1.10068
C    -0.82315  -1.35617  -1.05870
H    -2.29441   3.74391   1.66343
H    -1.46416   4.20322   0.15062
H    -0.56605   4.18193   1.68526
H    -1.77670   1.59512   0.94383
H     2.03853   1.25099  -0.73346
H     3.83206   0.58662  -1.75136
H     4.55113  -0.85184  -0.95341
H     3.65869  -1.03921  -2.46971
H     3.01609  -2.66127  -0.17201
H     1.42148  -2.61264  -0.95793
H     1.58005  -2.03504   0.70786
H    -1.33069  -0.19188   2.10563
H    -3.15145  -1.85244   2.00631
H    -3.48167  -3.24928  -0.04192
H    -1.96975  -2.91366  -2.00527
H    -0.19316  -1.20551  -1.93765
