51
Generated by autodE on: 2022-06-23. E = -1109.648823 Ha. Imaginary frequency = -412.4 cm-1
C    -3.39197   2.11882  -2.57264
N    -2.76609   1.11314  -1.73866
C    -1.82024   1.44067  -0.82532
O    -1.64792   2.62354  -0.48070
C    -1.06737   0.30122  -0.22562
C    -1.26140   0.04792   1.21222
C    -1.91097   0.98319   2.05334
C    -2.08311   0.73960   3.41545
C    -1.61737  -0.44611   3.99490
C    -0.97086  -1.38197   3.18402
C    -0.77737  -1.13142   1.82544
N    -0.83788  -0.81119  -1.01957
C    -0.11826  -0.83634  -2.17360
C    -0.30103   0.21201  -3.23376
C     0.18949  -2.21566  -2.68285
C     1.74272   0.15339  -1.25939
C     1.13268   1.15146  -0.50082
C     1.47850   1.35660   0.95655
C     2.00901   0.07543   1.56353
C     2.03001  -0.15934   3.00563
N     1.58356   0.86185   3.79679
O     2.45510  -1.21240   3.52859
C     2.51374  -0.90300   0.75199
N     2.47587  -0.86566  -0.60305
C     3.31168  -1.76363  -1.38131
H    -4.14236   1.63725  -3.21201
H    -3.89129   2.88218  -1.95800
H    -2.65541   2.63118  -3.21603
H    -2.82254   0.14444  -2.03140
H    -2.27865   1.91700   1.63038
H    -2.58893   1.48802   4.03087
H    -1.75001  -0.63313   5.06290
H    -0.57257  -2.30266   3.61623
H    -0.21921  -1.86908   1.24829
H    -0.77015  -1.68466  -0.50136
H    -0.30712   1.23753  -2.84671
H     0.51165   0.12598  -3.96859
H    -1.25201   0.04944  -3.77358
H     1.00131  -2.18007  -3.42141
H     0.47817  -2.89622  -1.86676
H    -0.69161  -2.64820  -3.19225
H     2.04759   0.32785  -2.28991
H     0.78598   2.03385  -1.03676
H     2.22640   2.17308   1.05072
H     0.59273   1.72159   1.50078
H     1.38473   0.61929   4.76244
H     0.99261   1.58103   3.39472
H     2.97070  -1.79339   1.18922
H     3.41208  -2.72765  -0.86269
H     4.32279  -1.34532  -1.53529
H     2.86427  -1.94125  -2.36540
