30
Generated by autodE on: 2022-06-17. E = -813.490554 Ha
C    -0.28046   4.18057  -0.43893
N     0.12977   2.80659  -0.65620
C    -0.31122   1.80873   0.11354
O    -1.11610   1.95474   1.03990
C     0.18621   0.38938  -0.25425
C     1.70591   0.38653  -0.53122
O     2.16951   1.08200  -1.44885
N     2.43390  -0.40166   0.26037
C     3.86711  -0.56404   0.13675
C    -0.56656  -0.12941  -1.50997
C    -0.74097  -1.61429  -1.21533
C    -1.04217  -1.59390   0.31041
C    -2.47501  -1.28755   0.54126
N    -3.58515  -1.00270   0.71564
C    -0.72910  -2.88904   0.94647
N    -0.45692  -3.90270   1.43785
N    -0.17228  -0.53366   0.82963
H     0.12319   4.80343  -1.24636
H     0.08846   4.56664   0.52544
H    -1.37760   4.26364  -0.44052
H     0.87297   2.57905  -1.31804
H     1.90427  -0.94739   0.93781
H     4.28360   0.29224  -0.40841
H     4.12404  -1.48595  -0.41048
H     4.32546  -0.61305   1.13437
H    -0.00987   0.06681  -2.43374
H    -1.54733   0.36235  -1.58252
H    -1.54306  -2.10132  -1.78292
H     0.19644  -2.16628  -1.36812
H    -0.62054  -0.01392   1.58679
