24
Generated by autodE on: 2022-07-27. E = -734.797543 Ha
C     0.16152   4.27319  -0.78208
N     0.44433   2.85483  -0.68047
C    -0.38547   2.01949  -0.04640
O    -1.42526   2.36855   0.53323
C    -0.01503   0.56919  -0.04194
N    -0.96913  -0.18059   0.46043
C    -1.18435  -1.52316   0.57651
C    -2.35686  -1.95096   1.24009
N    -3.31924  -2.32037   1.78778
C    -0.33274  -2.49049   0.00007
N     0.33163  -3.32159  -0.47968
C     1.29350   0.07346  -0.56848
O     1.69108   0.44520  -1.68014
N     2.00485  -0.71176   0.25167
C     3.22040  -1.36917  -0.19270
H    -0.68813   4.46968  -1.45698
H     1.04954   4.78436  -1.17251
H    -0.08509   4.68531   0.20665
H     1.18773   2.44534  -1.24347
H    -1.73813   0.42703   0.80752
H     1.61762  -0.97373   1.15351
H     2.99404  -2.15034  -0.93658
H     3.90540  -0.64072  -0.64873
H     3.70900  -1.83116   0.67309
