24
Generated by autodE on: 2022-06-17. E = -734.797493 Ha
C     3.44662  -0.35480  -0.54132
N     2.08760  -0.47258  -0.04496
C     1.03425  -0.42554  -0.87163
O     1.12869  -0.45686  -2.10572
C    -0.31560  -0.41519  -0.23008
N    -0.70452   0.40276   0.72088
C    -0.17087   1.49604   1.33825
C    -0.91183   2.08977   2.38539
N    -1.50983   2.59024   3.25398
C     1.03864   2.09904   0.93038
N     2.02154   2.64129   0.61071
C    -1.39982  -1.36921  -0.62572
O    -2.44065  -1.39847   0.04891
N    -1.16683  -2.14074  -1.69276
C    -2.16385  -3.06758  -2.19145
H     4.14189  -0.56610   0.27943
H     3.63829   0.66159  -0.92196
H     3.62056  -1.07122  -1.35649
H     1.93891  -0.45283   0.95957
H    -1.66453   0.14466   1.02565
H    -0.34330  -1.92927  -2.25415
H    -2.55783  -3.68258  -1.37003
H    -1.69821  -3.72183  -2.93806
H    -3.01049  -2.53865  -2.66005
