30
Generated by autodE on: 2022-06-17. E = -813.412773 Ha. Imaginary frequency = -385.5 cm-1
C    -0.07697   4.30325  -0.72718
N     0.28761   2.90243  -0.64426
C    -0.42392   2.03294   0.08163
O    -1.40382   2.33968   0.77370
C    -0.00575   0.58645  -0.00937
C     1.43334   0.28941  -0.35470
O     1.92840   0.64499  -1.43191
N     2.14681  -0.29518   0.61991
C     3.49812  -0.77293   0.39723
C    -1.02580  -0.01796  -1.86340
C    -1.48812  -1.30022  -1.63610
C    -0.90598  -1.53927   0.70539
C    -2.05188  -2.09751   1.33799
N    -3.00830  -2.55768   1.81880
C     0.13672  -2.44852   0.36705
N     0.95381  -3.23102   0.08698
N    -0.69989  -0.18916   0.85522
H    -1.04016   4.43906  -1.24594
H     0.70265   4.83939  -1.28114
H    -0.16660   4.74096   0.27799
H     1.02944   2.52998  -1.23492
H     1.68543  -0.54541   1.48854
H     3.49618  -1.67380  -0.23903
H     4.10149   0.00130  -0.09636
H     3.95158  -1.02124   1.36429
H    -0.12340   0.14875  -2.45333
H    -1.73576   0.81142  -1.81488
H    -2.53069  -1.47933  -1.36574
H    -0.91269  -2.16891  -1.96211
H    -1.49169   0.33196   1.25582
