40
Generated by autodE on: 2022-10-07. E = -1292.535270 Ha
C    -0.86127  -2.56407   2.49416
N    -0.78543  -1.22494   1.95127
C    -1.30785  -0.92352   0.75424
O    -2.11000  -1.63022   0.13860
C    -0.83030   0.45304   0.19479
C    -1.94317   1.44989   0.49574
O    -1.87813   2.31458   1.34693
O    -3.04443   1.17898  -0.20735
C    -4.14542   2.08142  -0.04618
N     0.40673   0.86764   0.84723
C     1.55322   0.49664  -0.00189
C     2.34725   1.75344  -0.39275
C     2.53677  -0.44115   0.70976
O     3.59750  -0.77167   0.21125
O     2.19132  -0.76693   1.95936
C     3.00426  -1.74545   2.61378
C     0.95365  -0.20303  -1.26772
C     0.95093  -1.75150  -1.29321
O     1.19647  -2.37495  -0.22614
O     0.66377  -2.27189  -2.39935
C    -0.50304   0.31838  -1.30513
C    -0.60639   1.64180  -2.09868
O    -0.36548   1.55982  -3.32742
O    -0.90892   2.69329  -1.47057
H    -0.22415  -3.26010   1.92206
H    -0.52635  -2.55519   3.53955
H    -1.89492  -2.93532   2.45681
H     0.02301  -0.64565   2.18683
H    -3.85589   3.08832  -0.38163
H    -4.95301   1.69106  -0.67627
H    -4.46804   2.12135   1.00400
H     0.38018   1.87169   1.00699
H     1.69675   2.45228  -0.93582
H     3.20453   1.48988  -1.02580
H     2.72322   2.26247   0.50946
H     2.53763  -1.92490   3.58973
H     4.03245  -1.37821   2.74613
H     3.02036  -2.67416   2.02474
H     1.47799   0.12401  -2.17439
H    -1.15534  -0.41044  -1.80074
