30
Generated by autodE on: 2022-10-13. E = -837.425998 Ha
C    -1.79185  -2.93849   0.84996
N    -1.63978  -1.50426   0.72836
C    -0.63228  -0.97030   0.00252
O     0.25207  -1.70246  -0.49230
C    -0.61403   0.48183  -0.20315
N     0.46722   1.05268  -0.84852
C     1.72403   0.71757  -0.97676
C     2.59863   1.44969  -1.93352
C     2.35933  -0.35667  -0.16146
O     3.23248  -1.08138  -0.59506
O     1.98237  -0.30937   1.11641
C     2.48838  -1.34201   1.97364
C    -1.72152   1.40666  -0.13670
O    -1.66948   2.56035  -0.57045
O    -2.83923   0.92069   0.44614
C    -3.96848   1.79832   0.51622
H    -0.87844  -3.39768   1.25807
H    -2.62449  -3.14852   1.53298
H    -2.00353  -3.42080  -0.11981
H    -2.40206  -0.89217   1.00187
H     0.19242   1.92393  -1.32411
H     2.06103   2.28723  -2.39872
H     2.93709   0.76162  -2.72662
H     3.50206   1.82589  -1.42719
H     2.19013  -2.32766   1.58881
H     2.03715  -1.16579   2.95667
H     3.58428  -1.28660   2.04158
H    -4.29637   2.09185  -0.49157
H    -4.75973   1.22952   1.01858
H    -3.72462   2.70004   1.09656
