40
Generated by autodE on: 2022-10-07. E = -1292.463013 Ha. Imaginary frequency = -340.2 cm-1
C    -1.07058  -1.92187   3.38333
N    -0.96444  -0.75102   2.53653
C    -1.04637  -0.81739   1.18924
O    -1.43491  -1.81370   0.58107
C    -0.77266   0.52052   0.51709
C    -1.95410   1.40678   0.44661
O    -1.88778   2.62648   0.40355
O    -3.10091   0.72449   0.38658
C    -4.28982   1.48784   0.14188
N     0.38337   1.23545   0.69706
C     1.66203   0.89809   0.39543
C     2.58183   2.03944   0.07656
C     2.32623  -0.33812   0.84027
O     3.54238  -0.46877   0.84014
O     1.49532  -1.30408   1.23192
C     2.05270  -2.58699   1.53184
C     1.02357  -0.12427  -1.69107
C     1.65603  -1.49252  -1.70706
O     0.92341  -2.49894  -1.48803
O     2.90029  -1.53519  -1.93726
C    -0.35559   0.05336  -1.63540
C    -0.97639   1.31584  -2.19251
O    -2.18554   1.24266  -2.55323
O    -0.25911   2.35416  -2.24964
H    -1.71217  -2.66489   2.89431
H    -0.08511  -2.38032   3.57256
H    -1.51795  -1.64644   4.34876
H    -0.52576   0.07497   2.93141
H    -4.20200   2.01473  -0.81838
H    -5.11072   0.76250   0.10431
H    -4.45967   2.21262   0.95093
H     0.19023   2.22519   0.51239
H     2.04418   2.80921  -0.49412
H     3.41997   1.67283  -0.52981
H     3.00594   2.49549   0.98802
H     1.20334  -3.27677   1.58301
H     2.58098  -2.55799   2.49650
H     2.74476  -2.89732   0.73794
H     1.62846   0.68357  -2.10479
H    -0.99342  -0.82975  -1.60140
