11
Generated by autodE on: 2022-06-17. E = -376.770398 Ha
C    -2.29462   0.63597  -0.40829
N    -1.64108  -0.65894  -0.42418
C    -0.34918  -0.91809  -0.17419
O     0.16417  -2.03632  -0.18146
C     0.48736   0.25535   0.12574
N     1.38627   0.95201   0.39372
O     2.28257   1.70788   0.66686
H    -3.02950   0.69664   0.40918
H    -2.81275   0.81511  -1.36188
H    -1.54930   1.42939  -0.26570
H    -2.20911  -1.48124  -0.62060
