34
Generated by autodE on: 2022-06-17. E = -728.267379 Ha. Imaginary frequency = -436.3 cm-1
C    -3.03253   2.30473   2.30044
N    -2.76430   1.46643   1.14656
C    -1.81529   0.51264   1.18915
O    -1.14051   0.27026   2.19220
C    -1.63842  -0.24612  -0.06612
N    -1.94435  -0.15037  -1.24154
O    -1.76579  -0.72514  -2.30549
C    -0.47901  -2.43175  -1.35702
C    -0.30846  -2.02772  -0.04252
C    -1.02845  -2.78947   1.05889
C     0.91151  -1.28192   0.35693
C     1.57658  -0.39569  -0.41775
C     2.77733   0.29839   0.00372
C     3.48569   1.21120  -0.70668
C     3.13104   1.66644  -2.09429
C     4.71756   1.84956  -0.12876
H    -3.85982   2.98143   2.05628
H    -2.14949   2.90389   2.57379
H    -3.31434   1.69541   3.17296
H    -3.27598   1.62275   0.28414
H    -1.26521  -3.14257  -1.61852
H     0.26239  -2.20482  -2.12371
H    -1.98933  -3.18815   0.70311
H    -0.40543  -3.64112   1.38191
H    -1.20953  -2.16101   1.94023
H     1.26989  -1.46797   1.37557
H     1.17543  -0.17244  -1.41190
H     3.13820   0.04880   1.00900
H     3.96812   1.47057  -2.78767
H     2.23192   1.18521  -2.50023
H     2.97162   2.75928  -2.10934
H     4.61007   2.94873  -0.09346
H     4.93492   1.48900   0.88750
H     5.59843   1.64996  -0.76539
