38
Generated by autodE on: 2022-05-29. E = -1237.029995 Ha
C     4.89236   0.75539  -0.95145
N     3.84631   0.35688  -0.03175
C     2.91266  -0.54949  -0.38710
O     2.97351  -1.26458  -1.38838
N     1.83678  -0.68968   0.52482
N     1.64176   0.40900   1.40315
N     0.59864   1.16966   0.80602
C     0.94904   2.34320   0.15565
O     0.24881   2.87171  -0.68878
O     2.10632   2.84132   0.59719
C     2.58715   4.01618  -0.06972
C    -0.32545   0.25166   0.13690
C    -1.45520  -0.27378   1.05818
O    -0.73852  -1.20671   1.89545
C    -0.26197  -2.05190   0.83940
C    -1.55579  -2.30997   0.09049
F    -1.75607  -3.38673  -0.63623
C    -2.31673  -1.20763   0.20848
C    -3.56511  -0.88678  -0.48081
O    -4.24869  -1.68173  -1.10100
O    -3.86705   0.41427  -0.35385
C    -5.06502   0.86450  -1.00129
C     0.53907  -1.05122  -0.04340
H     5.28991  -0.12476  -1.47347
H     5.70901   1.22837  -0.39000
H     4.52811   1.47201  -1.70824
H     3.56349   1.01239   0.69302
H     1.26426   0.02891   2.27142
H     3.53721   4.26613   0.41626
H     2.75073   3.81066  -1.13742
H     1.87383   4.84509   0.04193
H    -0.70200   0.69851  -0.78617
H    -1.97525   0.48309   1.65169
H     0.29503  -2.91954   1.20632
H    -5.94161   0.33755  -0.59725
H    -5.13708   1.93761  -0.79058
H    -5.00415   0.69272  -2.08576
H     0.66017  -1.39482  -1.07366
