19
Generated by autodE on: 2022-05-29. E = -634.779113 Ha
C     3.57748   0.86674   0.40132
O     2.25346   0.35643   0.60099
C     1.43625   0.36632  -0.46686
O     1.77434   0.78130  -1.56370
C     0.12369  -0.17163  -0.13971
C    -0.99735  -0.17494  -0.88095
F    -1.20614   0.27862  -2.09679
C    -2.12558  -0.73101   0.00185
C    -2.39535   0.33639   1.08915
C    -1.30033   0.32388   1.85416
C    -0.37313  -0.73595   1.21583
O    -1.35678  -1.68674   0.74894
H     4.10662   0.28013  -0.36398
H     3.54289   1.92116   0.09015
H     4.08663   0.77437   1.36771
H    -2.98181  -1.17162  -0.51943
H    -3.28205   0.96672   1.13733
H    -1.04263   0.94270   2.71278
H     0.38612  -1.20120   1.85105
