34
Generated by autodE on: 2022-07-27. E = -691.266002 Ha
C    -2.92465  -2.49148   0.66719
N    -2.03960  -1.46064   0.17148
C    -0.94976  -1.04654   0.90020
O    -0.87785  -1.38914   2.11092
C     0.03339  -0.21366   0.25686
C     0.18928   0.06478  -1.16246
C     0.79645   1.28022  -1.57997
C     0.98569   1.58407  -2.92733
C     0.56698   0.69835  -3.92695
C    -0.02745  -0.50962  -3.54245
C    -0.20210  -0.82813  -2.19608
N     0.97362   0.41198   1.12596
C     2.40029   0.11551   0.90499
C     0.61478   1.12213   2.17291
C    -0.79007   1.56228   2.35092
C     1.62156   1.50040   3.20979
H    -3.39021  -2.19935   1.62164
H    -3.72353  -2.65610  -0.06811
H    -2.40701  -3.45357   0.83461
H    -2.09103  -1.22704  -0.81064
H     1.11118   2.00335  -0.82438
H     1.45538   2.53334  -3.19977
H     0.70695   0.94049  -4.98280
H    -0.34365  -1.22875  -4.30313
H    -0.61877  -1.80372  -1.94332
H     2.52019  -0.29685  -0.10058
H     3.01573   1.01818   1.00627
H     2.73175  -0.63531   1.63781
H    -0.81371   2.53307   2.86690
H    -1.31459   1.61538   1.38592
H    -1.33264   0.82972   2.97450
H     2.27659   2.30645   2.83472
H     1.11704   1.86858   4.11178
H     2.26937   0.65363   3.48116
