34
Generated by autodE on: 2022-06-30. E = -691.266043 Ha
C    -0.22054   3.81106   0.76206
N     0.11656   2.40527   0.71136
C    -0.74840   1.48795   0.16000
O    -1.94447   1.83634  -0.03003
C    -0.25435   0.16765  -0.13269
C     1.12903  -0.28164  -0.18829
C     2.22130   0.55565  -0.54006
C     3.52860   0.07221  -0.58247
C     3.80996  -1.27071  -0.30315
C     2.74775  -2.12277   0.02026
C     1.44093  -1.64094   0.08321
N    -1.24532  -0.81664  -0.41246
C    -1.17593  -1.49351  -1.71991
C    -2.27253  -1.04184   0.37783
C    -2.31139  -0.49121   1.75392
C    -3.42721  -1.86024  -0.10103
H     0.58971   4.35243   1.26855
H    -0.35731   4.25585  -0.24096
H    -1.15146   3.97869   1.32503
H     1.09077   2.15503   0.81353
H     2.04122   1.59459  -0.81919
H     4.33805   0.75317  -0.85958
H     4.83488  -1.64613  -0.34388
H     2.93990  -3.17665   0.24003
H     0.63593  -2.32452   0.36213
H    -1.91629  -1.04433  -2.39867
H    -0.17731  -1.34488  -2.13943
H    -1.37700  -2.56781  -1.62367
H    -2.85768  -1.17878   2.41573
H    -2.84252   0.47726   1.75095
H    -1.29704  -0.30083   2.13364
H    -3.14877  -2.92741  -0.15432
H    -3.75278  -1.55958  -1.10835
H    -4.27321  -1.76546   0.59084
