43
Generated by autodE on: 2022-06-21. E = -1107.857201 Ha
C    -4.23339  -1.14611   1.72503
N    -2.87891  -0.81129   1.32781
C    -2.61732  -0.16047   0.19249
O    -3.46697   0.17706  -0.63702
C    -1.15236   0.18879  -0.07132
C    -0.71505  -0.44095  -1.41113
O     0.05271   0.05208  -2.20715
O    -1.20700  -1.67156  -1.51937
C    -0.73988  -2.46396  -2.62497
O    -0.31760  -0.39587   0.93321
N     0.92395   0.30909   0.91766
C     1.97630  -0.47775   0.39917
C     3.21657   0.13232   0.13535
C     4.27896  -0.63116  -0.35064
C     4.13238  -2.00396  -0.57461
C     2.90247  -2.60780  -0.29803
C     1.82890  -1.85968   0.19039
C     0.68185   1.63228   0.32523
C     1.21136   2.76877   1.16372
O     1.81089   2.64210   2.20791
C    -0.86137   1.71030   0.09139
C    -1.24661   2.57994  -1.10315
C    -1.57252   2.22941   1.35460
H    -4.80470  -0.24593   2.00502
H    -4.19444  -1.82355   2.58642
H    -4.76289  -1.64458   0.90016
H    -2.10411  -0.99010   1.95990
H    -0.98624  -1.97311  -3.57668
H    -1.25803  -3.42576  -2.54405
H     0.34796  -2.60515  -2.54927
H     3.35917   1.19740   0.32016
H     5.23422  -0.14095  -0.55374
H     4.96739  -2.59522  -0.95614
H     2.76778  -3.67939  -0.46510
H     0.87302  -2.33792   0.39444
H     1.18660   1.71303  -0.65273
H     1.02952   3.77343   0.71565
H    -0.72646   2.28119  -2.01996
H    -1.00094   3.63042  -0.88742
H    -2.33034   2.51259  -1.27454
H    -1.28422   3.27375   1.54393
H    -2.66294   2.21749   1.21597
H    -1.32083   1.63599   2.24396
