14
Generated by autodE on: 2022-06-21. E = -270.683216 Ha
C    -1.89422  -0.39044   1.33401
C    -0.77945  -0.08861   0.38305
C    -1.17508   0.52993  -0.92716
C     0.50891  -0.37162   0.71948
C     1.67864  -0.12752  -0.11081
O     1.69123   0.37177  -1.23382
H    -1.54186  -0.84011   2.27250
H    -2.62061  -1.07140   0.85644
H    -2.45204   0.53473   1.56301
H    -0.69028   1.51010  -1.06110
H    -2.26432   0.66028  -0.99175
H    -0.83784  -0.08972  -1.77307
H     0.71358  -0.82350   1.69450
H     2.64285  -0.44004   0.35888
