29
Generated by autodE on: 2022-07-27. E = -837.076621 Ha
C    -4.13259   0.77825   2.31032
N    -2.77945   0.75533   1.79512
C    -2.51514   0.28992   0.55542
O    -3.39727  -0.17863  -0.17729
C    -1.09701   0.36841   0.12529
O    -0.34278   1.10460   0.94171
N     0.95671   1.27647   1.06426
C     1.86100   0.36479   0.56754
C     3.19404   0.85436   0.59880
C     4.26365   0.02299   0.30115
C     4.03938  -1.32802   0.00105
C     2.73244  -1.83032  -0.01026
C     1.64433  -0.99799   0.23153
C    -0.61346   0.02978  -1.21198
O     0.33167   0.60571  -1.73140
O    -1.28397  -0.96456  -1.79637
C    -0.89775  -1.28871  -3.14054
H    -4.56390  -0.23501   2.34271
H    -4.11646   1.18703   3.32775
H    -4.79221   1.40367   1.68689
H    -2.02523   1.13416   2.35659
H     3.35124   1.89816   0.87542
H     5.28033   0.42107   0.31530
H     4.87992  -1.98625  -0.22840
H     2.55425  -2.88304  -0.23933
H     0.64568  -1.42904   0.20068
H    -1.03345  -0.42007  -3.80097
H    -1.55564  -2.10830  -3.45095
H     0.15325  -1.61022  -3.16934
