43
Generated by autodE on: 2022-06-21. E = -1107.756270 Ha. Imaginary frequency = -280.5 cm-1
C    -4.27763  -0.34313   1.76639
N    -2.86101  -0.41924   1.46801
C    -2.39665  -0.23830   0.22215
O    -3.11813  -0.12034  -0.77737
C    -0.91622  -0.13894   0.06453
C    -0.34106  -0.64632  -1.24981
O     0.49818  -0.09682  -1.92282
O    -0.89794  -1.81458  -1.55207
C    -0.43719  -2.45647  -2.75513
O    -0.24643  -0.17808   1.20647
N     1.07204   0.06545   1.36253
C     1.92609  -0.71214   0.56973
C     3.17082  -0.17542   0.18981
C     4.08907  -0.96282  -0.50213
C     3.79374  -2.29400  -0.81915
C     2.56949  -2.83791  -0.41573
C     1.64168  -2.06416   0.27959
C     0.61810   2.21129   0.15567
C     1.18563   2.60191   1.44474
O     0.57117   2.99079   2.43365
C    -0.73302   2.23404  -0.18613
C    -1.13563   2.38853  -1.62973
C    -1.79215   2.63401   0.80819
H    -4.85120  -0.94111   1.04447
H    -4.45134  -0.73673   2.77528
H    -4.64481   0.69623   1.72137
H    -2.19391  -0.42543   2.23333
H    -0.63262  -1.81268  -3.62401
H    -1.00547  -3.38976  -2.83105
H     0.63966  -2.66376  -2.67856
H     3.39992   0.86481   0.42341
H     5.04441  -0.52755  -0.80477
H     4.51473  -2.90382  -1.36734
H     2.33398  -3.88216  -0.63421
H     0.70164  -2.50553   0.61182
H     1.34696   2.03497  -0.63682
H     2.30024   2.58623   1.45730
H    -1.43977   3.43970  -1.77852
H    -2.00995   1.76651  -1.87007
H    -0.31950   2.16023  -2.32356
H    -2.79528   2.43326   0.40680
H    -1.71716   3.71935   0.99218
H    -1.67074   2.13798   1.77686
