29
Generated by autodE on: 2022-06-16. E = -725.009152 Ha
C     2.87186   1.78695   0.66220
O     2.16222   0.53607   0.68437
C     1.43587   0.23721  -0.38839
O     1.39496   0.90359  -1.39773
C     0.58329  -1.02719  -0.13449
C     1.44925  -2.09438   0.39369
N     2.12117  -2.94727   0.80173
C    -0.17264  -1.46889  -1.39889
C    -1.37928  -0.52636  -1.42419
C    -1.65268  -0.18356   0.07409
C    -2.95507  -0.81090   0.58520
C    -1.69916   1.34628   0.22915
C    -2.87605   2.07920  -0.34947
O    -0.80428   1.93499   0.81549
N    -0.50053  -0.73728   0.81214
H     3.57260   1.81407  -0.18373
H     3.41553   1.84119   1.61181
H     2.15610   2.61740   0.58126
H     0.45736  -1.40458  -2.29423
H    -0.49100  -2.51138  -1.26397
H    -2.25709  -0.98966  -1.89245
H    -1.13478   0.38036  -1.99336
H    -3.82817  -0.43583   0.03303
H    -2.90406  -1.90159   0.45308
H    -3.09853  -0.59631   1.65566
H    -3.70900   2.01569   0.37125
H    -3.22331   1.62979  -1.29043
H    -2.62117   3.13731  -0.49471
H    -0.18695  -0.07762   1.52493
