23
Generated by autodE on: 2022-06-16. E = -646.334636 Ha
C     4.17492   0.66454   0.16504
O     2.88548   0.71523  -0.46020
C     1.85729   0.22713   0.24307
O     1.96002  -0.24645   1.36789
C     0.58944   0.31606  -0.47336
C     0.51584   0.87042  -1.76704
N     0.51935   1.34044  -2.83639
N    -0.47316  -0.17498   0.21578
C    -1.75951  -0.30603  -0.01782
C    -2.39462   0.13098  -1.28825
C    -2.47613  -0.93494   1.12645
C    -3.95225  -1.16276   1.01164
O    -1.83783  -1.25095   2.13002
H     4.87660   1.09604  -0.55802
H     4.45422  -0.37493   0.39040
H     4.17731   1.25400   1.09341
H    -0.20307  -0.53324   1.15158
H    -3.47113  -0.06829  -1.28103
H    -1.95138  -0.39631  -2.14869
H    -2.24377   1.21070  -1.44996
H    -4.17286  -1.81082   0.14799
H    -4.47527  -0.20803   0.83994
H    -4.32335  -1.63014   1.93198
