29
Generated by autodE on: 2022-06-16. E = -724.943523 Ha. Imaginary frequency = -440.2 cm-1
C     4.25066  -0.51260  -0.04012
O     2.89546  -0.93914   0.16584
C     1.97273   0.01844   0.26727
O     2.21133   1.21353   0.21526
C     0.60602  -0.52433   0.38887
C     0.45095  -1.88539   0.77228
N     0.36488  -3.00885   1.07183
C     0.03049  -0.80106  -1.85180
C    -1.19603  -0.14543  -1.90380
C    -1.63844   0.33005   0.17677
C    -2.49051  -0.85352   0.53734
C    -2.25965   1.68567   0.00683
C    -3.71217   1.76238  -0.35476
O    -1.56070   2.68805   0.12043
N    -0.35585   0.42311   0.60992
H     4.84668  -1.42962  -0.10863
H     4.33240   0.06570  -0.97166
H     4.59245   0.10125   0.80548
H     0.07892  -1.89201  -1.83988
H     0.94116  -0.28440  -2.16180
H    -2.11155  -0.72605  -2.03487
H    -1.22451   0.87963  -2.28259
H    -3.42585  -0.84981  -0.03377
H    -1.98152  -1.80419   0.34275
H    -2.74181  -0.81241   1.61140
H    -4.32444   1.39580   0.48559
H    -3.93243   1.11824  -1.22011
H    -3.98074   2.80200  -0.57995
H     0.01419   1.37622   0.50227
