24
Generated by autodE on: 2022-06-04. E = -705.349400 Ha
C     4.52532   0.26046   0.22342
C     3.22246   0.91842   0.56787
O     3.12482   1.99032   1.16592
C     2.00496   0.23221   0.16285
N     0.76721   0.66016   0.38276
C    -0.16090  -0.20664  -0.11765
C    -1.59929  -0.03057  -0.04485
C    -2.45914  -1.01986  -0.57031
C    -3.84282  -0.86171  -0.50319
C    -4.40081   0.27835   0.08436
C    -3.55687   1.26528   0.60642
C    -2.17253   1.11718   0.54456
C     0.58707  -1.27946  -0.70662
O     0.30133  -2.31159  -1.28858
O     1.94858  -0.93322  -0.49176
H     4.58443  -0.73243   0.69853
H     4.59704   0.10243  -0.86487
H     5.35556   0.88975   0.56746
H     0.58503   1.53608   0.87610
H    -2.03077  -1.91047  -1.02895
H    -4.49154  -1.63881  -0.91433
H    -5.48524   0.39851   0.13501
H    -3.98030   2.16122   1.06626
H    -1.53912   1.90551   0.95698
