18
Generated by autodE on: 2022-06-04. E = -2938.734762 Ha
N     2.64823  -1.61295  -1.16467
C     1.61751  -1.07163  -1.10505
C     0.36388  -0.42056  -1.06764
C    -0.15349   0.32543  -0.06156
Br    0.65719   0.72291   1.58212
C    -1.59450   0.64112  -0.39001
C    -2.35632  -0.71942  -0.24179
C    -1.79024  -1.57071  -1.41327
C    -0.76753  -0.60312  -2.08561
C    -1.49186   0.74972  -1.92734
H    -2.03193   1.48088   0.16088
H    -3.43512  -0.54085  -0.35490
H    -2.19005  -1.17297   0.74525
H    -1.30904  -2.49984  -1.07827
H    -2.57789  -1.83560  -2.13338
H    -0.43814  -0.89420  -3.08946
H    -0.88771   1.60610  -2.25872
H    -2.47634   0.76870  -2.41728
