37
Generated by autodE on: 2022-05-30. E = -3491.339986 Ha
C    -4.04711   1.59679  -0.30521
C    -2.67459   2.05320   0.09490
O    -2.23973   3.15523  -0.19276
C    -1.83705   1.10737   0.96153
N    -0.45301   1.52551   1.11999
C     0.37742   0.86145   0.11803
C     0.32353   1.62292  -1.16020
N     0.29595   2.32144  -2.08680
C     1.84530   0.74969   0.54067
C     2.84038   0.50060  -0.41492
C     4.16696   0.31662  -0.01881
C     4.51201   0.38669   1.33450
C     3.52193   0.64021   2.28793
C     2.19293   0.81903   1.89437
C    -0.31767  -0.55376  -0.03834
Br   -0.17967  -1.20795  -1.89182
C     0.21253  -1.65766   0.94756
C    -0.52955  -2.95214   0.62995
C    -1.77022  -2.76851   1.09598
C    -1.77623  -1.36739   1.68018
O    -0.42164  -1.23894   2.15692
C    -1.77307  -0.35545   0.48817
H    -4.68083   2.46369  -0.53470
H    -3.95600   0.97990  -1.21604
H    -4.50857   0.96906   0.47121
H    -2.35304   1.14557   1.93948
H    -0.36031   2.54020   1.06654
H     2.58405   0.44840  -1.47475
H     4.93373   0.12293  -0.77233
H     5.55043   0.24729   1.64398
H     3.78302   0.69875   3.34720
H     1.41516   1.00303   2.63346
H     1.30018  -1.70315   1.04680
H    -0.12134  -3.79139   0.06957
H    -2.64077  -3.41823   1.00698
H    -2.50038  -1.13815   2.46923
H    -2.54231  -0.59678  -0.25084
