13
Generated by autodE on: 2022-05-30. E = -2881.097879 Ha
Br    1.50911  -0.85120   0.48255
C    -0.15560  -0.22943  -0.11672
C    -1.38130  -0.71429   0.09427
C    -2.30419   0.35155  -0.54456
C    -2.21612   1.62509   0.33140
C    -0.98484   2.10086   0.12734
C    -0.34368   1.11025  -0.87391
O    -1.48943   0.76131  -1.66627
H    -1.70536  -1.58982   0.65350
H    -3.30017   0.02011  -0.85737
H    -2.99909   1.97874   1.00143
H    -0.47693   2.95108   0.58094
H     0.49841   1.46192  -1.47947
