24
Generated by autodE on: 2022-07-27. E = -610.162437 Ha
C    -4.52344   0.96952  -0.22129
C    -3.03014   0.75934  -0.31467
O    -2.38016   1.26078  -1.24951
C    -2.41498   0.01600   0.74805
N    -1.09219  -0.22637   0.82948
C    -0.11252  -0.26770  -0.09201
C    -0.42604  -0.47363  -1.45786
N    -0.58984  -0.74428  -2.58088
C     1.29061  -0.26113   0.33123
C     2.29987  -0.74468  -0.52875
C     3.63154  -0.76059  -0.12026
C     3.98839  -0.29863   1.15181
C     2.99854   0.19435   2.00780
C     1.66479   0.22756   1.60126
H    -4.94420   0.65046   0.74168
H    -4.75511   2.03128  -0.39824
H    -5.00977   0.39191  -1.02586
H    -2.97379  -0.22286   1.65131
H    -0.76376  -0.41702   1.78136
H     2.03388  -1.12177  -1.51786
H     4.39699  -1.14313  -0.79918
H     5.03314  -0.31319   1.46967
H     3.26754   0.57617   2.99523
H     0.92142   0.66522   2.27097
