37
Generated by autodE on: 2022-05-30. E = -3491.258766 Ha. Imaginary frequency = -275.3 cm-1
C    -4.10464   1.78967   0.00583
C    -2.62609   2.09355   0.01089
O    -2.12825   2.84251  -0.83077
C    -1.84182   1.46557   1.06745
N    -0.49770   1.58028   1.20551
C     0.48584   1.42034   0.28809
C     0.35175   1.79095  -1.07598
N     0.43409   2.03222  -2.21410
C     1.84888   1.08911   0.74605
C     2.82247   0.69306  -0.19483
C     4.09163   0.29009   0.21659
C     4.42602   0.27829   1.57448
C     3.47401   0.68085   2.51579
C     2.20159   1.08435   2.11088
C    -0.57988  -0.93752  -0.25576
Br   -0.21439  -1.25896  -2.07925
C     0.21148  -1.70745   0.82354
C    -0.42038  -3.11396   0.90040
C    -1.63172  -2.91574   1.43282
C    -1.72516  -1.39695   1.67596
O    -0.34829  -1.09945   1.99905
C    -1.83029  -0.71624   0.28822
H    -4.66749   2.73508  -0.03401
H    -4.34415   1.22882  -0.91265
H    -4.42546   1.20152   0.87563
H    -2.35839   1.28410   2.00993
H    -0.20044   1.26694   2.12738
H     2.57422   0.68007  -1.25649
H     4.82369  -0.02114  -0.53208
H     5.42083  -0.03737   1.89616
H     3.72296   0.68959   3.57931
H     1.50043   1.41225   2.88074
H     1.30333  -1.63103   0.79725
H     0.03546  -4.03071   0.52805
H    -2.43627  -3.62818   1.61304
H    -2.40893  -1.05221   2.45806
H    -2.76027  -0.66037  -0.27453
