30
Generated by autodE on: 2022-10-21. E = -780.150769 Ha
C     4.22722  -0.10497   0.52472
N     3.74662  -1.44955   0.79830
C     2.59501  -1.96977   0.34288
O     2.21299  -3.12867   0.53147
C     1.76715  -1.08845  -0.50701
N     0.80931  -0.39098  -0.28633
C    -0.18819   0.42224  -0.15439
C     0.20703   1.85933  -0.02868
O     1.38089   2.17854   0.21266
N    -0.75586   2.78158  -0.22508
C    -0.46540   4.20012  -0.15403
C    -1.56409  -0.11876  -0.19638
C    -2.60112   0.43477   0.57938
C    -3.88693  -0.10844   0.53258
C    -4.15913  -1.21542  -0.27605
C    -3.13102  -1.78254  -1.03767
C    -1.84676  -1.24156  -0.99895
H     4.93226   0.18776   1.31326
H     3.39622   0.61265   0.53141
H     4.74343  -0.03927  -0.44755
H     4.36223  -2.10626   1.27294
H    -1.68453   2.48672  -0.50541
H    -1.40766   4.75769  -0.21960
H     0.03110   4.44882   0.79595
H     0.19574   4.52242  -0.97562
H    -2.40033   1.28023   1.23835
H    -4.67812   0.33263   1.14327
H    -5.16576  -1.63819  -0.30935
H    -3.33229  -2.65018  -1.67037
H    -1.05035  -1.68879  -1.59780
