39
Generated by autodE on: 2022-10-21. E = -1064.379340 Ha. Imaginary frequency = -216.9 cm-1
C     4.77140  -1.06656   1.92985
N     3.47677  -0.65642   1.41855
C     2.78541  -1.40061   0.54020
O     3.14325  -2.47867   0.06397
C     1.53024  -0.76500   0.08022
N     0.39814  -0.72432   0.50410
C    -0.75368  -0.18757   0.75171
C    -0.63767   1.14745   1.43441
O     0.44391   1.52954   1.89711
N    -1.75675   1.90033   1.46208
C    -1.70037   3.29445   1.85820
C    -1.99919  -0.85841   0.33940
C    -3.15835  -0.82170   1.13600
C    -4.32315  -1.46448   0.71165
C    -4.34594  -2.15301  -0.50440
C    -3.19414  -2.20002  -1.29900
C    -2.02974  -1.55787  -0.88278
C     0.37814   1.26408  -1.72685
C    -0.87651   1.78510  -1.71802
N    -1.95637   2.24751  -1.72261
C     1.49462   0.72571  -1.67465
O     2.71951   0.48145  -2.00858
C     3.22741   1.24939  -3.13486
H     4.67594  -1.73867   2.79867
H     5.32719  -1.59511   1.14395
H     5.33756  -0.17671   2.23350
H     3.02759   0.17286   1.80073
H    -2.52950   1.62047   0.86497
H    -1.17196   3.90727   1.10754
H    -1.17421   3.39564   2.81709
H    -2.72337   3.67524   1.97005
H    -3.14454  -0.30529   2.09624
H    -5.21538  -1.43288   1.34092
H    -5.25918  -2.65389  -0.83355
H    -3.20692  -2.73394  -2.25182
H    -1.13583  -1.58060  -1.50971
H     4.26527   0.92609  -3.27096
H     3.17989   2.32120  -2.89623
H     2.62809   1.02544  -4.02859
