39
Generated by autodE on: 2022-06-17. E = -752.691121 Ha
C    -1.55314   3.41326  -0.94898
C    -2.26274   2.17644  -0.47806
O    -3.48254   2.10301  -0.42946
C    -1.42148   1.00366  -0.05816
N    -0.19014   1.17856   0.24640
C     0.36380  -0.10024   0.70644
C     1.83022  -0.26597   0.39840
C     2.42227   0.35250  -0.71225
C     3.77098   0.14080  -1.01133
C     4.54785  -0.69731  -0.20487
C     3.96750  -1.31571   0.90732
C     2.62016  -1.09697   1.20753
C    -0.59345  -1.20228   0.13398
C    -0.59858  -2.46727   0.98938
C    -0.18276  -1.57772  -1.29698
C    -1.96170  -0.40991   0.14031
C    -2.66099  -0.45412   1.51628
C    -2.95383  -0.87145  -0.93315
H    -2.28589   4.20055  -1.16755
H    -0.97076   3.18119  -1.85565
H    -0.83538   3.75574  -0.18962
H     0.25817  -0.10548   1.80554
H     1.81976   1.00557  -1.34571
H     4.21736   0.63197  -1.87963
H     5.60211  -0.86370  -0.43900
H     4.56819  -1.96549   1.54857
H     2.17370  -1.57282   2.08416
H    -1.38137  -3.16374   0.64835
H    -0.76683  -2.25364   2.05420
H     0.36695  -2.98912   0.90209
H    -0.87333  -2.32263  -1.71673
H    -0.16890  -0.70849  -1.97166
H     0.82300  -2.02168  -1.30047
H    -3.49777   0.25873   1.52966
H    -1.98061  -0.19404   2.34060
H    -3.06657  -1.45863   1.70878
H    -3.10601  -1.95967  -0.85749
H    -3.92832  -0.38494  -0.79486
H    -2.60713  -0.64470  -1.95097
