18
Generated by autodE on: 2022-06-17. E = -235.968072 Ha
C    -1.47167   1.21983  -0.48163
C    -0.66325   0.08738   0.10464
C    -1.51461  -0.82586   0.95360
C     0.66323  -0.08745  -0.10474
C     1.47163  -1.21995   0.48146
C     1.51466   0.82601  -0.95338
H    -0.89575   1.90855  -1.11122
H    -1.94211   1.81223   0.32368
H    -2.30385   0.82227  -1.09003
H    -1.99671  -0.25423   1.76693
H    -2.33896  -1.25047   0.35279
H    -0.96795  -1.66004   1.40924
H     1.94435  -1.81055  -0.32383
H     0.89511  -1.91031   1.10872
H     2.30214  -0.82252   1.09223
H     0.96813   1.66054  -1.40853
H     2.33905   1.25024  -0.35234
H     1.99671   0.25475  -1.76699
