39
Generated by autodE on: 2022-06-17. E = -752.588956 Ha. Imaginary frequency = -418.4 cm-1
C    -1.78706   3.23987  -1.12548
C    -2.10716   2.42158   0.09710
O    -3.09226   2.62055   0.80916
C    -1.25344   1.26585   0.31528
N    -0.15789   1.06861   0.82271
C     0.65557   0.07114   1.13896
C     1.92111  -0.12956   0.46286
C     2.24145   0.54243  -0.73657
C     3.42460   0.25266  -1.41335
C     4.30997  -0.71129  -0.91344
C     4.00292  -1.38143   0.27691
C     2.82368  -1.09198   0.96240
C    -0.90696  -1.62186   0.09905
C    -0.85193  -2.49834   1.33019
C    -0.01363  -2.06194  -1.03497
C    -2.01703  -0.81636  -0.16701
C    -3.17804  -0.78004   0.80657
C    -2.39606  -0.50422  -1.60133
H    -2.41031   4.14465  -1.13473
H    -1.99944   2.64132  -2.02709
H    -0.71823   3.50368  -1.15033
H     0.52719  -0.35328   2.13794
H     1.55357   1.29343  -1.13154
H     3.66087   0.78181  -2.33983
H     5.23627  -0.93559  -1.44728
H     4.69051  -2.13172   0.67478
H     2.58399  -1.61503   1.89138
H    -1.43711  -3.42663   1.17349
H    -1.26035  -2.01332   2.22760
H     0.18046  -2.80864   1.55546
H    -0.51129  -2.83233  -1.65586
H     0.25616  -1.23523  -1.70853
H     0.92299  -2.50123  -0.66191
H    -3.84379   0.07171   0.60586
H    -2.85202  -0.70912   1.85383
H    -3.78585  -1.70077   0.71674
H    -2.83507  -1.39765  -2.08594
H    -3.15025   0.29585  -1.65008
H    -1.53704  -0.19585  -2.21301
