23
Generated by autodE on: 2022-06-26. E = -351.521379 Ha
C     3.60655   0.99014  -0.55688
C     2.56359   0.33988   0.00464
C     2.76906  -0.65898   1.11473
C     1.20397   0.59842  -0.46530
C     0.07717   0.01105   0.01032
C    -1.24907   0.30334  -0.49392
C    -2.41901  -0.24771  -0.08251
C    -3.72327   0.16244  -0.70573
C    -2.53439  -1.28838   0.99493
H     3.45431   1.71436  -1.36311
H     4.63387   0.81551  -0.22523
H     2.21974  -0.36207   2.02361
H     2.38889  -1.65395   0.82913
H     3.83348  -0.75662   1.37078
H     1.10850   1.33377  -1.27333
H     0.16374  -0.72308   0.81594
H    -1.29709   1.05203  -1.29399
H    -3.58964   0.92516  -1.48688
H    -4.41374   0.56225   0.05862
H    -4.23501  -0.70913  -1.15222
H    -3.18605  -0.92542   1.80934
H    -3.02063  -2.19658   0.59685
H    -1.57098  -1.58089   1.43192
