31
Generated by autodE on: 2022-06-26. E = -817.532006 Ha
C    -4.12011   0.92526  -1.51339
N    -2.82514   0.51177  -1.01287
C    -2.65656  -0.67946  -0.40984
O    -3.56662  -1.50402  -0.25745
C    -1.28051  -0.98011   0.08607
C    -0.96171  -2.23787   0.76589
O    -0.46271   0.01619   0.00499
C     0.85776   0.08850   0.29921
C     1.30641   1.44520   0.60698
O     2.50623   1.70081   0.85918
N     0.36563   2.41798   0.64604
C     0.71354   3.78912   0.95433
C     1.73211  -1.00916  -0.11132
O     1.31608  -1.93026  -0.84268
N     3.02112  -0.93951   0.30655
C     4.02895  -1.80182  -0.27416
H    -4.03938   1.94654  -1.90380
H    -4.46691   0.26103  -2.32168
H    -4.87659   0.90662  -0.71339
H    -2.02188   1.11921  -1.13908
H    -0.38874  -2.92234   0.11772
H    -1.89107  -2.72039   1.09078
H    -0.30039  -2.01373   1.62414
H    -0.60366   2.18079   0.46903
H    -0.19809   4.39851   0.92771
H     1.43216   4.19955   0.22659
H     1.16550   3.87595   1.95593
H     3.29143  -0.03717   0.70405
H     4.19500  -1.59700  -1.34709
H     4.97668  -1.65243   0.25899
H     3.73724  -2.85780  -0.17810
