54
Generated by autodE on: 2022-06-26. E = -1169.056553 Ha. Imaginary frequency = -258.6 cm-1
C     1.28011  -6.79900  -0.72416
N     0.15639  -6.13849  -1.35999
C     0.32176  -5.02504  -2.09090
O     1.44139  -4.52380  -2.29039
C    -0.92244  -4.38146  -2.64042
C    -2.21721  -5.11748  -2.72500
C    -1.47086  -2.94832  -0.77232
C    -1.37772  -1.62876  -1.15148
C    -2.61949  -0.84144  -1.49019
C    -0.13713  -0.86936  -1.06361
C     1.10841  -1.38543  -0.89391
C     2.29881  -0.57480  -0.79757
C     3.58028  -1.02002  -0.73759
C     3.97744  -2.46767  -0.78318
C     4.72480  -0.05212  -0.65183
C    -0.92724  -2.25477  -3.96220
C    -2.30085  -1.94540  -4.37204
O    -3.26091  -2.72230  -4.19360
N    -2.47892  -0.73091  -4.93954
C    -3.79946  -0.23956  -5.25938
C     0.24717  -1.41772  -4.24789
O     0.14927  -0.25167  -4.70184
N     1.45376  -1.96168  -3.97926
C     2.66603  -1.18835  -4.13303
O    -0.57360  -3.43162  -3.45320
H     0.92209  -7.71094  -0.23214
H     1.74994  -6.14776   0.03058
H     2.04816  -7.06917  -1.46482
H    -0.77432  -6.51467  -1.21982
H    -2.11401  -5.94664  -3.44949
H    -3.00725  -4.44552  -3.06940
H    -2.49121  -5.55112  -1.75315
H    -0.65645  -3.43155  -0.23243
H    -2.45144  -3.42059  -0.70726
H    -2.93913  -0.25686  -0.60906
H    -3.44848  -1.49961  -1.78111
H    -2.43722  -0.12470  -2.30334
H    -0.23401   0.21676  -1.17515
H     1.22358  -2.47029  -0.84653
H     2.13820   0.50985  -0.78926
H     4.72487  -2.62576  -1.58039
H     4.47329  -2.76029   0.15985
H     3.14234  -3.15500  -0.96345
H     5.35814  -0.26829   0.22719
H     5.38300  -0.15174  -1.53398
H     4.38381   0.99160  -0.58911
H    -1.64390  -0.14366  -5.01768
H    -4.31194  -0.89275  -5.98434
H    -4.43900  -0.17361  -4.36242
H    -3.70863   0.76270  -5.69729
H     1.48624  -2.84719  -3.46952
H     3.51246  -1.78383  -3.76985
H     2.62798  -0.24875  -3.56042
H     2.84547  -0.93202  -5.19019
