56
Generated by autodE on: 2022-06-06. E = -1780.017764 Ha
C     4.02545  -1.48527  -1.90561
N     3.01057  -1.17528  -0.92266
C     3.21739  -0.32965   0.09548
O     4.32285   0.16218   0.35774
C     1.95762   0.05828   0.90690
C     2.36982   0.25165   2.37421
C     1.36777   1.38741   0.34419
C     1.79344   1.75947  -1.11278
O     0.95615   0.91598  -1.90505
C    -0.29245   1.40027  -1.38785
C    -0.15044   2.91432  -1.56781
C    -1.25464   3.88274  -1.67391
C    -2.63939   3.32769  -1.46675
O    -1.05166   5.06863  -1.91146
C     1.17136   3.12228  -1.38468
Cl    2.05725   4.57790  -1.23799
C    -0.15483   1.14131   0.14291
C    -0.44096  -0.30389   0.63042
C    -1.05587  -0.22022   2.06461
O    -0.87195   0.76236   2.79417
N    -1.72407  -1.30075   2.49603
C    -2.21059  -1.40509   3.85809
C    -1.38831  -1.02164  -0.32974
C    -2.73712  -0.62987  -0.37278
C    -3.61172  -1.17828  -1.31116
C    -3.15200  -2.13503  -2.22366
C    -1.81294  -2.52953  -2.18863
C    -0.93622  -1.97233  -1.25073
N     0.88774  -0.92871   0.69410
C     1.02104  -2.19094   1.40115
H     4.99668  -1.62957  -1.41228
H     3.75361  -2.40871  -2.43371
H     4.13537  -0.67567  -2.64837
H     2.03660  -1.41562  -1.08937
H     2.78302  -0.67318   2.80149
H     1.50466   0.56608   2.97078
H     3.14432   1.02686   2.43737
H     1.58925   2.21287   1.02918
H     2.85322   1.65654  -1.36344
H    -1.13620   0.92848  -1.89462
H    -2.86411   2.58196  -2.24703
H    -2.69774   2.79938  -0.50103
H    -3.38009   4.13680  -1.50059
H    -0.77624   1.84279   0.70511
H    -1.85547  -2.08302   1.86393
H    -1.37945  -1.37514   4.58136
H    -2.89727  -0.57795   4.09641
H    -2.74643  -2.35528   3.97246
H    -3.10358   0.12745   0.32455
H    -4.65531  -0.85564  -1.33267
H    -3.83541  -2.56788  -2.95795
H    -1.44161  -3.27357  -2.89740
H     0.10931  -2.27843  -1.24230
H     0.27145  -2.90736   1.03647
H     2.01295  -2.61963   1.19800
H     0.90505  -2.10898   2.49711
