18
Generated by autodE on: 2022-06-06. E = -919.867872 Ha
C     2.50626   1.32715  -1.17901
C     1.87252   0.12911  -0.52281
O     2.44695  -0.95347  -0.44821
C     0.52252   0.32453   0.02132
C    -0.38537  -0.58544   0.43339
Cl   -0.30808  -2.28849   0.49886
C    -1.68106   0.19836   0.73841
C    -2.22523   0.68479  -0.62445
C    -1.34656   1.60596  -1.02878
C    -0.27702   1.65638   0.08583
O    -1.09631   1.40522   1.24509
H     2.66644   2.12050  -0.42989
H     1.83542   1.74576  -1.94729
H     3.46697   1.04599  -1.62926
H    -2.37993  -0.26932   1.43929
H    -3.10695   0.28468  -1.12283
H    -1.31118   2.17934  -1.95425
H     0.30866   2.57490   0.18745
