38
Generated by autodE on: 2022-07-27. E = -860.037670 Ha
C     0.06652   0.33664   3.82244
N     0.02944  -0.11243   2.44800
C    -0.90940   0.29958   1.55389
O    -1.90438   0.95254   1.92197
C    -0.73590  -0.12700   0.15057
C    -1.90156  -0.20399  -0.73003
C    -3.17525  -0.59394  -0.25617
C    -4.27506  -0.64321  -1.11092
C    -4.14120  -0.31484  -2.46583
C    -2.88871   0.07369  -2.95277
C    -1.78837   0.13692  -2.09794
N     0.52295  -0.38982  -0.35021
C     0.68357  -1.57978  -1.21573
C     1.57342   0.41210  -0.06212
C     1.31354   1.81290   0.38964
C     2.95371  -0.12767  -0.09799
O     3.20826  -1.34543  -0.24269
N     3.94588   0.79046   0.06805
C     5.35068   0.44482   0.07561
H     1.08642   0.64548   4.09818
H    -0.60974   1.19256   3.93956
H    -0.25430  -0.45165   4.52548
H     0.80747  -0.67052   2.11451
H    -3.29673  -0.86478   0.79298
H    -5.24723  -0.95162  -0.71792
H    -5.00513  -0.35775  -3.13307
H    -2.76941   0.34462  -4.00491
H    -0.82461   0.46971  -2.48946
H    -0.30472  -1.88965  -1.56233
H     1.33119  -1.35064  -2.06931
H     1.12900  -2.38868  -0.62754
H     1.38367   1.94421   1.48362
H     0.29761   2.11463   0.09480
H     2.02475   2.51251  -0.07634
H     3.70667   1.76585   0.19252
H     5.45069  -0.64510   0.02558
H     5.87778   0.88654  -0.78627
H     5.83760   0.80477   0.99573
