37
Generated by autodE on: 2022-06-01. E = -3606.907824 Ha
C     3.99506   1.46813  -1.54959
N     2.83340   1.31755  -0.69908
C     2.55171   0.17745  -0.05925
O     3.29123  -0.81268  -0.04827
C     1.20266   0.15133   0.70062
C     1.49155  -0.36789   2.11405
N     0.60972   1.49594   0.73364
C    -0.82806   1.45881   0.69438
C    -1.44368   1.23249   2.02481
N    -1.84902   1.09252   3.10242
C    -1.46598   2.75981   0.11183
C    -0.56729   3.67455  -0.65353
O    -2.64794   2.95477   0.29931
C    -1.14381   0.22701  -0.21443
F    -2.30311  -0.36505   0.21199
C    -1.21634   0.49988  -1.75351
C    -1.68121  -0.79899  -2.38930
C    -0.62216  -1.61370  -2.33203
C     0.47873  -0.80867  -1.65845
O     0.17535   0.53020  -2.07814
C     0.14616  -0.67977  -0.12739
Br   -0.23567  -2.43845   0.64325
H     3.83211   1.01596  -2.54301
H     4.86372   0.97816  -1.08900
H     4.21471   2.53542  -1.68229
H     2.08913   2.01112  -0.71556
H     2.14533   0.36079   2.61827
H     2.00982  -1.33230   2.07965
H     0.57067  -0.47393   2.70121
H     0.97077   2.06931   1.49500
H    -1.16551   4.45919  -1.13360
H     0.02843   3.12109  -1.39338
H     0.15188   4.13005   0.04782
H    -1.73216   1.41744  -2.05119
H    -2.69432  -1.00475  -2.73103
H    -0.54304  -2.65816  -2.62838
H     1.51257  -1.08503  -1.87966
