24
Generated by autodE on: 2022-07-27. E = -626.466718 Ha
C     3.27784  -0.41031  -2.48158
N     2.06648  -0.44086  -1.68174
C     2.10523  -0.79419  -0.37849
O     3.14656  -1.12036   0.19856
C     0.81234  -0.75349   0.37811
C     0.64246  -1.63157   1.56158
N    -0.09106   0.11960  -0.00312
C    -1.36433   0.41701   0.43839
C    -2.06666  -0.39977   1.35053
N    -2.71547  -1.03904   2.08212
C    -2.04594   1.58424  -0.08626
C    -1.32210   2.44767  -1.09846
O    -3.19116   1.86762   0.28814
H     3.68876  -1.42211  -2.63395
H     4.04667   0.20033  -1.98739
H     3.04486   0.02967  -3.45878
H     1.17734  -0.42088  -2.17228
H     0.32534  -1.04824   2.44029
H     1.59592  -2.12442   1.78208
H    -0.12304  -2.40353   1.38046
H     0.20343   0.73795  -0.76514
H    -2.00656   3.23434  -1.43945
H    -0.99181   1.86327  -1.97383
H    -0.43159   2.91868  -0.65066
