24
Generated by autodE on: 2022-06-01. E = -626.476955 Ha
C     4.53523   0.26002   0.58580
N     3.29919  -0.29788   0.07330
C     2.08856   0.21089   0.34835
O     1.89481   1.20709   1.06180
C     0.91293  -0.49681  -0.26674
C     1.04696  -1.70508  -1.12057
N    -0.21039   0.08573   0.04832
C    -1.54715  -0.08786  -0.20734
C    -2.06707  -1.10531  -1.02668
N    -2.56059  -1.92685  -1.69748
C    -2.39957   0.88995   0.44486
C    -3.88622   0.79138   0.22728
O    -1.89738   1.77308   1.15678
H     5.19692   0.56205  -0.24055
H     5.06778  -0.47766   1.20589
H     4.30397   1.13908   1.19741
H     3.36497  -1.11692  -0.52233
H     1.66154  -1.47702  -2.00766
H     0.08109  -2.08876  -1.46189
H     1.56120  -2.50582  -0.56323
H    -0.07048   0.91271   0.66564
H    -4.26300  -0.18462   0.57273
H    -4.39167   1.59547   0.77688
H    -4.12584   0.86998  -0.84519
