13
Generated by autodE on: 2022-06-01. E = -2980.371032 Ha
F     1.50006  -1.42738   1.11322
C     0.56980  -1.15419   0.21258
C     0.10194   0.02060  -0.21367
Br    0.54118   1.75297   0.32862
C    -1.08849  -0.36628  -1.12671
C    -2.20314  -0.94178  -0.21745
C    -1.72225  -2.10869   0.21908
C    -0.32230  -2.22951  -0.43409
O    -0.56985  -1.58403  -1.69769
H    -1.37472   0.36511  -1.88969
H    -3.13852  -0.43679   0.02033
H    -2.15039  -2.82857   0.91526
H     0.11522  -3.22808  -0.53970
