20
Generated by autodE on: 2022-06-18. E = -603.141876 Ha
C     3.53256   0.03495   1.60953
N     2.47359   0.02768   0.62176
C     1.17752   0.00149   0.93162
O     0.71945  -0.02867   2.08744
C     0.19623   0.00742  -0.21642
N    -1.03487  -0.02949   0.25986
N    -2.17262  -0.04059  -0.37636
C    -3.25361  -0.08084   0.38423
N    -4.28458  -0.11531   0.94037
C     0.55147   0.05321  -1.65502
C    -0.52634   0.07806  -2.69390
O     1.73947   0.07322  -1.97698
H     3.10105  -0.08917   2.60920
H     4.09076   0.98409   1.57772
H     4.23883  -0.78697   1.41835
H     2.69223   0.05637  -0.37661
H    -1.00192  -0.05343   1.30798
H    -0.05500   0.12440  -3.68374
H    -1.16146  -0.81724  -2.61194
H    -1.19036   0.94266  -2.54155
