32
Generated by autodE on: 2022-06-18. E = -984.766006 Ha. Imaginary frequency = -414.1 cm-1
C     4.07922  -1.75747   0.80828
N     2.79089  -1.11526   0.97913
C     2.38991  -0.13086   0.17516
O     3.07268   0.34658  -0.74072
C     0.98425   0.40196   0.38498
C     0.27220   0.24982   1.70457
C    -0.65909   1.32511   2.17925
O     0.48164  -0.74809   2.38371
N     0.75681   1.48791  -0.38870
N    -0.52524   1.71725  -0.69543
C    -0.78947   2.74909  -1.49156
N    -1.13069   3.64138  -2.16462
C    -1.13373  -0.01428  -1.44708
C    -2.53479   0.02073  -0.92548
O    -3.35996   0.79109  -1.39813
C    -2.87488  -0.89356   0.18733
C    -2.00930  -1.82854   0.62062
C    -0.66366  -1.99376   0.01265
O     0.02904  -2.97158   0.28173
C    -0.20479  -0.94575  -0.91629
H     4.89548  -1.02182   0.86975
H     4.14614  -2.26082  -0.16976
H     4.20944  -2.50247   1.60195
H     2.12008  -1.45177   1.67044
H    -1.64235   1.18865   1.70371
H    -0.77540   1.21879   3.26568
H    -0.30112   2.33023   1.91980
H     1.48042   1.63408  -1.11011
H    -1.02798   0.30468  -2.48677
H    -3.87462  -0.78284   0.61379
H    -2.26342  -2.52741   1.42091
H     0.66415  -1.21447  -1.51924
