36
Generated by autodE on: 2022-06-17. E = -858.821878 Ha
C    -2.03883   2.66197   2.01454
N    -1.22187   1.49708   1.72691
C    -0.72218   1.26808   0.50847
O    -0.88113   2.02562  -0.45262
C     0.04108  -0.06037   0.30866
C    -0.94434  -1.00974  -0.36212
C    -0.98211  -1.12926  -1.75844
C    -1.92876  -1.95616  -2.36955
C    -2.84651  -2.67096  -1.59476
C    -2.81666  -2.54875  -0.20234
C    -1.87675  -1.71738   0.41172
N     0.45354  -0.60801   1.63985
N     1.66642  -0.54116   1.83654
C     2.42338   0.09086   0.71423
C     3.63132  -0.77521   0.37720
C     2.86616   1.46332   1.23547
C     1.38598   0.11919  -0.43988
C     1.49144   1.30939  -1.36247
O     1.52687   1.19912  -2.57389
H    -2.24252   2.69359   3.09148
H    -1.51603   3.58455   1.72206
H    -2.99654   2.62317   1.47102
H    -1.07221   0.79577   2.44691
H    -0.27529  -0.57631  -2.37783
H    -1.94636  -2.04027  -3.45867
H    -3.58398  -3.31889  -2.07421
H    -3.53114  -3.10123   0.41245
H    -1.86571  -1.61965   1.49737
H     3.32132  -1.79687   0.11069
H     4.32462  -0.82584   1.22987
H     4.16589  -0.33992  -0.48069
H     2.00778   2.11851   1.44440
H     3.43636   1.33262   2.16661
H     3.51871   1.95836   0.50187
H     1.54039  -0.77094  -1.06223
H     1.59124   2.30565  -0.88740
