14
Generated by autodE on: 2022-06-17. E = -270.683215 Ha
C    -0.58949   1.40942  -0.43489
C    -0.87291  -0.00465  -0.01579
C    -2.31543  -0.39352   0.06169
C     0.10099  -0.90808   0.28164
C     1.53416  -0.65955   0.24118
O     2.08956   0.38820  -0.08154
H     0.03760   1.92544   0.30851
H    -1.52071   1.97565  -0.57595
H    -0.01743   1.42957  -1.37674
H    -2.45755  -1.44018   0.36407
H    -2.80054  -0.23023  -0.91686
H    -2.84361   0.26426   0.77430
H    -0.19002  -1.91892   0.58200
H     2.15635  -1.53786   0.54031
