36
Generated by autodE on: 2022-06-17. E = -858.763343 Ha. Imaginary frequency = -439.9 cm-1
C    -2.68623   2.67216   0.59104
N    -2.06733   1.36526   0.47484
C    -0.89290   1.09612   1.06610
O    -0.35010   1.85558   1.87604
C    -0.21430  -0.18249   0.64049
C    -0.86921  -1.25098  -0.14872
C    -1.34504  -0.97759  -1.44623
C    -1.95107  -1.98556  -2.19711
C    -2.08049  -3.27711  -1.67629
C    -1.59666  -3.55678  -0.39501
C    -0.99916  -2.55230   0.36822
N     0.71817  -0.57286   1.53580
N     1.87032  -0.48636   1.70566
C     2.63752   0.46084   0.14569
C     3.61506  -0.62147  -0.25408
C     3.24378   1.61602   0.91607
C     1.51954   0.66126  -0.70661
C     0.91866   1.95485  -0.95368
O     0.10467   2.19064  -1.85043
H    -3.69179   2.62847   0.15567
H    -2.76469   2.97064   1.64593
H    -2.09797   3.43599   0.05603
H    -2.44284   0.70823  -0.20084
H    -1.20418   0.01433  -1.87849
H    -2.31234  -1.76047  -3.20308
H    -2.55388  -4.06332  -2.26852
H    -1.69221  -4.56255   0.02048
H    -0.64370  -2.77122   1.37666
H     3.10199  -1.47770  -0.71690
H     4.33397  -0.21704  -0.98761
H     4.19225  -0.97894   0.61231
H     3.92465   1.23521   1.69171
H     2.47937   2.23279   1.40742
H     3.83376   2.25977   0.24263
H     1.31602  -0.09556  -1.46768
H     1.22232   2.77860  -0.27363
