35
Generated by autodE on: 2022-06-18. E = -953.768284 Ha
C     3.12640  -2.06090   1.40839
N     2.16430  -1.57911   0.43635
C     2.42243  -0.53842  -0.36341
O     3.48369   0.09691  -0.33125
C     1.32210  -0.13412  -1.35186
N     0.12726  -0.96019  -1.24395
C    -0.80970  -0.31111  -0.64794
C    -2.12907  -0.89908  -0.36190
C    -2.34502  -2.27519  -0.57198
C    -3.59208  -2.84265  -0.32269
C    -4.64792  -2.04475   0.13581
C    -4.44580  -0.67788   0.34527
C    -3.19491  -0.10747   0.10177
C    -0.41652   1.11334  -0.25604
C    -0.16719   1.24491   1.24740
O    -0.95026   0.79453   2.06977
C     1.04573   1.96497   1.68891
C     1.96855   2.45272   0.83860
C     1.84661   2.31134  -0.62966
O     2.53739   2.97987  -1.38515
C     0.82006   1.33209  -1.14374
H     3.99689  -2.52725   0.91906
H     3.49090  -1.23159   2.03267
H     2.64119  -2.80518   2.05115
H     1.27552  -2.05719   0.32091
H     1.77705  -0.23965  -2.34745
H    -1.52023  -2.89186  -0.93037
H    -3.74439  -3.91209  -0.48530
H    -5.62643  -2.49020   0.33011
H    -5.26585  -0.05068   0.70173
H    -3.05231   0.95892   0.27544
H    -1.21020   1.83953  -0.49015
H     1.14739   2.08381   2.77079
H     2.84070   3.00433   1.19896
H     0.49867   1.69839  -2.12704
