35
Generated by autodE on: 2022-06-18. E = -953.689050 Ha. Imaginary frequency = -186.6 cm-1
C     3.62647  -1.54459   1.01854
N     2.46222  -1.32951   0.18020
C     2.58426  -0.72310  -1.02114
O     3.67955  -0.48762  -1.54762
C     1.34199  -0.29133  -1.69870
N     0.14915  -0.60146  -1.26586
C    -0.89773  -0.32547  -0.72507
C    -2.14885  -0.94211  -0.37582
C    -2.19202  -2.33006  -0.11884
C    -3.39760  -2.92625   0.23882
C    -4.56419  -2.15545   0.32529
C    -4.52433  -0.78192   0.06487
C    -3.31901  -0.16669  -0.27036
C    -0.42485   1.92998  -0.32593
C    -0.71168   1.70148   1.10256
O    -1.84055   1.81752   1.58351
C     0.43999   1.34029   1.96463
C     1.70352   1.45333   1.51886
C     2.00825   1.92762   0.14233
O     3.17708   2.17802  -0.17717
C     0.87771   2.07989  -0.77023
H     3.29846  -1.95270   1.98211
H     4.32354  -2.25806   0.55297
H     4.17170  -0.60267   1.19405
H     1.54715  -1.35829   0.61905
H     1.44657   0.05127  -2.73116
H    -1.27745  -2.92048  -0.19702
H    -3.43199  -3.99831   0.44383
H    -5.50918  -2.63006   0.59916
H    -5.43590  -0.18480   0.13245
H    -3.27455   0.90623  -0.45334
H    -1.26569   2.25768  -0.94079
H     0.20511   1.03550   2.98747
H     2.56461   1.23700   2.15590
H     1.09830   2.47376  -1.76310
