22
Generated by autodE on: 2022-10-26. E = -550.191751 Ha
C     1.23891  -2.71540  -0.71552
N    -0.03451  -2.40340  -0.09528
C    -0.32647  -1.20577   0.46908
O    -1.48435  -0.87159   0.75551
N     0.80714  -0.49292   0.85911
N     0.72486   0.80401   0.95551
C     1.61692   1.36497   1.99193
C    -0.00886   1.64914   0.23423
C    -0.62157   1.34350  -1.05318
C    -1.42666   2.46496  -1.65642
O    -0.46375   0.27202  -1.64206
H     1.22259  -3.76112  -1.04937
H     2.06446  -2.59258  -0.00050
H     1.44424  -2.07064  -1.58743
H    -0.84923  -2.92999  -0.39436
H     2.63453   1.01228   1.78204
H     1.29381   0.98022   2.96769
H     1.58191   2.45878   1.96966
H     0.00862   2.68451   0.56785
H    -1.71238   2.20853  -2.68481
H    -2.33699   2.61670  -1.05116
H    -0.86615   3.41242  -1.64225
