22
Generated by autodE on: 2022-10-22. E = -550.192153 Ha
C     4.17764   0.65142  -0.19621
N     3.03853  -0.22576  -0.32727
C     1.75537   0.16436  -0.10929
O     1.45875   1.32388   0.22408
N     0.89952  -0.91672  -0.31763
N    -0.40082  -0.79048  -0.17108
C    -1.09618  -2.07242  -0.44016
C    -1.09961   0.29138   0.16905
C    -2.55251   0.35728   0.31432
C    -3.05367   1.72585   0.71108
O    -3.33074  -0.58212   0.14094
H     3.82759   1.64491   0.10795
H     4.72256   0.74873  -1.14969
H     4.88428   0.28057   0.56433
H     3.18379  -1.19270  -0.59625
H    -1.64522  -2.38426   0.45475
H    -1.80644  -1.93685  -1.26249
H    -0.32228  -2.79746  -0.70108
H    -0.51267   1.18555   0.34815
H    -2.75265   2.47363  -0.04084
H    -4.14717   1.71083   0.80423
H    -2.60097   2.03343   1.66801
