50
Generated by autodE on: 2022-10-22. E = -4124.691783 Ha. Imaginary frequency = -228.3 cm-1
C    -2.27209  -4.43259  -0.83947
N    -1.82875  -3.55379   0.22498
C    -0.67725  -2.82704   0.05622
O     0.15970  -3.13005  -0.79229
N    -0.40626  -1.87006   1.03048
C     0.48933   0.17991   0.23791
C    -0.41550   0.99614   0.46399
C    -2.27483  -0.43886   1.09177
C    -2.75411  -0.46684  -0.31591
C    -3.99594   0.34727  -0.55686
O    -2.22137  -1.10427  -1.21476
N    -1.37446  -1.24112   1.66448
C    -1.06192  -0.98788   3.08110
C    -0.80779   2.42305   0.64903
O    -2.18155   2.46581   0.99198
C    -2.77136   3.74809   1.16134
O    -0.56289   3.15021  -0.53595
C    -1.25315   2.69450  -1.69371
C     0.05260   3.04621   1.76366
C     1.54594   3.26781   1.50142
C     2.48924   2.05442   1.42194
C     2.62028   1.38227   0.03961
C     1.89986   0.03179  -0.09528
Cl    2.74384  -1.19551   0.93974
Br    2.09808  -0.52398  -2.01478
H    -3.16780  -4.97321  -0.50610
H    -2.51787  -3.88133  -1.76443
H    -1.49283  -5.16909  -1.08122
H    -2.55823  -3.15564   0.80603
H    -2.87909   0.13357   1.79119
H    -3.89757   1.34630  -0.11287
H    -4.84572  -0.15463  -0.06249
H    -4.19027   0.41555  -1.63460
H    -0.81509  -1.94408   3.55672
H    -1.91642  -0.51708   3.57873
H    -0.18821  -0.32017   3.11961
H    -2.39125   4.47251   0.42512
H    -3.85214   3.61996   1.00496
H    -2.60713   4.14484   2.17694
H    -1.01473   1.64016  -1.91321
H    -2.34436   2.79956  -1.58618
H    -0.91208   3.31969  -2.52973
H    -0.38820   4.03066   1.98057
H    -0.09501   2.42453   2.66070
H     1.66644   3.88270   0.59472
H     1.89807   3.89673   2.33510
H     2.21773   1.30891   2.18684
H     3.49331   2.40827   1.70059
H     2.20419   2.04110  -0.73656
H     3.67606   1.21138  -0.21318
