25
Generated by autodE on: 2022-07-27. E = -697.872216 Ha
C    -1.73648   2.87079   2.08528
N    -1.28703   1.49934   2.19133
C    -1.18725   0.69981   1.11438
O    -1.47672   1.05846  -0.03328
N    -0.85767  -0.61831   1.47594
N    -0.33762  -1.40071   0.58715
C    -0.55964  -2.84184   0.84991
C     0.37057  -1.05625  -0.50749
C     0.67741  -2.06377  -1.44917
N     0.94744  -2.85783  -2.26123
C     1.02539   0.28270  -0.64603
O     1.39045   0.91797   0.34776
N     1.25837   0.68551  -1.90575
C     1.95244   1.92871  -2.18294
H    -2.82301   2.93784   1.90485
H    -1.22232   3.37710   1.25527
H    -1.50427   3.39627   3.01985
H    -1.11882   1.08927   3.10407
H    -1.00625  -2.92133   1.84416
H     0.39417  -3.38017   0.80196
H    -1.25323  -3.23284   0.09326
H     0.87429   0.15258  -2.68011
H     1.35850   2.79904  -1.85960
H     2.91838   1.96058  -1.65744
H     2.13088   2.00138  -3.26229
