25
Generated by autodE on: 2022-06-01. E = -697.869146 Ha
C    -2.97750  -2.32364  -1.35866
N    -2.18769  -1.15819  -1.69359
C    -1.54209  -0.43890  -0.75744
O    -1.55111  -0.71956   0.44812
N    -0.97242   0.72436  -1.29833
N    -0.00801   1.30346  -0.65678
C     0.14741   2.74220  -0.97218
C     0.84526   0.74856   0.22389
C     1.74208   1.59570   0.91193
N     2.50124   2.25022   1.50993
C     1.07385  -0.73601   0.27607
O     1.09415  -1.38367  -0.77515
N     1.34971  -1.26684   1.47890
C     1.08080  -0.67070   2.77784
H    -2.45044  -2.93372  -0.61176
H    -3.13272  -2.92490  -2.26334
H    -3.96395  -2.05243  -0.94446
H    -2.20667  -0.79048  -2.63937
H    -0.11810   3.32787  -0.08171
H    -0.54082   2.96814  -1.79026
H     1.18464   2.94698  -1.26195
H     1.59024  -2.25507   1.45308
H     0.24584   0.03913   2.70959
H     1.95876  -0.15103   3.19183
H     0.79090  -1.46874   3.47429
