18
Generated by autodE on: 2022-06-17. E = -235.968069 Ha
C    -1.69447   0.94780   0.34064
C    -0.66829  -0.10865   0.00820
C    -1.31435  -1.43723  -0.30323
C     0.66828   0.10866  -0.00829
C     1.69448  -0.94778  -0.34070
C     1.31435   1.43722   0.30333
H    -1.27198   1.93509   0.56243
H    -2.40779   1.06589  -0.49475
H    -2.29820   0.63573   1.21185
H    -1.92934  -1.77427   0.55055
H    -0.60628  -2.23931  -0.54329
H    -2.01025  -1.33518  -1.15536
H     2.29824  -0.63569  -1.21187
H     2.40776  -1.06585   0.49475
H     1.27203  -1.93510  -0.56248
H     0.60620   2.23956   0.54229
H     2.00920   1.33534   1.15635
H     1.93040   1.77377  -0.54985
