18
Generated by autodE on: 2022-06-17. E = -439.464458 Ha
C     2.67974  -0.39791   0.02764
C     1.23654  -0.07097   0.00065
O     0.80785   1.17942  -0.11033
C    -0.65065   1.18797  -0.10528
O    -1.23617   2.27359  -0.20114
C    -0.99602  -0.15100   0.01665
C    -2.34552  -0.76992   0.08291
N     0.20128  -0.88555   0.07736
C     0.25877  -2.33316   0.20786
H     2.95879  -0.88961   0.97323
H     3.25433   0.53138  -0.07131
H     2.95005  -1.07324  -0.79953
H    -2.53075  -1.48145  -0.74076
H    -2.52192  -1.31047   1.02942
H    -3.09849   0.02817   0.00945
H    -0.23507  -2.63958   1.14004
H     1.30320  -2.66189   0.22400
H    -0.25739  -2.80098  -0.64136
