36
Generated by autodE on: 2022-06-17. E = -675.411620 Ha. Imaginary frequency = -414.4 cm-1
C    -1.87595  -0.82790   1.76932
N    -1.26658  -0.63877   0.46687
C    -1.20833   0.54302  -0.24397
C    -2.33552   1.52335  -0.24301
O    -0.75381   0.18955  -1.50879
C    -0.07023  -1.02238  -1.39472
O     0.55754  -1.48896  -2.34591
C    -0.31917  -1.47770  -0.07214
C     0.04594  -2.80279   0.48317
C     1.45280   0.30470   0.38850
C     2.46834   0.22929  -0.71962
C     1.88809  -0.40838   1.64333
C     0.53593   1.39651   0.45631
C     0.14216   1.91108   1.83261
C     0.73554   2.53495  -0.53459
H    -1.12428  -0.87047   2.57008
H    -2.44327  -1.77017   1.77479
H    -2.56824  -0.00482   1.97536
H    -3.24206   1.06871  -0.67525
H    -2.56518   1.86835   0.77253
H    -2.06566   2.39649  -0.85052
H     0.90117  -3.20508  -0.07773
H    -0.78562  -3.52426   0.39569
H     0.32230  -2.74253   1.54633
H     3.32438   0.89487  -0.49010
H     2.07881   0.53678  -1.69808
H     2.87082  -0.78975  -0.82522
H     2.36319  -1.37415   1.41517
H     2.64591   0.20142   2.17602
H     1.07323  -0.58954   2.35486
H     0.99492   2.44132   2.29516
H    -0.68643   2.63172   1.76787
H    -0.15600   1.11805   2.52807
H    -0.05945   3.28918  -0.43747
H     1.69453   3.04846  -0.34126
H     0.75046   2.19271  -1.57709
