57
Generated by autodE on: 2022-06-12. E = -1859.080962 Ha
C    -5.38805  -1.78182   8.37359
N    -5.84892  -2.34592   7.11696
C    -5.30172  -1.98466   5.95315
O    -4.31914  -1.25556   5.84840
C    -5.96820  -2.61420   4.67943
N    -4.93570  -3.46186   4.12803
C    -4.49708  -2.83933   3.08580
C    -3.50886  -3.52488   2.28632
N    -2.79194  -4.21767   1.69030
C    -5.21351  -1.56622   2.75937
C    -6.25351  -1.53635   3.65334
C    -7.58735  -0.78550   3.64067
C    -8.04222  -0.41417   5.08312
F    -9.07416   0.43505   5.08185
F    -7.04712   0.17136   5.76900
F    -8.42721  -1.49163   5.79422
C    -8.65764  -1.76868   3.04946
F    -9.89912  -1.28644   3.21392
F    -8.63387  -2.98642   3.61121
F    -8.46763  -1.94467   1.73711
C    -7.65599   0.48889   2.76278
C    -6.83554   1.68333   3.23663
C    -5.34515   1.40840   3.39023
C    -4.65057   0.91252   2.12575
C    -4.74718  -0.59908   1.66517
C    -5.65304  -0.71485   0.40047
O    -5.85724   0.25039  -0.33954
N    -6.13584  -1.93405   0.11761
C    -7.01695  -2.15474  -1.01277
C    -3.30322  -0.95547   1.23573
C    -2.29230  -0.92576   2.21614
C    -0.96948  -1.21724   1.89146
C    -0.62575  -1.53554   0.57333
C    -1.61636  -1.54586  -0.40996
C    -2.94527  -1.25460  -0.08268
H    -4.29881  -1.89468   8.46834
H    -5.87688  -2.31083   9.20032
H    -5.63296  -0.70895   8.43860
H    -6.71242  -2.87942   7.10871
H    -6.82881  -3.21934   4.97818
H    -7.36177   0.21702   1.74484
H    -8.71168   0.78273   2.69489
H    -6.97460   2.47541   2.48293
H    -7.24214   2.08490   4.17670
H    -4.85585   2.35737   3.66340
H    -5.14762   0.72931   4.23260
H    -3.58577   1.12964   2.25126
H    -4.97854   1.50594   1.26107
H    -6.04536  -2.67715   0.80047
H    -6.51414  -1.89869  -1.95797
H    -7.30051  -3.21394  -1.03802
H    -7.92922  -1.54178  -0.93382
H    -2.55075  -0.68943   3.25152
H    -0.20519  -1.20153   2.67182
H     0.40972  -1.76791   0.31428
H    -1.35919  -1.78293  -1.44496
H    -3.69256  -1.26814  -0.87598
