14
Generated by autodE on: 2022-07-27. E = -433.140373 Ha
C    -0.66626   1.46291   3.40050
N    -1.13645   1.07978   2.08557
C    -0.32118   0.65905   1.09826
O     0.90482   0.54683   1.19150
C    -1.03655   0.32990  -0.16858
N    -0.35277  -0.09342  -1.15734
C     0.42846  -0.36106  -2.05401
C     0.93710  -1.57352  -2.51549
N     1.44233  -2.50581  -3.00862
H     0.42224   1.33948   3.43702
H    -1.12272   0.83316   4.18018
H    -0.91270   2.51453   3.61591
H    -2.13229   1.13824   1.89325
H    -2.11971   0.44529  -0.27792
