14
Generated by autodE on: 2022-06-12. E = -433.137201 Ha
C    -2.46240   2.46732  -0.15334
N    -1.62032   1.92694   0.90191
C    -0.77729   0.87889   0.81403
O    -0.09175   0.47731   1.76191
C    -0.71034   0.20335  -0.51357
N     0.10071  -0.77442  -0.63981
C     0.81353  -1.75742  -0.59075
C     2.15673  -1.97918  -0.87756
N     3.25966  -2.30955  -1.08222
H    -3.20124   1.73181  -0.50731
H    -1.86961   2.81403  -1.01357
H    -3.00742   3.32814   0.25206
H    -1.65419   2.36754   1.81752
H    -1.31662   0.48935  -1.37595
