57
Generated by autodE on: 2022-06-12. E = -1858.958959 Ha. Imaginary frequency = -236.0 cm-1
C    -5.52075  -2.84392   8.13074
N    -6.03519  -3.32457   6.86358
C    -5.36487  -3.12595   5.71502
O    -4.22413  -2.65461   5.65800
C    -6.10857  -3.54484   4.48834
N    -5.42713  -3.78319   3.42050
C    -4.85975  -3.38169   2.41927
C    -3.99544  -3.96021   1.48683
N    -3.29233  -4.30445   0.62107
C    -5.62042  -1.19202   2.40074
C    -6.39346  -1.07077   3.35628
C    -7.37656  -0.18861   4.02732
C    -6.79964   0.36305   5.35433
F    -7.54873   1.37085   5.82741
F    -5.55568   0.82960   5.17978
F    -6.73333  -0.56283   6.32360
C    -8.68515  -0.97752   4.30340
F    -9.63903  -0.19320   4.82896
F    -8.52465  -2.00759   5.14715
F    -9.16210  -1.48207   3.15465
C    -7.75486   0.98951   3.06930
C    -6.70958   2.07101   2.75957
C    -5.36102   1.67767   2.13452
C    -5.43698   0.74474   0.91292
C    -4.90193  -0.70272   1.20268
C    -5.26524  -1.55617  -0.04769
O    -4.58408  -1.53774  -1.07408
N    -6.40515  -2.26620   0.03269
C    -6.83216  -3.12918  -1.05079
C    -3.38542  -0.66418   1.44410
C    -2.83379  -1.03469   2.68044
C    -1.45348  -0.97648   2.89979
C    -0.59768  -0.53658   1.88900
C    -1.13849  -0.14186   0.66084
C    -2.51647  -0.19835   0.44266
H    -4.50300  -3.22424   8.30123
H    -6.17292  -3.19980   8.93742
H    -5.48400  -1.74267   8.15898
H    -7.00597  -3.61806   6.81078
H    -7.13647  -3.91114   4.54390
H    -8.08384   0.51321   2.13617
H    -8.63356   1.49659   3.49185
H    -7.22234   2.75671   2.06417
H    -6.51160   2.66588   3.66469
H    -4.86409   2.61449   1.83845
H    -4.70982   1.23258   2.89960
H    -4.85207   1.14357   0.07342
H    -6.47373   0.65816   0.55399
H    -6.91762  -2.27878   0.90933
H    -6.07764  -3.90669  -1.25429
H    -7.77454  -3.61373  -0.76768
H    -6.98976  -2.55649  -1.97780
H    -3.47895  -1.36607   3.49348
H    -1.05305  -1.27521   3.87153
H     0.48088  -0.49149   2.05764
H    -0.48315   0.21819  -0.13606
H    -2.91745   0.11509  -0.51896
