40
Generated by autodE on: 2022-05-31. E = -3624.350396 Ha
C     4.30028  -1.78859   1.56724
O     3.20475  -0.88272   1.36952
C     2.85403  -0.63589   0.10923
O     3.43206  -1.11033  -0.84819
C     1.66655   0.30895  -0.03311
N     1.46517   1.17178   1.11349
C     0.11769   1.75928   1.01395
C     0.13048   2.91078  -0.01254
C    -0.30897   2.31788   2.37003
C    -0.73586   0.51201   0.56074
Br   -2.32880   1.18930  -0.44376
C    -1.23780  -0.42289   1.69477
C    -2.12676  -1.56302   1.14103
C    -1.11308  -2.50677   0.43665
C     0.22358  -1.75835   0.61039
C     0.03787  -1.21494   2.04222
C     0.28747  -0.43216  -0.22092
C     0.05955  -0.64443  -1.71937
F     0.93923  -1.54722  -2.20002
F    -1.16090  -1.09984  -2.04012
F     0.23574   0.48597  -2.43607
H     5.20845  -1.40601   1.08018
H     4.44730  -1.85204   2.65144
H     4.05505  -2.77909   1.15724
H     1.88750   0.86578  -0.95776
H     2.16835   1.90927   1.13508
H     0.28244   2.55625  -1.04062
H    -0.79666   3.49701   0.00983
H     0.96353   3.58266   0.24916
H    -0.17803   1.58330   3.17516
H    -1.36152   2.63797   2.34582
H     0.30505   3.19901   2.61262
H    -1.71085   0.13453   2.50974
H    -2.62046  -2.06567   1.98511
H    -2.91174  -1.19989   0.46828
H    -1.03092  -3.46461   0.97084
H    -1.37457  -2.73792  -0.60035
H     1.09830  -2.39660   0.43529
H    -0.16691  -2.02516   2.75727
H     0.86452  -0.60077   2.40251
