20
Generated by autodE on: 2022-05-31. E = -440.660175 Ha
C     3.64423   0.52210   0.03512
O     2.32155   0.82765  -0.39231
C     1.31810   0.04798   0.13063
O     1.57064  -0.87017   0.93313
C     0.04133   0.41053  -0.33922
N    -1.01822  -0.32845   0.14283
C    -2.29919  -0.23354  -0.10254
C    -3.24743  -1.16975   0.56309
C    -2.77702   0.81377  -1.04555
H     3.93095  -0.50549  -0.24011
H     3.75370   0.63628   1.12547
H     4.30530   1.23502  -0.47500
H    -0.13761   1.21877  -1.04055
H    -0.71973  -1.06166   0.79554
H    -3.81127  -1.74759  -0.18996
H    -2.72675  -1.87153   1.23083
H    -3.99413  -0.60800   1.15092
H    -3.86771   0.77347  -1.15903
H    -2.49348   1.82109  -0.68979
H    -2.31075   0.68877  -2.03972
