20
Generated by autodE on: 2022-05-31. E = -3183.644357 Ha
F     2.33871  -0.77074  -1.64632
C     1.54885  -0.90989  -0.55777
F     1.45093  -2.24379  -0.33631
F     2.21607  -0.38683   0.48041
C     0.21205  -0.30523  -0.78216
C    -0.52714   0.51986  -0.01775
Br   -0.13999   1.27517   1.66426
C    -1.90643   0.63829  -0.63983
C    -2.58821  -0.74840  -0.39890
C    -1.75285  -1.70762  -1.29312
C    -0.69221  -0.75282  -1.92845
C    -1.53165   0.52459  -2.13231
H    -2.49258   1.50653  -0.31822
H    -3.63727  -0.70155  -0.72474
H    -2.57717  -1.02628   0.66443
H    -1.27503  -2.51954  -0.72859
H    -2.36942  -2.15892  -2.08412
H    -0.16340  -1.15997  -2.79868
H    -0.93868   1.37745  -2.49235
H    -2.40516   0.36935  -2.78284
