73
Generated by autodE on: 2022-06-15. E = -1874.920029 Ha
C   -16.93831   9.74602 -16.02385
N   -16.17598   8.59558 -16.46619
C   -14.84766   8.65051 -16.59447
O   -14.16522   9.61093 -16.22141
C   -14.18204   7.41658 -17.22097
C   -13.15505   6.71567 -16.25025
C   -13.22754   7.03065 -14.79046
O   -12.44622   5.84192 -16.70710
O   -15.17583   6.41584 -17.44687
C   -14.97186   5.77080 -18.71157
C   -14.51714   4.31272 -18.46729
O   -14.04063   3.62943 -19.37952
N   -14.73117   3.85213 -17.22880
C   -14.24067   2.56228 -16.78857
C   -16.28500   5.82141 -19.50106
C   -16.88765   7.07645 -19.68816
C   -18.08477   7.18814 -20.39516
C   -18.69314   6.04835 -20.93290
C   -18.09414   4.79930 -20.75735
C   -16.89499   4.68469 -20.04548
C   -13.91057   6.63228 -19.40212
C   -13.56039   7.64762 -18.59492
C   -12.74847   8.88883 -18.92782
C   -12.00535   9.42919 -17.69693
O   -11.42962   8.72174 -16.89719
O   -11.93702  10.75637 -17.69932
C   -11.21748  11.37167 -16.61989
C   -13.74310   9.95476 -19.44460
O   -14.89321  10.04754 -19.06987
O   -13.20577  10.76547 -20.34800
C   -14.07348  11.75180 -20.92679
C   -11.60973   8.65925 -19.96777
C   -10.72904   7.41855 -19.74420
C   -10.84588   6.42283 -20.89875
C   -12.11868   5.57498 -20.92049
C   -13.51611   6.25394 -20.81013
C   -13.85844   7.28623 -21.87593
C   -13.45389   6.95936 -23.28710
O   -14.48685   8.30109 -21.61717
H   -17.99349   9.46172 -15.93301
H   -16.85081  10.57784 -16.74217
H   -16.57784  10.09954 -15.04660
H   -16.64718   7.79189 -16.86999
H   -14.26913   6.91531 -14.44808
H   -12.94815   8.07902 -14.61802
H   -12.56697   6.35846 -14.22868
H   -15.03340   4.53048 -16.53690
H   -14.37451   1.81726 -17.58403
H   -13.16848   2.60792 -16.53227
H   -14.80154   2.24318 -15.90068
H   -16.41230   7.97089 -19.28596
H   -18.54154   8.17106 -20.53202
H   -19.62933   6.13559 -21.48924
H   -18.55923   3.90355 -21.17544
H   -16.43596   3.70273 -19.93094
H   -10.17879  11.01391 -16.59704
H   -11.71120  11.14327 -15.66466
H   -11.24660  12.44943 -16.81552
H   -13.45632  12.31629 -21.63485
H   -14.90321  11.25773 -21.45183
H   -14.47099  12.41851 -20.14866
H   -10.99755   9.57036 -19.97160
H   -12.06272   8.62891 -20.96360
H    -9.68039   7.73948 -19.65608
H   -10.97469   6.92133 -18.79392
H   -10.00018   5.71645 -20.85746
H   -10.73233   6.97209 -21.84922
H   -12.07947   4.85423 -20.09305
H   -12.11904   4.97217 -21.84155
H   -14.20515   5.43847 -21.08968
H   -13.98936   7.61449 -23.98645
H   -13.64685   5.90205 -23.52150
H   -12.37027   7.12626 -23.39971
