36
Generated by autodE on: 2022-07-27. E = -953.959997 Ha
C     0.22695  -3.02694   2.46717
N    -0.14024  -1.91307   1.61150
C     0.18602  -1.91793   0.30791
O     0.61117  -2.90393  -0.29291
C    -0.16488  -0.64579  -0.43750
O    -0.04293   0.52769   0.08756
C     0.75803   0.95536   1.13332
C     2.04057   0.34608   1.24887
C     3.07070   0.92717   2.18787
O     2.33198  -0.65269   0.55206
C     0.31650   2.23787   1.68230
O     0.94213   2.82824   2.58354
N    -0.83403   2.75204   1.17714
C    -1.35353   4.02106   1.64013
C    -0.80881  -0.67453  -1.73107
C    -0.96660   0.53802  -2.44771
C    -1.61187   0.54610  -3.67736
C    -2.10544  -0.64855  -4.21966
C    -1.95216  -1.85296  -3.52356
C    -1.30941  -1.87509  -2.28985
H     1.32227  -3.10717   2.56719
H    -0.15111  -3.97090   2.05043
H    -0.21310  -2.87254   3.45954
H    -0.34720  -1.02325   2.05880
H     2.72276   0.85003   3.22897
H     3.24696   1.99328   1.98962
H     4.00217   0.35787   2.06792
H    -1.31993   2.25864   0.43777
H    -2.29501   4.22954   1.11692
H    -1.55089   4.00416   2.72420
H    -0.65182   4.84833   1.44245
H    -0.56789   1.46284  -2.02999
H    -1.72581   1.48405  -4.22441
H    -2.60763  -0.63977  -5.18959
H    -2.34046  -2.78187  -3.94570
H    -1.19679  -2.81435  -1.75219
