37
Generated by autodE on: 2022-06-15. E = -920.828003 Ha
C    -1.48473  -3.91927  -0.99788
O    -1.10443  -2.53340  -1.04008
C    -1.49415  -1.76806  -0.02330
O    -2.12749  -2.16418   0.92732
C    -1.02188  -0.31766  -0.22820
C    -1.73729   0.18579  -1.49242
O    -2.91378  -0.03323  -1.69282
O    -0.96235   0.90740  -2.28848
C    -1.58001   1.46881  -3.46100
C     0.43414  -0.23170  -0.29594
C     1.53728   0.20999  -0.05759
C     2.54457   1.09083   0.52445
C     3.33021   0.42088   1.66636
C     3.73261  -1.01186   1.46753
O     3.62583   1.04962   2.66563
C     1.81042   2.38010   0.96354
C     0.51800   2.17237   1.78275
C    -0.82810   1.98766   1.02401
C    -1.45677   0.58020   0.97493
H    -2.58003  -4.01196  -0.98624
H    -1.06299  -4.40238  -0.10522
H    -1.07314  -4.37174  -1.90695
H    -2.39896   2.14202  -3.17150
H    -1.96870   0.66708  -4.10430
H    -0.79007   2.02548  -3.97708
H     3.32542   1.34639  -0.21685
H     4.09547  -1.17927   0.44180
H     4.49513  -1.29895   2.20324
H     2.84184  -1.64856   1.60006
H     2.52523   2.96660   1.55910
H     1.58377   2.97023   0.06185
H     0.40883   3.07324   2.40633
H     0.66089   1.34197   2.49519
H    -0.74352   2.39927   0.00444
H    -1.57089   2.62194   1.53148
H    -1.21053   0.02647   1.89262
H    -2.55354   0.65721   0.93435
