44
Generated by autodE on: 2022-10-26. E = -1055.433630 Ha
C    -0.92726  -2.48766   0.91987
N    -0.76564  -1.54325   2.00345
C     0.16505  -0.56266   2.11906
O     0.32514   0.04142   3.19671
C     1.01416  -0.28283   0.94522
O     0.49833  -0.19748  -0.29435
C    -0.72082   0.06810  -0.72030
C    -0.90850  -0.19842  -2.13290
C    -1.96966   0.38718  -2.86374
C    -2.11248   0.13829  -4.22637
C    -1.20630  -0.69256  -4.89696
C    -0.14965  -1.27589  -4.18677
C    -0.00191  -1.04091  -2.82254
C    -1.73044   0.67184   0.15481
C    -3.07433   0.25418   0.10779
C    -4.03954   0.87970   0.89868
C    -3.68176   1.93459   1.74229
C    -2.34835   2.36273   1.79138
C    -1.37897   1.73516   1.01491
C     2.44016  -0.08749   1.00901
C     3.17835  -0.33864   2.19551
C     4.55994  -0.17270   2.22430
C     5.25978   0.23757   1.08144
C     4.54639   0.48915  -0.09676
C     3.16186   0.34143  -0.13615
H    -1.66630  -2.15607   0.17132
H    -1.27007  -3.44814   1.32849
H     0.03120  -2.65664   0.41062
H    -1.38634  -1.62867   2.80415
H    -2.66811   1.05841  -2.36396
H    -2.93442   0.60528  -4.77393
H    -1.32463  -0.88649  -5.96534
H     0.55787  -1.93137  -4.70005
H     0.80712  -1.52062  -2.27069
H    -3.35795  -0.57495  -0.54232
H    -5.07588   0.53702   0.85727
H    -4.43708   2.42307   2.36200
H    -2.06337   3.19238   2.44219
H    -0.34307   2.07431   1.06794
H     2.65588  -0.66329   3.09488
H     5.10157  -0.37269   3.15247
H     6.34406   0.36547   1.11144
H     5.07477   0.81794  -0.99545
H     2.62068   0.56382  -1.05668
