44
Generated by autodE on: 2022-10-25. E = -1055.441600 Ha
C    -2.59592   2.24741   3.56833
N    -1.79430   1.56516   2.57683
C    -2.36146   1.00973   1.47051
O    -3.60274   1.00278   1.32237
C    -1.46105   0.42858   0.48126
O    -0.16456   0.63276   0.77124
C     0.99215   0.17705   0.34494
C     2.13354   0.90586   0.87137
C     1.96045   2.17978   1.46575
C     3.04713   2.86931   1.99646
C     4.33396   2.31922   1.93904
C     4.51987   1.06251   1.35129
C     3.43741   0.35911   0.82702
C     1.08606  -0.97968  -0.54483
C     0.29219  -2.12363  -0.32009
C     0.34562  -3.20438  -1.19673
C     1.18198  -3.16058  -2.31818
C     1.98291  -2.03616  -2.54536
C     1.94141  -0.95600  -1.66455
C    -1.91079  -0.20479  -0.74910
C    -1.26157   0.05011  -1.97860
C    -1.65654  -0.60009  -3.14524
C    -2.71537  -1.51524  -3.12028
C    -3.38787  -1.75662  -1.91660
C    -2.99344  -1.11171  -0.74516
H    -3.13667   3.10904   3.14111
H    -1.93755   2.61150   4.36711
H    -3.34641   1.57428   4.01389
H    -0.78529   1.56800   2.66556
H     0.96544   2.62534   1.49463
H     2.89231   3.85170   2.44892
H     5.18558   2.86666   2.34902
H     5.51804   0.62027   1.31034
H     3.59639  -0.63130   0.39992
H    -0.36849  -2.16207   0.54652
H    -0.27576  -4.08284  -1.00990
H     1.20942  -4.00245  -3.01373
H     2.63505  -1.99563  -3.42069
H     2.54641  -0.06950  -1.86125
H    -0.44068   0.76666  -2.01686
H    -1.13239  -0.39293  -4.08118
H    -3.01671  -2.03380  -4.03333
H    -4.21758  -2.46722  -1.88703
H    -3.50543  -1.32386   0.19337
