15
Generated by autodE on: 2022-05-30. E = -433.298985 Ha
C     2.97564   0.62124   0.06385
N     2.46925  -0.71213  -0.02092
O     1.19526  -0.77625  -0.03634
N     0.45205   0.31660   0.01922
C    -0.90189  -0.10101  -0.00989
O    -1.28529  -1.27033  -0.06032
N    -1.70827   0.98179   0.03094
C    -3.15163   0.89878   0.01198
H     4.06891   0.56372   0.07461
H     2.61890   1.23105  -0.78792
H     2.59516   1.12814   0.97096
H    -1.26630   1.89558   0.06168
H    -3.56772   1.37661  -0.88976
H    -3.44586  -0.15735   0.01733
H    -3.58674   1.39250   0.89522
