50
Generated by autodE on: 2022-05-30. E = -1091.409355 Ha. Imaginary frequency = -109.8 cm-1
C     1.31987   2.50434   4.04550
N     0.24879   1.81052   3.35584
C     0.13834   1.87368   2.00615
O     0.93053   2.51964   1.30590
N    -1.00598   1.34670   1.40296
O    -1.66419   0.31036   1.95722
N    -1.19646  -0.85234   2.27306
C     0.21827  -1.00111   2.46904
C    -0.97323  -1.37408  -0.29711
C    -0.37397  -0.35853  -0.61902
C     0.40845   0.48187  -1.53787
C    -0.35483   1.73322  -1.98995
C     1.75868   0.81667  -0.89615
O     2.31934   0.10762  -0.08291
O     2.30136   1.92632  -1.39230
C     3.57537   2.31725  -0.85957
C     0.75052  -0.47182  -2.74027
C    -0.41031  -0.95101  -3.62796
C    -1.62475  -1.69367  -3.02723
C    -1.34651  -2.90074  -2.10241
C    -1.63633  -2.66148  -0.58167
C    -1.03701  -3.80541   0.24881
C    -3.14960  -2.56556  -0.32254
H     2.30239   2.16876   3.68015
H     1.25784   3.59648   3.90616
H     1.24785   2.28083   5.11717
H    -0.50843   1.41812   3.90454
H     0.85081  -0.44830   1.76350
H     0.46602  -0.67521   3.49706
H     0.41966  -2.07678   2.39322
H    -0.47708   2.43132  -1.15136
H     0.18575   2.24198  -2.79982
H    -1.35159   1.45262  -2.35693
H     3.85612   3.23414  -1.39057
H     3.48590   2.51281   0.21821
H     4.32454   1.53154  -1.03211
H     1.28428  -1.33690  -2.31824
H     1.46805   0.06000  -3.38704
H    -0.80042  -0.09071  -4.19694
H     0.05603  -1.61152  -4.37976
H    -2.27072  -0.97170  -2.50514
H    -2.22036  -2.03963  -3.88754
H    -1.95531  -3.76603  -2.41207
H    -0.29368  -3.21260  -2.19982
H    -1.46894  -4.76688  -0.07105
H     0.05495  -3.85784   0.12088
H    -1.25476  -3.67074   1.31885
H    -3.61403  -1.77545  -0.93117
H    -3.63280  -3.52352  -0.57154
H    -3.34925  -2.34069   0.73557
