57
Generated by autodE on: 2022-10-23. E = -1672.535378 Ha
C   -17.23474   8.16408   1.63909
N   -15.92172   8.28173   2.24196
C   -15.71585   8.99131   3.35082
O   -16.59461   9.66255   3.90160
C   -14.28547   8.95396   3.97909
C   -13.18978   9.39325   2.96319
C   -11.76836   9.40918   3.45935
O   -13.49228   9.85540   1.88089
N   -14.21281   9.95860   5.02849
C   -14.26904   9.32516   6.33928
C   -13.16040   9.88912   7.15818
N   -12.27767  10.40233   7.70523
C   -15.57129   9.64197   6.98050
N   -16.60561   9.95428   7.39837
C   -14.08201   7.80834   6.05087
C   -14.02541   7.63322   4.71298
C   -13.78263   6.37280   3.84726
O   -12.73962   5.55025   4.28154
C   -11.44642   6.12761   4.44290
O   -13.44229   6.94548   2.58357
C   -13.05512   6.08027   1.52137
C   -15.04502   5.49591   3.70958
C   -15.33859   4.47841   4.80968
C   -15.46797   5.05270   6.22012
C   -14.10059   5.35181   6.87051
C   -13.79731   6.82299   7.19859
O   -12.42836   7.07630   7.50751
C   -11.61596   6.06252   8.09581
C   -14.59807   7.15634   8.49769
F   -14.29605   6.29026   9.47816
F   -15.92626   7.09272   8.30809
F   -14.32090   8.37837   8.98956
H   -17.16716   7.49179   0.77522
H   -17.60704   9.14361   1.29975
H   -17.96269   7.75220   2.35633
H   -15.13639   7.75288   1.87292
H   -11.65973   9.04550   4.48660
H   -11.39568  10.44311   3.39970
H   -11.15564   8.79557   2.78277
H   -14.95609  10.64644   4.91146
H   -10.79108   5.31284   4.77697
H   -11.45353   6.91853   5.20560
H   -11.06242   6.53040   3.49429
H   -13.93139   5.70183   0.97100
H   -12.46105   5.23257   1.89078
H   -12.44066   6.68576   0.84087
H   -14.94653   4.95280   2.75880
H   -15.90385   6.17048   3.59754
H   -16.28565   3.98720   4.53370
H   -14.57009   3.68862   4.80470
H   -16.10700   5.94801   6.18863
H   -16.00223   4.32686   6.85036
H   -14.00055   4.78242   7.80148
H   -13.30250   5.00727   6.21174
H   -11.47966   5.20259   7.42346
H   -12.01310   5.71686   9.06163
H   -10.63868   6.53503   8.26357
