22
Generated by autodE on: 2022-10-23. E = -679.394455 Ha
C     2.59780  -0.73161   0.94890
N     2.37073   0.02207  -0.27038
C     1.20523   0.17686  -0.90687
O     1.02597   0.92512  -1.87185
C     0.03970  -0.66544  -0.45133
N    -0.96510  -0.16828   0.23398
C    -1.16467   1.02603   0.85206
C    -2.41538   1.26746   1.46390
N    -3.44345   1.48222   1.97251
C    -0.15504   2.01063   0.92236
N     0.66746   2.83387   1.00594
C    -0.18919  -2.05027  -0.94011
C     0.88254  -2.67856  -1.77312
O    -1.23639  -2.61453  -0.63740
H     1.70326  -1.31260   1.20714
H     3.43961  -1.42745   0.82087
H     2.82195  -0.05389   1.78740
H     3.13554   0.59479  -0.62486
H    -1.74290  -0.84935   0.30498
H     1.80064  -2.78817  -1.17276
H     0.55231  -3.66277  -2.12712
H     1.12811  -2.02933  -2.62863
