35
Generated by autodE on: 2022-10-23. E = -993.067884 Ha
C    -3.39300   1.66225   1.35242
O    -3.14636   0.28839   1.08371
C    -2.33945   0.03497  -0.03815
O    -2.89151   0.59508  -1.21439
C    -4.15042   0.07270  -1.62652
C    -0.97696   0.60667   0.06148
C     0.22646   0.62088  -0.07465
C     1.57700   0.13310  -0.37603
O     2.33719   0.98347  -1.20903
C     2.43228   2.36088  -0.85983
C     2.35747  -0.10554   0.94311
F     2.41140   1.00829   1.69673
F     3.61792  -0.47834   0.68788
F     1.79574  -1.06033   1.70229
C     1.40612  -1.19259  -1.17181
C     0.33200  -2.20412  -0.72715
C    -1.13984  -1.97878  -1.17460
C    -2.14332  -1.49443  -0.11016
H    -3.98964   2.13444   0.55562
H    -2.44632   2.22074   1.46409
H    -3.95030   1.70782   2.29758
H    -4.04429  -0.90464  -2.12589
H    -4.84585  -0.02708  -0.77848
H    -4.56719   0.79254  -2.34454
H     2.76548   2.88831  -1.76421
H     3.16315   2.53572  -0.05456
H     1.45253   2.76482  -0.55229
H     2.39302  -1.68019  -1.18540
H     1.20124  -0.86755  -2.20254
H     0.65643  -3.16422  -1.15680
H     0.36932  -2.34734   0.36259
H    -1.51641  -2.94604  -1.53957
H    -1.17527  -1.30354  -2.04562
H    -1.82912  -1.82051   0.89255
H    -3.13461  -1.93752  -0.28613
