40
Generated by autodE on: 2022-06-18. E = -923.096903 Ha
C     1.62108  -3.25307   1.29842
O     1.46335  -1.98712   0.63847
C     0.30063  -1.36123   0.80170
O    -0.59158  -1.77631   1.51081
C     0.20624  -0.08501  -0.05556
C     1.54394   0.64628  -0.06422
C     1.92674   1.34133   1.09408
C     3.14536   2.01911   1.14742
C     4.00388   2.00736   0.04237
C     3.63232   1.31245  -1.11078
C     2.40891   0.63536  -1.16465
O    -0.77380   0.76348   0.55053
C    -1.92935   0.89688  -0.26847
C    -3.20643   0.91800   0.55314
C    -3.14228   0.45380   1.97587
O    -4.24191   1.28652   0.01879
C    -1.88855  -0.29196  -1.24241
C    -2.68941  -0.08328  -2.51728
C    -0.37396  -0.45168  -1.45456
C     0.02358  -1.80383  -2.03515
H     0.86545  -3.96616   0.93879
H     2.62737  -3.60284   1.04200
H     1.52404  -3.13160   2.38641
H     1.25998   1.35130   1.95855
H     3.42675   2.55830   2.05519
H     4.95855   2.53719   0.08189
H     4.29551   1.29591  -1.97893
H     2.14162   0.09683  -2.07409
H    -1.88527   1.84394  -0.83739
H    -2.64460  -0.52552   2.03209
H    -2.51557   1.15154   2.55543
H    -4.15199   0.41225   2.40445
H    -2.26098  -1.18494  -0.71148
H    -2.62515  -0.96730  -3.16948
H    -2.31110   0.78711  -3.07773
H    -3.75063   0.09348  -2.28933
H    -0.05181   0.34732  -2.14097
H     1.11358  -1.91228  -2.12061
H    -0.35471  -2.63394  -1.41756
H    -0.40676  -1.91575  -3.04140
