12
Generated by autodE on: 2022-06-18. E = -157.300302 Ha
C     1.94291  -0.02888  -0.28623
C     0.49351  -0.40200  -0.20869
C    -0.49352   0.40202   0.20864
C    -1.94290   0.02887   0.28627
H     2.32706  -0.12700  -1.31719
H     2.56264  -0.69813   0.33676
H     2.11623   1.00661   0.04666
H     0.23790  -1.42321  -0.52452
H    -0.23792   1.42324   0.52444
H    -2.32679   0.12629   1.31740
H    -2.56278   0.69854  -0.33611
H    -2.11631  -1.00641  -0.04723
