28
Generated by autodE on: 2022-07-27. E = -765.694910 Ha
C    -0.93436  -3.81232   0.89969
O    -0.94011  -2.41665   0.57301
C     0.25829  -1.84159   0.39483
O     1.31367  -2.44966   0.48164
C     0.16538  -0.40540   0.08860
O    -1.05752   0.05228   0.13753
C    -1.61730   1.20916  -0.11763
C    -3.04984   1.27318   0.00992
C    -3.77903   0.03217   0.47015
O    -3.64207   2.33032  -0.25077
C     1.32909   0.41803  -0.22389
C     1.44835   1.73489   0.27062
C     2.57865   2.49822  -0.01771
C     3.60330   1.97059  -0.81002
C     3.49611   0.66627  -1.30519
C     2.37496  -0.10759  -1.01388
H    -1.98647  -4.09944   1.00907
H    -0.39317  -3.98768   1.84099
H    -0.46313  -4.39543   0.09505
H    -1.01584   2.06088  -0.43542
H    -4.85856   0.23058   0.47580
H    -3.45103  -0.25463   1.48215
H    -3.55822  -0.82027  -0.19083
H     0.67278   2.15481   0.91202
H     2.66053   3.51114   0.38242
H     4.48400   2.57413  -1.04076
H     4.29138   0.24947  -1.92717
H     2.29651  -1.12091  -1.40596
