44
Generated by autodE on: 2022-06-11. E = -906.122368 Ha
C     1.95317   0.37200  -3.02146
C     1.32585   0.03976  -1.70166
C     1.98612   0.46204  -0.46470
C     2.71943   1.66551  -0.42508
C     3.39377   2.05985   0.73509
C     3.35894   1.25958   1.87748
C     2.63562   0.05597   1.85093
C     1.95087  -0.33212   0.70559
N     0.11431  -0.53935  -1.66675
C    -0.37663  -1.22674  -2.87722
C    -0.77258  -0.38001  -0.59931
C    -0.83959   0.91042   0.07999
C    -1.07037   1.00307   1.47281
C    -1.16109   2.23902   2.11760
C    -1.00758   3.42960   1.40236
C    -0.75768   3.35999   0.02287
C    -0.67161   2.13146  -0.62304
C    -1.47812  -1.55862  -0.12509
C    -2.74052  -1.47489   0.51844
C    -3.40899  -2.61520   0.95440
C    -2.85456  -3.88991   0.76347
C    -1.61056  -3.99705   0.13317
C    -0.92921  -2.85647  -0.29348
H     1.91674  -0.47004  -3.72732
H     3.00504   0.65052  -2.88790
H     1.43587   1.22215  -3.50686
H     2.74732   2.31011  -1.30516
H     3.94644   3.00258   0.74182
H     3.88716   1.56461   2.78371
H     2.60827  -0.58395   2.73627
H     1.38769  -1.26675   0.70533
H    -0.54581  -0.48365  -3.67000
H    -1.32920  -1.71100  -2.64889
H     0.34458  -1.97549  -3.22993
H    -1.16591   0.08853   2.05971
H    -1.33853   2.26774   3.19619
H    -1.07385   4.39620   1.90683
H    -0.63324   4.27924  -0.55579
H    -0.47501   2.10787  -1.69746
H    -3.20441  -0.49689   0.65742
H    -4.38335  -2.51208   1.43963
H    -3.38420  -4.78232   1.10454
H    -1.15515  -4.98010  -0.01440
H     0.05511  -2.96451  -0.75366
