72
Generated by autodE on: 2022-06-11. E = -1410.304605 Ha. Imaginary frequency = -147.9 cm-1
C    -2.46379  18.43231   0.81987
C    -1.89730  17.19007   1.45436
O    -1.60983  17.17830   2.64082
C    -1.76331  15.90142   0.60015
C    -3.11210  15.18204   0.83247
C    -1.60115  16.16785  -0.93017
C    -0.19295  16.36426  -1.51571
C     0.70388  17.53486  -1.07349
C     1.29760  17.55762   0.34772
C     1.82886  16.21073   0.88389
C     0.67640  15.33337   1.15825
C    -0.54950  15.17489   1.07619
C    -0.69272  12.99561   2.55824
C    -0.67792  13.96108   3.70582
C    -1.96731  12.26723   2.35241
C    -2.44299  11.90645   1.07372
C    -3.67758  11.28136   0.91207
C    -4.48039  10.99976   2.02340
C    -4.03242  11.35846   3.29746
C    -2.79651  11.98779   3.45949
N     0.45541  12.54018   1.99913
C     0.42511  11.30688   1.18018
C     1.68958  13.19710   2.10840
C     2.65047  13.02138   0.99756
C     2.24024  13.11638  -0.35448
C     3.14151  12.96383  -1.40492
C     4.49829  12.72514  -1.15035
C     4.92789  12.62963   0.17649
C     4.02069  12.76740   1.22961
C     2.22332  13.44091   3.46126
C     3.17690  14.45386   3.71447
C     3.70893  14.64967   4.98745
C     3.31491  13.83654   6.05866
C     2.39075  12.81400   5.82521
C     1.86029  12.61415   4.54899
H    -3.38444  18.21157   0.25962
H    -1.73813  18.84192   0.09973
H    -2.66487  19.17866   1.59933
H    -3.14520  14.25275   0.25072
H    -3.25235  14.93236   1.89326
H    -3.94967  15.81884   0.50748
H    -2.02300  15.28704  -1.44066
H    -2.25108  17.00725  -1.21764
H    -0.34253  16.48579  -2.60281
H     0.37048  15.42543  -1.40745
H     1.55005  17.54594  -1.78263
H     0.16909  18.48735  -1.23667
H     0.55966  17.93912   1.07021
H     2.12441  18.28844   0.35360
H     2.41359  16.39171   1.79896
H     2.52147  15.74589   0.16216
H     0.13501  14.68395   3.62933
H    -0.55074  13.42317   4.66404
H    -1.62789  14.50806   3.74391
H    -1.85954  12.15889   0.18971
H    -4.02297  11.02632  -0.09265
H    -5.44936  10.51184   1.89489
H    -4.64726  11.14603   4.17542
H    -2.46585  12.25140   4.46452
H     1.42570  10.86493   1.18996
H     0.12980  11.48559   0.14118
H    -0.27458  10.59566   1.63123
H     1.19874  13.34595  -0.57729
H     2.78457  13.05132  -2.43448
H     5.20795  12.61788  -1.97400
H     5.98015  12.43333   0.39858
H     4.38312  12.66559   2.25277
H     3.50485  15.09357   2.89541
H     4.43795  15.44857   5.14697
H     3.72999  13.99338   7.05693
H     2.08517  12.15495   6.64222
H     1.16143  11.79241   4.38316
