17
Generated by autodE on: 2022-05-29. E = -1192.119830 Ha
Cl   -1.73810   1.51081  -0.07813
C    -0.46953   0.43767   0.39555
C    -0.11515  -0.72176  -0.18491
Cl   -0.82711  -1.46937  -1.57038
C     1.21379  -1.14610   0.41650
C     2.27062  -0.13791  -0.14135
C     1.86027   1.20497   0.53095
C     0.61876   0.80112   1.39118
C     1.03523  -0.61148   1.85351
H     1.46492  -2.20589   0.29001
H     3.28100  -0.44834   0.16312
H     2.24514  -0.09709  -1.23950
H     2.65839   1.58882   1.18332
H     1.60735   1.99175  -0.19377
H     0.32422   1.52689   2.15842
H     0.24491  -1.13263   2.41217
H     1.97204  -0.61408   2.43084
