41
Generated by autodE on: 2022-10-08. E = -1260.174188 Ha
C     4.57862   1.55620   0.23013
O     3.28997   1.36928   0.82409
C     2.32578   0.91565   0.01934
O     2.45785   0.83419  -1.18538
C     1.00337   0.62566   0.75342
C     0.98694   1.22187   2.15606
O    -0.02475   1.23063  -0.05626
C    -1.00467   0.26642  -0.46022
C    -1.58275   0.66586  -1.84163
C    -1.11663   1.96343  -2.44194
O    -2.53955   0.04609  -2.28668
C    -2.18082   0.27377   0.52290
C    -3.06582  -0.81117   0.60943
C    -4.16067  -0.76914   1.47694
C    -4.39473   0.36290   2.26403
C    -3.52650   1.45436   2.17163
C    -2.43043   1.41007   1.30496
C    -0.22955  -1.06468  -0.48303
C     0.51965  -1.31326  -1.81461
O     1.33752  -2.26268  -1.84240
O     0.21094  -0.58179  -2.79444
C     0.65441  -0.88304   0.76654
C     1.80283  -1.89213   0.95158
O     1.45608  -3.05522   1.27752
O     2.98437  -1.48409   0.79867
H     5.23279   1.92507   1.02892
H     4.53063   2.28719  -0.58983
H     4.95501   0.59719  -0.15613
H     1.76546   0.75125   2.77243
H     1.16924   2.30586   2.13083
H     0.01032   1.03451   2.62119
H    -0.02662   2.06085  -2.40901
H    -1.54680   2.78739  -1.84573
H    -1.48868   2.04213  -3.47247
H    -2.90525  -1.69613  -0.00706
H    -4.83450  -1.62736   1.53702
H    -5.24961   0.39399   2.94384
H    -3.70129   2.34742   2.77685
H    -1.75428   2.26192   1.23623
H    -0.88815  -1.93043  -0.33576
H    -0.00608  -1.03671   1.63299
