31
Generated by autodE on: 2022-10-13. E = -805.033809 Ha
C     3.96913   2.16004  -1.34215
O     2.76294   1.47285  -0.98947
C     2.71465   0.95058   0.24705
O     3.62492   1.05695   1.05789
C     1.46409   0.24603   0.53736
C     1.23848  -0.43827   1.82645
O     0.64079   0.19515  -0.47299
C    -0.57214  -0.29859  -0.67564
C    -0.90917  -0.37062  -2.09229
C     0.13638   0.08198  -3.08627
O    -2.00569  -0.80384  -2.46414
C    -1.52459  -0.59056   0.39676
C    -2.31787  -1.75535   0.35510
C    -3.27307  -1.99422   1.34166
C    -3.46372  -1.07465   2.38023
C    -2.69489   0.09192   2.42218
C    -1.73430   0.33617   1.43956
H     4.13826   3.01529  -0.67143
H     3.82714   2.50961  -2.37136
H     4.83289   1.48088  -1.28891
H     2.19020  -0.48654   2.36916
H     0.85358  -1.45704   1.65708
H     0.49949   0.07812   2.46450
H     1.02215  -0.57124  -3.03766
H     0.48095   1.10347  -2.86611
H    -0.29454   0.04020  -4.09477
H    -2.16888  -2.47730  -0.44771
H    -3.87059  -2.90811   1.30454
H    -4.21298  -1.26578   3.15186
H    -2.84669   0.82166   3.22076
H    -1.16257   1.26578   1.46085
