10
Generated by autodE on: 2022-10-08. E = -455.045286 Ha
O     1.24588  -1.32368   0.19996
C     1.36973  -0.21252   0.77874
O     1.92133  -0.01579   1.89756
C     0.84940   1.03509   0.09181
C    -0.32831   1.18401  -0.53709
C    -1.38987   0.12464  -0.76154
O    -1.74394  -0.59604   0.20780
O    -1.85921   0.07968  -1.93279
H     1.50889   1.90755   0.18159
H    -0.55824   2.15503  -0.99403
