41
Generated by autodE on: 2022-10-08. E = -1260.085229 Ha. Imaginary frequency = -269.2 cm-1
C     3.50775   2.84894  -0.65626
O     2.23453   2.34617  -0.23365
C     2.24548   1.49096   0.79378
O     3.23782   1.25269   1.46623
C     0.94294   0.84187   1.04166
C     0.59851   0.42111   2.42825
O     0.05285   1.10047   0.10134
C    -1.10461   0.49167  -0.16698
C    -1.44757   0.55690  -1.58923
C    -0.42093   1.14554  -2.52528
O    -2.52413   0.11650  -2.00298
C    -2.13690   0.29157   0.86332
C    -2.99336  -0.82560   0.83026
C    -4.01195  -0.95930   1.77422
C    -4.19764   0.01454   2.76248
C    -3.35950   1.13327   2.79486
C    -2.34264   1.27660   1.84968
C     0.16775  -1.74981  -0.15249
C    -0.28708  -2.21461  -1.51902
O     0.48089  -2.07249  -2.50791
O    -1.43100  -2.75478  -1.56174
C     1.43504  -1.35477   0.21773
C     2.65403  -1.20632  -0.67866
O     3.55671  -2.05590  -0.46044
O     2.71439  -0.26704  -1.51594
H     4.01561   3.37213   0.16649
H     3.30013   3.54529  -1.47699
H     4.13552   2.01987  -1.01355
H     0.13170   1.25688   2.97896
H     1.52603   0.14752   2.94593
H    -0.09414  -0.42749   2.45102
H    -0.78305   1.04488  -3.55653
H    -0.25914   2.21041  -2.29217
H     0.54603   0.63919  -2.40975
H    -2.83177  -1.59585   0.07640
H    -4.66243  -1.83684   1.74339
H    -4.99468  -0.09657   3.50142
H    -3.50280   1.90552   3.55448
H    -1.71062   2.16629   1.86139
H    -0.51393  -2.03361   0.65242
H     1.70429  -1.50911   1.26534
