34
Generated by autodE on: 2022-06-17. E = -749.287389 Ha
C    -4.10266   1.61961   1.63899
O    -3.03973   1.23128   0.75442
C    -2.37689   0.12116   1.07102
O    -2.63495  -0.57208   2.03677
C    -1.25704  -0.19432   0.12762
N    -0.65695   0.73168  -0.51838
C     0.47412   0.13107  -1.24543
C     1.79902   0.51402  -0.61312
C     1.96163   0.59859   0.77800
C     3.21236   0.88872   1.33142
C     4.31896   1.09896   0.50286
C     4.16556   1.01956  -0.88504
C     2.91406   0.73228  -1.43615
C     0.21576  -1.40688  -1.25651
C    -0.41994  -1.83981  -2.57624
C    -0.70021  -1.59724  -0.01551
C    -1.73470  -2.71972  -0.08920
H    -3.70982   1.81468   2.64733
H    -4.52998   2.53451   1.21326
H    -4.86600   0.82976   1.69096
H     0.47302   0.52972  -2.27049
H     1.10655   0.44241   1.43873
H     3.32146   0.95272   2.41689
H     5.29543   1.32752   0.93657
H     5.02245   1.18758  -1.54214
H     2.79627   0.67488  -2.52151
H     1.15908  -1.95369  -1.11872
H    -1.36753  -1.30830  -2.76093
H     0.26004  -1.61398  -3.41278
H    -0.62670  -2.92000  -2.59630
H    -0.06772  -1.77144   0.87330
H    -2.26364  -2.82206   0.86817
H    -2.48469  -2.53487  -0.87267
H    -1.24249  -3.67944  -0.30785
