22
Generated by autodE on: 2022-06-17. E = -591.892382 Ha
C     3.91370   1.59397   0.41586
O     2.76540   0.91429  -0.12204
C     2.77808  -0.42246  -0.06228
O     3.67828  -1.09291   0.40650
C     1.61316  -0.98678  -0.74781
N     0.53757  -1.29468  -0.25424
C    -0.66093  -1.53405   0.12295
C    -1.71313  -0.52312   0.06146
C    -1.44869   0.80366  -0.33516
C    -2.48356   1.73509  -0.39774
C    -3.79165   1.36412  -0.06083
C    -4.05921   0.05132   0.34266
C    -3.02923  -0.88751   0.40508
H     3.72802   2.66270   0.25997
H     4.82550   1.28441  -0.11486
H     4.02054   1.37981   1.48889
H    -0.88701  -2.53581   0.50251
H    -0.42711   1.10237  -0.58154
H    -2.26880   2.76101  -0.70597
H    -4.59889   2.09856  -0.10864
H    -5.07700  -0.24277   0.60948
H    -3.23616  -1.91437   0.71618
