34
Generated by autodE on: 2022-06-17. E = -749.179277 Ha. Imaginary frequency = -396.5 cm-1
C    -4.65562   0.86268   1.69733
O    -3.56924   0.58342   0.79785
C    -2.34099   0.58910   1.32518
O    -2.08640   0.79896   2.49904
C    -1.33152   0.16576   0.36122
N    -0.52322   0.77446  -0.32593
C     0.50277   0.57391  -1.13289
C     1.87217   0.68801  -0.65045
C     2.17114   0.77612   0.72558
C     3.49625   0.80329   1.15673
C     4.54549   0.74458   0.23017
C     4.25729   0.66169  -1.13710
C     2.93379   0.63809  -1.57648
C     0.15824  -1.88013  -1.08609
C    -0.02282  -2.03616  -2.57346
C    -0.86503  -2.01962  -0.17203
C    -2.27366  -2.40620  -0.55233
H    -4.55422   1.87175   2.12188
H    -5.56823   0.79559   1.09444
H    -4.67956   0.12209   2.50962
H     0.31477   0.69250  -2.20371
H     1.35679   0.82511   1.45200
H     3.71507   0.87353   2.22504
H     5.58243   0.76821   0.57282
H     5.07049   0.61900  -1.86574
H     2.70821   0.57381  -2.64384
H     1.18244  -1.92688  -0.70836
H    -0.92438  -1.51858  -2.93899
H     0.84066  -1.63801  -3.12843
H    -0.13085  -3.09958  -2.86106
H    -0.58587  -2.19657   0.87102
H    -2.98287  -2.21608   0.26672
H    -2.62950  -1.85605  -1.43711
H    -2.33152  -3.48297  -0.79804
