48
Generated by autodE on: 2022-06-06. E = -1851.276110 Ha. Imaginary frequency = -230.6 cm-1
C     0.59474  -4.95639  -2.79494
O     0.18695  -3.64798  -2.34319
C    -0.41412  -3.59055  -1.16993
O    -0.70002  -4.51187  -0.44357
C    -0.69865  -2.18380  -0.80636
N    -1.63571  -1.44454  -0.83345
C    -2.26828  -0.32240  -0.58985
C    -2.98499  -0.29969   0.72727
C    -3.94882   0.80923   1.02755
O    -2.77750  -1.21114   1.51807
C    -2.37169   0.66598  -1.69355
C    -1.63516   0.33742  -2.96688
O    -3.03833   1.68439  -1.57131
C     0.47055   0.28568   0.20013
C     0.87081  -0.87574   0.05780
C     2.02626  -1.75314   0.38895
F     3.12655  -1.28304  -0.28946
F     1.85714  -3.03987  -0.06643
C     2.31102  -1.81256   1.88194
C     2.92122  -0.56413   2.52785
C     2.05802   0.70206   2.67636
C     2.05444   1.66267   1.46794
C     0.75536   1.67438   0.59968
C    -0.41560   2.31551   1.39566
F    -1.38717   2.77902   0.59480
F    -0.00021   3.34749   2.13956
F    -0.97538   1.42194   2.22663
C     1.03802   2.51857  -0.67324
F     1.25160   3.80461  -0.35629
F     0.03094   2.48197  -1.55634
F     2.12662   2.06710  -1.30783
H    -0.27921  -5.61523  -2.88888
H     1.31437  -5.38431  -2.08301
H     1.06519  -4.79848  -3.77113
H    -4.33344   0.67075   2.04637
H    -3.47970   1.79397   0.92174
H    -4.77877   0.77662   0.30371
H    -0.58635   0.07437  -2.76778
H    -1.68466   1.19985  -3.64280
H    -2.10566  -0.53432  -3.45099
H     1.37035  -2.09545   2.37896
H     3.01398  -2.65160   2.00689
H     3.21934  -0.87939   3.53980
H     3.85733  -0.30900   2.00475
H     1.03583   0.42209   2.97088
H     2.46485   1.26806   3.52697
H     2.24090   2.69440   1.79379
H     2.87061   1.39069   0.78684
