12
Generated by autodE on: 2022-06-16. E = -157.300303 Ha
C     1.96187   0.09410   0.00106
C     0.50495   0.42203  -0.12462
C    -0.50495  -0.42209   0.12443
C    -1.96187  -0.09405  -0.00093
H     2.11937  -0.94433   0.33266
H     2.46230   0.76476   0.72206
H     2.48736   0.23104  -0.96085
H     0.26425   1.44406  -0.44945
H    -0.26425  -1.44416   0.44917
H    -2.11934   0.94366  -0.33477
H    -2.48661  -0.22852   0.96176
H    -2.46310  -0.76629  -0.71989
