11
Generated by autodE on: 2022-06-16. E = -393.821430 Ha
C    -2.09166  -0.90797  -0.15003
C    -1.08253   0.15332  -0.48020
O    -1.31119   1.12337  -1.18476
C     0.26495  -0.03976   0.11656
C     0.65070  -1.11607   0.94676
N     0.92982  -2.01994   1.62737
N     1.16120   0.89535  -0.16752
N     1.84777   1.73362  -0.46448
H    -3.04229  -0.67073  -0.64335
H    -1.72938  -1.89339  -0.48391
H    -2.23724  -0.96548   0.94065
