23
Generated by autodE on: 2022-06-16. E = -551.094080 Ha. Imaginary frequency = -468.1 cm-1
C     2.25019   0.62723   1.38091
C     1.27958  -0.41770   0.90605
O     0.91759  -1.36459   1.58920
C     0.73420  -0.21320  -0.46082
C     1.38747   0.59556  -1.42094
N     1.89815   1.31001  -2.18764
N    -0.06108  -1.22882  -0.93240
N    -1.18179  -1.51618  -0.80375
C    -2.11281  -0.05267   0.24520
C    -2.50093  -0.86190   1.45698
C    -1.19749   0.99957   0.32814
C    -1.19453   2.14226  -0.63878
H     3.21103   0.49280   0.85670
H     1.88916   1.64125   1.15190
H     2.40507   0.51322   2.46123
H    -2.87318   0.03258  -0.53957
H    -3.31402  -0.35843   2.00716
H    -1.64993  -0.98550   2.14211
H    -2.86712  -1.86129   1.17489
H    -0.70320   1.16840   1.28949
H    -1.94467   2.89071  -0.32247
H    -0.22465   2.65862  -0.67543
H    -1.46164   1.81608  -1.65570
