52
Generated by autodE on: 2022-06-05. E = -1392.200498 Ha
C     1.24861   0.64179   3.54438
N     1.34319   0.02547   2.23746
C     0.59419  -1.04219   1.90315
O    -0.14082  -1.61715   2.72395
C     0.64078  -1.51235   0.49744
C     1.54116  -1.37254  -0.50625
C     2.86577  -0.74879  -0.57644
C     3.23971  -0.03032  -1.72916
C     4.50245   0.55749  -1.81962
C     5.41981   0.42140  -0.77294
C     5.06642  -0.30917   0.36698
C     3.80231  -0.89046   0.46640
C     0.87791  -2.05489  -1.70535
O     0.13965  -3.11134  -1.07385
C    -0.52930  -2.27749  -0.10967
C    -1.34160  -1.36735  -1.09310
C    -0.30259  -1.18328  -2.23865
N    -0.07876   0.24536  -2.40398
N    -0.52862   0.85335  -1.18391
C    -0.67631   2.28777  -1.35148
C    -1.70954   0.07902  -0.71365
C    -1.96763   0.29987   0.77475
O    -1.47218   1.17119   1.45369
O    -2.84653  -0.59230   1.22552
C    -3.23828  -0.48329   2.60511
C    -2.94203   0.51588  -1.51677
O    -3.14659   0.16761  -2.66179
O    -3.67801   1.41505  -0.86728
C    -4.77944   2.00223  -1.58194
H     2.06046   1.37184   3.65493
H     1.33975  -0.11555   4.33608
H     0.28287   1.15985   3.67425
H     1.83152   0.52282   1.50097
H     2.51571   0.09085  -2.53638
H     4.77192   1.12367  -2.71434
H     6.41010   0.87667  -0.84752
H     5.78347  -0.43398   1.18176
H     3.54071  -1.47561   1.34893
H     1.55553  -2.43995  -2.47475
H    -1.13471  -2.86436   0.58614
H    -2.22932  -1.92037  -1.41478
H    -0.64368  -1.60745  -3.18942
H    -0.70069   0.56012  -3.15970
H    -1.06326   2.72669  -0.42537
H     0.31179   2.72177  -1.56134
H    -1.35248   2.55767  -2.18995
H    -3.67568   0.50662   2.79682
H    -3.98501  -1.26885   2.76593
H    -2.36675  -0.64370   3.25324
H    -5.25334   2.69941  -0.88224
H    -5.49095   1.22294  -1.88883
H    -4.41190   2.53830  -2.46816
