22
Generated by autodE on: 2022-06-05. E = -645.312917 Ha
C    -1.34520   3.00520  -0.50235
O    -0.53595   1.82527  -0.44184
C    -1.10442   0.73035   0.08461
O    -2.27999   0.73436   0.45739
C    -0.22777  -0.42839   0.10957
C     1.19157  -0.34287  -0.29589
O     1.77504  -1.14004  -1.01171
O     1.80548   0.72632   0.22926
C     3.15127   0.96958  -0.20027
N    -0.76137  -1.65910   0.43593
C     0.12787  -2.84758   0.45962
N    -1.96365  -1.91462   0.76061
H    -1.66953   3.30828   0.50394
H    -2.22983   2.83942  -1.13458
H    -0.70797   3.78143  -0.94209
H     3.19381   1.08591  -1.29318
H     3.46041   1.89937   0.29141
H     3.81019   0.14315   0.10327
H     1.02689  -2.62645   1.04546
H    -0.45081  -3.65031   0.92286
H     0.41148  -3.10453  -0.56534
H    -2.48258  -1.02179   0.72137
