41
Generated by autodE on: 2022-06-01. E = -1379.524363 Ha
C    -3.34281   0.51468   2.95772
N    -2.70042   0.36819   1.66501
C    -1.45149   0.78121   1.45229
O    -0.74620   1.35287   2.28864
C    -0.88787   0.53497   0.04331
C    -0.92714   1.83463  -0.84205
C    -1.42875   3.11213  -0.25411
O    -0.64276   1.69807  -2.01330
O    -1.69110  -0.43676  -0.61859
C    -0.95523  -1.31765  -1.45691
C    -1.38742  -2.75414  -1.18081
C    -1.23510  -0.99549  -2.87486
N    -1.52344  -0.82362  -3.98386
C     0.55646  -1.04959  -1.11929
F     1.18727  -0.49107  -2.17928
F     1.21706  -2.19698  -0.84992
C     0.54975  -0.08296   0.10321
C     1.67225   0.95783   0.02521
O     1.49316   2.14421   0.18032
O     2.83859   0.39131  -0.22336
C     3.98772   1.25706  -0.27644
C     0.67951  -0.90653   1.40663
O    -0.10410  -1.77666   1.70889
O     1.70594  -0.52247   2.14030
C     1.85833  -1.14876   3.42932
H    -4.41400   0.30723   2.84845
H    -2.91701  -0.18338   3.69703
H    -3.21044   1.53848   3.33480
H    -3.15101  -0.17379   0.93374
H    -1.31779   3.92275  -0.98492
H    -0.90635   3.34865   0.68083
H    -2.49648   2.98228  -0.00867
H    -0.84531  -3.44862  -1.83668
H    -2.46492  -2.84095  -1.37582
H    -1.18268  -2.99100  -0.13024
H     4.13194   1.74599   0.69713
H     4.83853   0.60842  -0.51078
H     3.85276   2.01569  -1.05963
H     1.97319  -2.23455   3.31063
H     2.76089  -0.70931   3.86678
H     0.97870  -0.92730   4.04965
