23
Generated by autodE on: 2022-06-01. E = -646.285170 Ha
C     3.43163   0.35253  -0.97578
N     2.28549  -0.34982  -0.43868
C     1.06535   0.22171  -0.41128
O     0.86465   1.41084  -0.72557
C    -0.05485  -0.65739  -0.04883
O    -1.28917  -0.12078   0.05278
C    -1.71734   1.05154   0.37013
C    -3.16678   1.31240   0.19479
C    -0.89273   2.03101   0.99003
N    -0.38068   2.85478   1.63723
C    -0.06334  -2.10058  -0.10204
C    -1.39194  -2.80808   0.01703
O     0.99312  -2.74942  -0.20753
H     4.34307  -0.20287  -0.72071
H     3.49839   1.36140  -0.54389
H     3.38123   0.45837  -2.07364
H     2.29733  -1.36634  -0.32721
H    -3.31988   1.99690  -0.65889
H    -3.58478   1.80209   1.08782
H    -3.68974   0.36852  -0.00934
H    -1.83173  -2.63507   1.01227
H    -1.23234  -3.88414  -0.12759
H    -2.11125  -2.43158  -0.72630
