23
Generated by autodE on: 2022-07-27. E = -646.281320 Ha
C    -1.68224  -0.34209   3.52607
N    -1.12639  -0.46053   2.19434
C    -0.40830   0.54673   1.64520
O    -0.22656   1.61786   2.24920
C     0.11507   0.32173   0.28756
O    -0.13824  -0.93629  -0.17242
C    -0.11605  -1.41867  -1.36801
C    -0.17558  -2.89169  -1.50740
C    -0.19296  -0.58847  -2.51969
N    -0.40841  -0.01572  -3.51177
C     1.12192   1.09004  -0.39297
C     1.60003   2.39388   0.19509
O     1.64614   0.64857  -1.43377
H    -0.89496  -0.21101   4.28662
H    -2.24387  -1.25564   3.75663
H    -2.36502   0.51946   3.59988
H    -1.25064  -1.32561   1.68190
H    -0.44193  -3.34489  -0.54298
H    -0.89465  -3.18013  -2.28896
H     0.81614  -3.26998  -1.81528
H     2.37949   2.79880  -0.46386
H     1.99698   2.25402   1.21036
H     0.76674   3.10704   0.27513
