18
Generated by autodE on: 2022-06-01. E = -733.152398 Ha
C    -3.05052   1.21523   1.24777
O    -1.96149   0.32002   0.96898
C    -1.01403   0.77106   0.14789
O    -0.99903   1.89168  -0.31664
C     0.03200  -0.25350  -0.14583
C     1.45143   0.16818  -0.29709
O     2.30574  -0.45701  -0.89215
O     1.68591   1.31870   0.33711
C     3.02042   1.84013   0.25263
C    -0.29709  -1.54776  -0.33266
F     0.54427  -2.49316  -0.63180
F    -1.50602  -2.02394  -0.25082
H    -3.72849   0.66482   1.90975
H    -2.68087   2.12185   1.74763
H    -3.56598   1.49261   0.31712
H     3.73505   1.14056   0.70953
H     3.29828   2.01462  -0.79674
H     3.00763   2.78628   0.80535
