16
Generated by autodE on: 2022-05-31. E = -529.411685 Ha
C     2.45603   1.96323   1.18592
N     1.18594   1.31869   0.97855
O     1.30472   0.48801   0.00742
C     0.35171  -0.29874  -0.48375
C     0.80523  -1.09528  -1.56080
N     1.17357  -1.75419  -2.44964
C    -1.04247  -0.42511  -0.05071
O    -1.80004  -1.20071  -0.61375
O    -1.38357   0.35167   0.97200
C    -2.74262   0.24552   1.42820
H     3.23278   1.61143   0.49263
H     2.76566   1.78845   2.23101
H     2.31190   3.05278   1.08065
H    -2.83064   0.94731   2.26506
H    -2.95434  -0.77985   1.76341
H    -3.43880   0.51980   0.62283
