40
Generated by autodE on: 2022-05-31. E = -1217.633128 Ha. Imaginary frequency = -307.0 cm-1
C    -1.94245   3.20415  -1.62132
O    -2.00677   2.03673  -0.78784
C    -1.02095   1.86862   0.08507
O    -0.12721   2.67809   0.27297
C    -1.11245   0.63340   0.88287
C    -1.70964  -0.56937   0.72338
C    -2.43741  -1.15694  -0.43457
C    -3.35336  -2.30909  -0.13275
O    -2.27116  -0.73373  -1.56806
C    -1.36410  -1.33421   2.01986
O    -1.32417  -0.25053   2.96981
C    -0.37641   0.53956   2.22615
C     0.77144  -0.47956   2.06087
C     0.13747  -1.69479   1.95952
N     0.49982  -2.50718  -0.05639
C     1.69484  -3.28925   0.22145
O     0.70461  -1.38579  -0.71730
C     1.69379  -0.50605  -0.57304
C     2.98602  -0.74486  -0.04719
N     4.06675  -0.81659   0.38699
C     1.45987   0.70228  -1.39749
O     0.49863   0.84024  -2.12739
O     2.43320   1.59478  -1.23158
C     2.32652   2.82293  -1.97123
H    -1.05506   3.15353  -2.26768
H    -1.90491   4.11572  -1.00845
H    -2.85507   3.18916  -2.22762
H    -2.75474  -3.16969   0.20923
H    -3.91322  -2.58812  -1.03438
H    -4.04425  -2.05237   0.68611
H    -2.04696  -2.13027   2.32687
H    -0.12744   1.48293   2.71894
H     1.81665  -0.26943   2.27390
H     0.51720  -2.65950   2.28434
H     1.33870  -4.24894   0.61776
H     2.21991  -3.46928  -0.73257
H     2.40379  -2.85623   0.93833
H     2.23498   2.61483  -3.04641
H     3.25071   3.37456  -1.76595
H     1.45526   3.39364  -1.62315
