23
Generated by autodE on: 2022-06-18. E = -351.521384 Ha
C    -3.69638   0.13524   0.78523
C    -2.58163   0.14235   0.02157
C    -2.65961   0.28480  -1.47700
C    -1.26729   0.01051   0.64710
C    -0.07765   0.00418  -0.00525
C     1.19989  -0.12850   0.66486
C     2.42712  -0.14340   0.08586
C     2.66875  -0.02179  -1.39188
C     3.66895  -0.28874   0.91908
H    -4.69194   0.23273   0.34334
H    -3.63649   0.03142   1.87307
H    -2.10425   1.17313  -1.82114
H    -2.20685  -0.58413  -1.98294
H    -3.70155   0.37657  -1.81456
H    -1.26487  -0.09053   1.73912
H    -0.07142   0.10446  -1.09405
H     1.15468  -0.22634   1.75632
H     3.21617  -0.90615  -1.76332
H     3.31529   0.84830  -1.60302
H     1.74923   0.08412  -1.98179
H     3.44245  -0.37224   1.99217
H     4.24373  -1.18128   0.61271
H     4.34345   0.57363   0.77018
