18
Generated by autodE on: 2022-06-18. E = -493.601139 Ha
C    -3.69875  -0.11855   0.00735
O    -2.36656   0.40646  -0.01753
C    -1.36846  -0.48718   0.01916
O    -1.55734  -1.70117   0.07124
C    -0.04326   0.12330  -0.00818
C     0.22195   1.58550  -0.07086
N     0.93573  -0.77992   0.03081
C     2.27517  -0.71154   0.02943
C     3.03441   0.46741  -0.01642
N     3.75147   1.39272  -0.05218
H    -4.36669   0.75003  -0.02676
H    -3.87639  -0.76704  -0.86316
H    -3.87210  -0.69299   0.92926
H    -0.72215   2.13986  -0.09793
H     0.80516   1.84848  -0.96938
H     0.79958   1.92565   0.80515
H     0.56410  -1.73897   0.06994
H     2.80174  -1.66462   0.06829
