41
Generated by autodE on: 2022-06-18. E = -845.115553 Ha. Imaginary frequency = -438.9 cm-1
C     0.35359   2.99505  -0.90298
O    -0.51299   1.88350  -1.16707
C    -1.01945   1.24386  -0.10046
O    -0.73353   1.54862   1.05524
C    -1.84983   0.10436  -0.45872
C    -2.46194  -0.06608  -1.80903
N    -2.31980  -0.58399   0.61034
C    -2.61790  -1.91597   0.50809
C    -2.97555  -2.59106   1.71396
N    -3.20646  -3.18955   2.68654
C    -0.78212  -2.72431  -0.08590
C     0.01872  -1.71432  -0.66530
C     0.18829  -1.64343  -2.16157
C     0.94368  -0.99435   0.18363
C     1.91429  -0.13332  -0.23109
C     2.75357   0.61470   0.67675
C     3.65209   1.58121   0.35341
C     4.43905   2.29239   1.41796
C     3.93187   2.03712  -1.05133
H     1.16644   2.70643  -0.22408
H    -0.21746   3.82384  -0.45800
H     0.75979   3.29808  -1.87485
H    -1.84080   0.40446  -2.57795
H    -3.45643   0.41723  -1.83620
H    -2.60238  -1.12041  -2.08074
H    -1.91472  -0.27320   1.49699
H    -3.19069  -2.22210  -0.36857
H    -1.18558  -3.50104  -0.74112
H    -0.51526  -3.06549   0.91774
H     1.11831  -2.15899  -2.46305
H    -0.64389  -2.13448  -2.68370
H     0.26585  -0.60974  -2.52862
H     0.81657  -1.14302   1.26294
H     2.04721   0.03336  -1.30292
H     2.61913   0.38828   1.74175
H     4.24615   3.38032   1.39014
H     4.19917   1.92464   2.42672
H     5.52542   2.17209   1.25324
H     3.74277   3.12125  -1.14636
H     3.32802   1.52165  -1.80937
H     4.99770   1.88910  -1.30184
