32
Generated by autodE on: 2022-07-01. E = -1363.069565 Ha
C    -1.93576  -3.06157  -0.47291
C    -0.65646  -2.27087  -0.79918
C     0.55220  -3.20980  -0.65044
F     0.67213  -3.66653   0.60983
F     1.71612  -2.60917  -0.95910
F     0.44071  -4.28375  -1.45117
C    -0.46857  -1.11785   0.08153
C    -0.26236   0.01225   0.45864
C    -0.00762   1.44775   0.35685
C     1.21145   1.82915   1.23030
F     0.98355   1.62019   2.53430
F     1.55059   3.11559   1.07735
F     2.27435   1.08716   0.88883
C    -1.26220   2.22932   0.82121
F    -1.06964   3.55463   0.76969
F    -2.31140   1.94589   0.03654
F    -1.61090   1.91963   2.07725
C     0.31474   1.76710  -1.14647
C    -0.43428   0.93757  -2.20766
C     0.15138  -0.45677  -2.57147
C    -0.72030  -1.68880  -2.25362
H    -1.87799  -3.51551   0.52612
H    -2.08884  -3.85442  -1.21846
H    -2.79739  -2.38139  -0.50113
H     0.12365   2.83844  -1.30235
H     1.39477   1.61799  -1.28396
H    -0.41912   1.55580  -3.11803
H    -1.49563   0.84459  -1.93603
H     1.15034  -0.57563  -2.12661
H     0.31218  -0.47535  -3.66023
H    -1.77511  -1.43750  -2.44105
H    -0.47298  -2.51093  -2.94257
