25
Generated by autodE on: 2022-07-27. E = -759.705027 Ha
C     0.53551   4.48224  -0.73578
O    -0.18835   3.25186  -0.56328
C     0.53128   2.15773  -0.35462
O     1.74793   2.11726  -0.30338
C    -0.31115   0.94757  -0.18489
C    -1.71998   1.08228  -0.15710
N    -2.85416   1.34200  -0.09009
N     0.39360  -0.15366   0.06298
C     0.19871  -1.46066   0.28158
C    -1.11444  -2.07360   0.00672
C    -1.47075  -3.43558   0.53270
O    -1.91659  -1.44187  -0.67900
C     1.48826  -2.11760   0.63904
C     1.57981  -3.58784   0.90886
O     2.49469  -1.40743   0.69565
H     1.19825   4.41363  -1.60995
H    -0.22436   5.25586  -0.89128
H     1.12851   4.70244   0.16317
H     1.41443   0.05951   0.14887
H    -0.95864  -4.21809  -0.04787
H    -1.18526  -3.55474   1.58693
H    -2.55390  -3.57055   0.41713
H     1.18121  -4.17137   0.06672
H     0.99646  -3.85344   1.80309
H     2.63328  -3.84554   1.07310
