50
Generated by autodE on: 2022-06-01. E = -1203.730405 Ha
C    -4.77782  -2.24590  -1.60696
N    -4.00864  -1.40503  -0.70973
C    -2.76070  -1.73047  -0.33903
O    -2.20398  -2.76322  -0.73409
C    -2.02826  -0.79791   0.62754
C    -2.83455   0.39835   1.17861
C    -2.03119   1.37507   2.04227
C    -1.26358   0.79712   3.23704
C    -0.11812  -0.19755   2.97722
C     0.95808   0.16279   1.92100
C     2.07232  -0.90514   2.03239
C     1.54598   1.55274   2.24426
C     0.41856   0.11478   0.50406
C    -0.74094  -0.34572   0.00305
N    -0.69663  -0.25584  -1.47908
O     0.26611  -1.35080  -1.85583
C     1.48116  -0.91850  -1.43007
O     2.48623  -1.56170  -1.55912
C     1.22112   0.47546  -0.79958
C     2.39168   1.43398  -0.73950
O     2.28399   2.62323  -0.94273
O     3.53067   0.82790  -0.44144
C     4.69823   1.65898  -0.31534
N     0.15831   0.86577  -1.74980
C    -0.55092   2.12629  -1.56089
H    -4.28788  -2.33346  -2.58985
H    -5.77156  -1.80302  -1.74511
H    -4.89460  -3.26120  -1.19691
H    -4.42420  -0.54557  -0.37012
H    -1.78473  -1.46242   1.46513
H    -3.25717   0.96864   0.33436
H    -3.68085  -0.00348   1.75919
H    -1.33546   1.93919   1.40355
H    -2.74044   2.12481   2.43012
H    -0.85565   1.65239   3.80038
H    -1.97756   0.30465   3.92028
H     0.42565  -0.31452   3.92857
H    -0.50834  -1.19887   2.75305
H     2.86690  -0.74660   1.29171
H     1.65705  -1.91355   1.88286
H     2.52548  -0.86177   3.03501
H     1.73407   1.62355   3.32653
H     2.50909   1.71951   1.74492
H     0.86386   2.36641   1.96011
H     4.55292   2.39241   0.49049
H     4.89486   2.18126  -1.26168
H     5.52222   0.97960  -0.07213
H    -1.49810   2.05646  -2.11244
H     0.04872   2.93684  -1.98619
H    -0.76778   2.35458  -0.50485
