33
Generated by autodE on: 2022-06-01. E = -598.942312 Ha
C     0.61021  -1.61173  -3.41716
N     0.66484  -1.29202  -2.00570
C     1.76649  -0.83813  -1.38539
O     2.85200  -0.66302  -1.95160
C     1.63845  -0.51612   0.11193
C     0.34447  -0.84937   0.70217
C    -0.77696  -0.64614   1.10242
C    -1.99915   0.08161   1.47037
C    -3.26214  -0.59325   0.91260
C    -2.10785   0.20410   3.00142
C    -1.81730   1.48755   0.81161
C    -0.45399   2.18951   0.99197
C     0.66690   1.91763  -0.05270
C     1.84831   1.00954   0.34806
H     1.63105  -1.63243  -3.81721
H     0.02812  -0.86231  -3.97803
H     0.14550  -2.59704  -3.57116
H    -0.18678  -1.35778  -1.45454
H     2.47169  -1.05910   0.58578
H    -3.41229  -1.58463   1.36740
H    -3.19392  -0.71967  -0.17884
H    -4.14729   0.02383   1.13392
H    -2.19565  -0.78927   3.46762
H    -3.00219   0.79011   3.26581
H    -1.22631   0.70469   3.42870
H    -2.61291   2.13188   1.22267
H    -2.02475   1.38764  -0.26712
H    -0.06590   2.00370   2.00788
H    -0.66308   3.27049   0.95889
H     0.21815   1.54947  -0.99148
H     1.11048   2.89289  -0.30802
H     2.08242   1.15848   1.41406
H     2.74726   1.29940  -0.21769
