15
Generated by autodE on: 2022-10-20. E = -287.902158 Ha
C    -1.41944  -1.29151   0.28432
C    -0.67402  -0.02064   0.05803
C    -1.41759   1.27541  -0.04807
N     0.63240  -0.04714  -0.04636
C     1.38554   1.20468  -0.27118
O     1.35771  -1.12128   0.03437
H    -0.73481  -2.14360   0.34957
H    -2.13839  -1.45992  -0.53603
H    -2.01131  -1.22326   1.21322
H    -1.11536   1.98945   0.73670
H    -1.24849   1.77096  -1.01888
H    -2.49511   1.09286   0.05667
H     1.21536   1.90899   0.55421
H     1.07473   1.67524  -1.21373
H     2.44171   0.92559  -0.31816
