36
Generated by autodE on: 2022-10-20. E = -774.581017 Ha. Imaginary frequency = -362.7 cm-1
C     0.05701   2.58444  -1.52431
O     0.39788   1.95165  -0.30263
C     0.34649   0.56271  -0.30985
C     1.06599  -0.20841  -1.42164
C     2.57506   0.16802  -1.28711
C     2.98507  -0.51064   0.05494
C     1.66807  -1.21483   0.51764
C     1.08573  -1.63473  -0.84420
C     0.73220  -0.09424   0.87704
F     0.99683   0.62659   1.98984
O    -0.92925  -0.93911   1.64954
N    -1.77311  -0.99225   0.64742
C    -2.11376  -2.31651   0.13027
C    -1.94621   0.14195  -0.06534
C    -2.18348   1.40375   0.72299
C    -2.66877   0.02244  -1.37966
H     0.82020   2.40974  -2.30212
H    -0.91651   2.24042  -1.90834
H     0.00206   3.66392  -1.32412
H     0.65265  -0.09439  -2.43242
H     2.71998   1.25705  -1.27046
H     3.14839  -0.23666  -2.13474
H     3.77621  -1.26059  -0.09401
H     3.34096   0.20746   0.80769
H     1.80029  -1.99159   1.28184
H     0.10521  -2.10969  -0.78407
H     1.76799  -2.29729  -1.39689
H    -1.64149  -3.05136   0.79072
H    -3.20519  -2.45629   0.15261
H    -1.77224  -2.47556  -0.90179
H    -1.55523   1.45988   1.61787
H    -2.02056   2.29917   0.11396
H    -3.24349   1.40897   1.03956
H    -2.74965   1.00895  -1.85374
H    -3.69501  -0.36117  -1.23598
H    -2.15523  -0.65446  -2.07771
