17
Generated by autodE on: 2022-10-26. E = -418.320556 Ha
C    -0.32252   3.40038  -0.03287
C    -0.67530   1.95629   0.26381
O    -1.70048   1.68080   0.90770
C     0.27363   1.00183  -0.24850
N     0.21813  -0.33778  -0.11108
C    -0.90062  -0.96249   0.62767
C     1.16668  -1.13175  -0.63755
C     1.15538  -2.52755  -0.52304
N     1.20406  -3.69607  -0.46321
H    -0.09211   3.54560  -1.09989
H    -1.15893   4.04885   0.25954
H     0.57587   3.69195   0.53684
H     1.13541   1.37067  -0.80486
H    -1.84184  -0.71441   0.12646
H    -0.75580  -2.04596   0.64945
H    -0.92525  -0.56056   1.64518
H     1.98321  -0.65486  -1.18105
