20
Generated by autodE on: 2022-10-21. E = -461.427440 Ha
C     2.77948  -0.14759   0.96886
O     1.73055  -0.95283   0.44245
C     0.62657  -0.33033  -0.01679
C     0.19371   0.94083  -0.12330
C     0.69062   2.29478   0.25925
C    -1.25676   0.75014  -0.65374
C    -2.10127   0.12570   0.48059
C    -1.64689  -1.12682   0.59338
C    -0.54055  -1.23119  -0.48164
O    -1.09595  -0.39971  -1.51297
H     3.57559  -0.83444   1.28444
H     3.17336   0.53866   0.20170
H     2.43279   0.43425   1.83807
H     0.63408   2.99131  -0.59574
H     0.05401   2.72758   1.05324
H     1.72443   2.29292   0.62472
H    -1.68631   1.60705  -1.18670
H    -2.84822   0.65176   1.07484
H    -1.91324  -1.90905   1.30345
H    -0.26390  -2.22996  -0.83830
