37
Generated by autodE on: 2022-10-21. E = -879.751550 Ha. Imaginary frequency = -268.6 cm-1
C     4.24089  -1.45726   0.80536
O     3.67734  -0.26347   1.34452
C     2.64354   0.29357   0.67314
C     2.14582   1.53428   0.82546
C     2.54640   2.63958   1.73638
C     0.85372   1.50579  -0.01794
O     1.25867   0.64043  -1.10541
C     1.66226  -0.45309  -0.26681
C     0.36274  -0.68103   0.53804
C    -0.15626   0.58278   0.69790
C    -1.99590   0.50441  -0.91953
C    -2.89739   1.49233  -0.36326
C    -2.49030   2.93052  -0.60691
O    -3.89713   1.24182   0.32329
N    -2.12807  -0.84351  -0.83893
C    -3.13583  -1.46003   0.03076
C    -1.03144  -1.56609  -1.17939
C    -0.98651  -2.97009  -1.04863
N    -0.86672  -4.12518  -0.92017
H     5.09461  -1.71673   1.44490
H     3.51526  -2.28684   0.82220
H     4.59534  -1.30221  -0.22704
H     3.50171   2.41786   2.23546
H     2.65148   3.59732   1.19771
H     1.78519   2.80272   2.52201
H     0.48343   2.47079  -0.38227
H     2.04799  -1.29607  -0.84918
H     0.18742  -1.55045   1.16969
H    -0.84105   0.91782   1.47516
H    -1.24347   0.84548  -1.62498
H    -1.90708   3.06029  -1.52864
H    -3.38942   3.56230  -0.63366
H    -1.86776   3.26872   0.23946
H    -4.12008  -1.04005  -0.18580
H    -3.14474  -2.54139  -0.14270
H    -2.88333  -1.25672   1.08278
H    -0.33220  -1.10680  -1.87603
