46
Generated by autodE on: 2022-06-21. E = -1143.386206 Ha
C     2.96821   1.89323  -2.72309
O     2.37974   1.57399  -1.45386
C     2.01478   0.31077  -1.25946
O     2.22688  -0.56601  -2.07471
C     1.39270   0.05247   0.12934
C     2.54772  -0.35943   1.05119
C     0.31137  -1.08652  -0.04501
N     0.71444  -2.40888   0.37498
C     1.13878  -3.33111  -0.66540
C     0.29955  -2.91451   1.58638
C    -0.48044  -2.25089   2.46528
C    -0.96517  -0.86411   2.18097
C    -0.96233  -0.53306   0.66286
C    -2.24727  -1.01924   0.00412
N    -2.49041  -2.33599   0.07966
O    -3.00837  -0.22874  -0.56839
C    -0.78479   1.00465   0.45873
C    -1.56933   1.74716   1.46231
N    -2.19090   2.33281   2.24636
C    -1.16199   1.49205  -0.98870
C    -2.08866   2.65685  -1.15357
O    -0.55784   1.00317  -1.92597
N     0.63769   1.17020   0.70512
C     1.15854   2.51966   0.82386
H     3.19989   2.96386  -2.68674
H     2.25398   1.68572  -3.53288
H     3.88540   1.30882  -2.88256
H     2.15233  -0.67725   2.02535
H     3.23530   0.48545   1.20161
H     3.11490  -1.19020   0.61032
H     0.08650  -1.14778  -1.11323
H     1.87948  -2.85148  -1.31775
H     1.59978  -4.21560  -0.20385
H     0.29135  -3.66874  -1.29231
H     0.64285  -3.93189   1.79197
H    -0.74180  -2.72277   3.41331
H    -1.98010  -0.71447   2.58099
H    -0.32242  -0.12242   2.68395
H    -3.36343  -2.69512  -0.29661
H    -1.91806  -2.93850   0.66691
H    -2.27020   2.83435  -2.22126
H    -3.03556   2.49578  -0.62212
H    -1.60845   3.54647  -0.71072
H     2.22972   2.48033   1.05621
H     0.65733   3.03133   1.66135
H     1.03197   3.13577  -0.08335
