26
Generated by autodE on: 2022-07-27. E = -685.646477 Ha
C     1.27264   0.77942  -2.74460
O     1.14069   0.57662  -1.32978
C     1.34157  -0.65891  -0.88497
O     1.78875  -1.56369  -1.55894
C     1.13416  -0.79065   0.59782
C     2.06152  -1.71615   1.30606
N     0.23967  -0.08368   1.25261
C     0.28592  -0.08179   2.72952
C    -0.88457   0.51812   0.64792
C    -1.43551   1.66055   1.25615
N    -1.91296   2.61922   1.72880
C    -1.55817  -0.13290  -0.44024
C    -2.88082   0.45092  -0.88432
O    -1.09764  -1.14431  -1.00109
H     0.56336   0.13403  -3.28205
H     2.29830   0.55795  -3.07220
H     1.03570   1.83484  -2.91956
H     2.50417  -2.40704   0.57966
H     1.54760  -2.28852   2.09089
H     2.88154  -1.15103   1.78382
H     1.31822   0.04274   3.07297
H    -0.32347   0.74719   3.10119
H    -0.12469  -1.02899   3.10623
H    -2.71414   1.44063  -1.34043
H    -3.33160  -0.21461  -1.63161
H    -3.57535   0.58929  -0.04254
