26
Generated by autodE on: 2022-06-21. E = -685.646836 Ha
C     3.38941   1.51356  -0.10418
O     2.60281   0.36244  -0.44889
C     1.53570   0.12898   0.30618
O     1.25394   0.75261   1.30808
C     0.80591  -1.11032  -0.13233
C     1.60137  -2.28551  -0.58858
N    -0.49497  -1.19100   0.02358
C    -1.14761  -2.50629  -0.12979
C    -1.33467  -0.06078   0.14552
C    -2.53161  -0.20196   0.87057
N    -3.52977  -0.28648   1.47642
C    -1.06243   1.12790  -0.60980
C    -2.11624   2.21271  -0.59937
O    -0.01048   1.28014  -1.25967
H     2.77213   2.42100  -0.16798
H     4.20297   1.55226  -0.83707
H     3.79406   1.41182   0.91268
H     1.64405  -3.05125   0.20591
H     2.62501  -1.98071  -0.82743
H     1.14601  -2.75560  -1.47312
H    -1.15168  -2.78634  -1.19248
H    -2.17870  -2.43554   0.22752
H    -0.60828  -3.26240   0.45110
H    -3.12185   1.82021  -0.80935
H    -1.85116   2.97504  -1.34332
H    -2.14662   2.68450   0.39690
