39
Generated by autodE on: 2022-06-21. E = -1043.635914 Ha
C    -1.59191   2.69502   1.52557
O    -1.50220   1.27022   1.34078
C    -1.34906   0.83258   0.09934
O    -1.40351   1.52439  -0.88927
C    -1.07728  -0.69638   0.07369
C    -2.08342  -1.37329   0.91148
N    -2.88217  -1.94989   1.52523
C     0.38560  -1.08537   0.61663
C     1.19649  -1.18006  -0.68244
C     1.60698   0.20201  -1.22422
C     1.79305   1.22654  -0.12891
C     2.23095   2.59895  -0.43585
N     2.56569   2.85477  -1.72338
O     2.27794   3.50448   0.42225
C     1.50499   0.94515   1.17193
N     0.96727  -0.23008   1.60242
C     0.58274  -0.41902   2.99279
C     0.17843  -1.86643  -1.60528
C     0.09620  -3.32620  -1.35626
N    -0.02897  -4.46234  -1.15327
N    -1.06193  -1.17654  -1.29252
C    -2.29520  -1.59664  -1.92248
H    -0.66359   3.17017   1.17648
H    -1.71925   2.84946   2.60250
H    -2.45169   3.09766   0.97304
H     0.28316  -2.08973   1.04726
H     2.07799  -1.81016  -0.51082
H     2.54154   0.07891  -1.79633
H     0.85080   0.56138  -1.94074
H     2.54636   2.14697  -2.44648
H     2.84352   3.79746  -1.97380
H     1.69716   1.69239   1.94336
H     1.20435   0.22207   3.63096
H     0.74444  -1.46727   3.28498
H    -0.47634  -0.16637   3.16393
H     0.43277  -1.73511  -2.66942
H    -2.12724  -1.70398  -3.00431
H    -3.06617  -0.82678  -1.77263
H    -2.68041  -2.55942  -1.53354
