20
Generated by autodE on: 2022-06-21. E = -457.715334 Ha
C    -3.10582  -0.18997   0.63274
N    -1.77470   0.31073   0.33015
C    -1.61965   1.62468  -0.12969
C    -0.43946   2.11426  -0.54148
C     0.83213   1.30208  -0.55207
C     0.56024  -0.11499  -0.07435
C     1.63366  -1.12037  -0.00900
N     2.86557  -0.70289  -0.39492
O     1.45356  -2.29505   0.37159
C    -0.68468  -0.50754   0.31688
H    -3.70990  -0.31962  -0.28176
H    -3.63406   0.50759   1.30005
H    -3.02408  -1.16035   1.13868
H    -2.53206   2.22358  -0.12411
H    -0.39680   3.15258  -0.87826
H     1.27261   1.29899  -1.57009
H     1.60222   1.79179   0.07915
H     3.63455  -1.36307  -0.36139
H     3.05271   0.24415  -0.69826
H    -0.85124  -1.53281   0.65129
