19
Generated by autodE on: 2022-07-27. E = -585.860070 Ha
C    -2.08511   2.11042   2.18645
O    -1.14386   1.14525   1.70199
C    -0.81846   1.22257   0.39901
O    -1.26954   2.07639  -0.34647
C     0.10821   0.14716   0.04077
C     0.45687  -0.79630   1.03162
N     0.77501  -1.54036   1.87337
N     0.66918   0.05249  -1.21171
C     0.72304   1.25995  -2.07352
C     1.21331  -1.04009  -1.73344
C     1.07047  -2.33872  -1.20467
N     0.95428  -3.44892  -0.86614
H    -2.22788   1.88277   3.24917
H    -1.69068   3.13005   2.06719
H    -3.04059   2.02332   1.64872
H     1.45893   1.07728  -2.86195
H     1.01156   2.12478  -1.46948
H    -0.26581   1.42834  -2.51242
H     1.76927  -0.93397  -2.66472
