54
Generated by autodE on: 2022-06-10. E = -1509.472989 Ha
C     2.80514   4.50225  -0.42601
N     1.95097   3.40698  -0.01135
C     1.80785   2.28411  -0.72214
O     2.33659   2.06087  -1.80975
C     0.85259   1.25292  -0.10204
O     0.64182   1.55865   1.31115
C    -0.63028   1.16059   1.58655
O    -1.21758   1.45842   2.56573
C    -1.09242   0.43930   0.29685
C    -2.57782   0.38116   0.12193
C    -3.30447  -0.74045   0.54119
C    -4.69625  -0.75902   0.41802
C    -5.36909   0.33819  -0.12609
C    -4.64509   1.46060  -0.54117
C    -3.25546   1.48616  -0.41268
O    -0.44462   1.34224  -0.63059
C    -0.24546  -0.88052   0.13969
C    -0.24329  -1.66565   1.44913
O    -0.05592  -1.13679   2.52726
O    -0.47980  -2.96092   1.30488
C    -0.44303  -3.76021   2.49925
C    -0.54500  -1.75999  -1.10849
C    -0.83318  -0.92142  -2.36953
C     0.55328  -0.31964  -2.72255
C     1.47580  -0.87723  -1.61757
C     0.87123  -2.28265  -1.42656
C     1.18484  -0.25597  -0.20236
C     2.33980  -0.63997   0.70554
O     2.49178  -1.72647   1.22274
O     3.22056   0.35216   0.80324
C     4.40221   0.11121   1.58516
H     3.73553   4.52618   0.16378
H     2.28122   5.45923  -0.29179
H     3.06156   4.37747  -1.48452
H     1.50161   3.45089   0.89839
H    -2.79653  -1.60954   0.96045
H    -5.25404  -1.63926   0.74488
H    -6.45662   0.31913  -0.22714
H    -5.16449   2.32243  -0.96617
H    -2.69016   2.36221  -0.73273
H    -0.64828  -4.78733   2.17835
H    -1.20881  -3.41785   3.20903
H     0.55096  -3.69239   2.96316
H    -1.30747  -2.51607  -0.90095
H    -1.60924  -0.16174  -2.22651
H    -1.18637  -1.60105  -3.15865
H     0.55694   0.77087  -2.78278
H     0.92007  -0.70464  -3.68568
H     2.54287  -0.82717  -1.86427
H     1.32780  -2.86080  -0.61544
H     0.90142  -2.87429  -2.35303
H     4.12674  -0.13042   2.62117
H     4.97871   1.04208   1.54906
H     4.98089  -0.71667   1.15224
