29
Generated by autodE on: 2022-06-10. E = -728.831038 Ha
C    -3.35343   2.00146   1.05474
O    -2.49084   0.88535   0.79285
C    -1.53185   1.06597  -0.12838
O    -1.38208   2.10699  -0.73678
C    -0.74894  -0.17681  -0.31156
C     0.59205  -0.34771  -0.45159
C     1.65702   0.67419  -0.38473
O     1.51718   1.87696  -0.50825
O     2.85180   0.10250  -0.15897
C     3.97706   0.98400  -0.06017
C     0.85497  -1.84504  -0.41429
C     0.61145  -2.27384   1.07044
C    -0.91909  -2.07506   1.23985
C    -1.36353  -1.56094  -0.17086
C    -0.42694  -2.37238  -1.08559
H    -3.89766   2.28786   0.14310
H    -4.05535   1.66555   1.82654
H    -2.77166   2.86122   1.41735
H     3.83747   1.69771   0.76486
H     4.84611   0.34501   0.13455
H     4.11579   1.53862  -0.99979
H     1.81896  -2.15919  -0.82730
H     1.20914  -1.66847   1.76593
H     0.89880  -3.32702   1.20313
H    -1.42828  -3.02506   1.45815
H    -1.18212  -1.35876   2.02972
H    -2.44203  -1.61212  -0.35660
H    -0.50729  -2.08865  -2.14521
H    -0.55592  -3.45953  -0.97784
