53
Generated by autodE on: 2022-06-04. E = -1741.315143 Ha
C     1.81514   7.54073   5.41764
C     0.40921   7.50850   5.93960
O     0.06355   8.04719   6.97376
C    -0.60528   6.65066   5.16267
O     0.06760   5.43097   4.84892
N    -0.39364   4.97899   3.56259
C    -1.25886   3.83497   3.75592
C    -2.63433   3.97850   3.97060
C    -3.42270   2.84161   4.16659
C    -2.83666   1.57268   4.16404
C    -1.45749   1.43744   3.96335
C    -0.66777   2.56769   3.75294
C    -0.95615   6.12695   2.94507
C    -1.07335   7.16686   3.79808
C    -1.70966   8.52781   3.71673
Cl   -0.37084   9.76806   4.17187
C    -2.82803   8.56814   4.77242
C    -3.90301   7.68133   4.58614
C    -4.96088   7.64342   5.49465
C    -4.96318   8.49197   6.60697
C    -3.89967   9.37582   6.79576
C    -2.83665   9.41343   5.88606
C    -2.27632   9.03359   2.38020
C    -1.30549   9.29860   1.22049
C    -1.23427   8.23211   0.13514
C    -0.53787   6.92581   0.48514
C    -1.28986   5.92854   1.45881
C    -0.84790   4.58629   1.01116
N    -0.50443   3.58373   0.54322
C    -2.75134   5.95577   1.24585
N    -3.89666   5.97473   1.07248
H     1.84005   7.55456   4.31950
H     2.34757   8.40600   5.83335
H     2.32238   6.61802   5.74650
H    -1.46849   6.49040   5.83415
H    -3.08689   4.96996   3.99128
H    -4.49741   2.95124   4.32740
H    -3.45502   0.68548   4.31808
H    -0.99877   0.44627   3.95981
H     0.40521   2.48214   3.57404
H    -3.91408   7.01176   3.72504
H    -5.78523   6.94532   5.33197
H    -5.78918   8.46183   7.32126
H    -3.88715  10.04336   7.66055
H    -2.00956  10.10110   6.05316
H    -3.07718   8.34588   2.07383
H    -2.78565   9.97256   2.63716
H    -0.29614   9.49388   1.61124
H    -1.62512  10.23391   0.73667
H    -0.66326   8.64760  -0.71054
H    -2.24198   8.02134  -0.26054
H     0.44984   7.09925   0.93593
H    -0.38103   6.36991  -0.44840
