21
Generated by autodE on: 2022-07-27. E = -553.703638 Ha
C     2.85194   2.53129   1.07900
C     1.35871   2.45392   1.26265
O     0.72045   3.29151   1.90685
C     0.64177   1.34294   0.66280
O     1.34861   0.52738  -0.07139
N     1.03341  -0.52230  -0.80378
C    -0.24664  -1.06235  -0.71294
C    -1.10632  -1.08093   0.41198
C    -2.30295  -1.79549   0.35955
C    -2.68216  -2.48186  -0.79839
C    -1.83198  -2.47845  -1.91209
C    -0.62460  -1.79209  -1.86653
H     3.10763   2.56995   0.00820
H     3.23081   3.42850   1.58492
H     3.33889   1.63533   1.49586
H    -0.43606   1.23823   0.77051
H    -0.83499  -0.58947   1.34388
H    -2.94887  -1.81218   1.24036
H    -3.63042  -3.02247  -0.83096
H    -2.11156  -3.02054  -2.81825
H     0.05669  -1.79786  -2.71935
