32
Generated by autodE on: 2022-06-04. E = -1187.478546 Ha
N    -4.30796   0.49723   0.52091
C    -3.53343  -0.30447   0.20542
C    -2.53269  -1.29842  -0.24201
C    -2.98254  -2.64106   0.17678
N    -3.32224  -3.70804   0.47357
C    -1.21229  -0.95204   0.29932
C    -0.10544  -0.46557   0.26911
C     1.09713   0.17111  -0.24155
Cl    2.28941  -1.22293  -0.63095
C     1.79106   1.12830   0.70555
C     1.24917   1.40811   1.96561
C     1.87351   2.32667   2.81602
C     3.04546   2.97030   2.41410
C     3.59395   2.68959   1.15666
C     2.97181   1.77513   0.30734
C     0.68283   0.83600  -1.58109
C    -0.16976  -0.01131  -2.54377
C    -1.71524   0.00340  -2.37682
C    -2.39955  -1.25636  -1.81795
H     0.33267   0.90863   2.28597
H     1.43943   2.53554   3.79648
H     3.53475   3.68638   3.07839
H     4.51404   3.18443   0.83734
H     3.41606   1.54899  -0.66362
H     1.60862   1.15033  -2.08402
H     0.14000   1.75633  -1.30926
H     0.04614   0.37790  -3.54986
H     0.20330  -1.04827  -2.54500
H    -2.14902   0.14030  -3.37843
H    -2.03105   0.89021  -1.80182
H    -3.41915  -1.35533  -2.21742
H    -1.83960  -2.15947  -2.10101
