53
Generated by autodE on: 2022-06-04. E = -1741.194507 Ha. Imaginary frequency = -216.8 cm-1
C     1.82388   7.54862   5.90225
C     0.34859   7.42434   6.15489
O    -0.26602   8.14082   6.94003
C    -0.39748   6.38693   5.42856
O     0.33106   5.47272   4.84187
N    -0.06668   4.51621   4.00953
C    -1.30771   3.89993   4.20319
C    -2.17217   3.97906   5.31937
C    -3.34453   3.22223   5.35065
C    -3.69408   2.38640   4.28671
C    -2.82319   2.27040   3.19571
C    -1.63933   2.99572   3.16500
C    -0.77020   6.36518   2.47465
C    -1.12066   7.25852   3.24050
C    -1.77959   8.53704   3.54005
Cl   -0.42615   9.72251   4.00428
C    -2.81439   8.42164   4.65569
C    -3.60385   7.26104   4.70073
C    -4.59146   7.11152   5.67552
C    -4.81256   8.12737   6.61082
C    -4.04155   9.29151   6.55814
C    -3.04730   9.43924   5.58611
C    -2.44280   9.08012   2.25249
C    -1.56648   9.20743   0.99724
C    -1.52079   8.02312   0.00820
C    -0.37222   7.01187   0.10751
C    -0.58475   5.81720   1.11549
C     0.58918   4.92647   1.00643
N     1.53018   4.26557   0.86723
C    -1.79720   5.07220   0.70699
N    -2.76875   4.55194   0.35004
H     2.02156   7.63708   4.82315
H     2.20989   8.42832   6.43241
H     2.34442   6.64440   6.25721
H    -1.45108   6.25019   5.64118
H    -1.93865   4.58670   6.18893
H    -3.99542   3.29779   6.22468
H    -4.62624   1.81843   4.31361
H    -3.06448   1.60159   2.36667
H    -0.94083   2.87546   2.33612
H    -3.43580   6.45965   3.97885
H    -5.18274   6.19334   5.70488
H    -5.58082   8.01065   7.37865
H    -4.20567  10.09134   7.28396
H    -2.43803  10.34271   5.56575
H    -3.30206   8.42125   2.04765
H    -2.85889  10.06279   2.52082
H    -0.54418   9.50308   1.28205
H    -1.97342  10.06267   0.43689
H    -1.42121   8.45472  -0.99934
H    -2.48998   7.49640   0.00222
H     0.56358   7.50456   0.40913
H    -0.20483   6.54668  -0.87503
