22
Generated by autodE on: 2022-07-27. E = -679.393157 Ha
C     3.45277   2.47847   0.29314
N     2.45125   1.48209   0.61853
C     1.49737   1.14241  -0.24798
O     1.38809   1.62074  -1.38982
C     0.48311   0.11823   0.19222
N    -0.47236   0.01605  -0.71807
C    -1.69187  -0.56605  -0.78110
C    -2.38256  -0.52579  -2.01865
N    -2.96244  -0.50405  -3.02973
C    -2.36657  -1.08450   0.34674
N    -2.96662  -1.47270   1.26806
C     0.66421  -0.74452   1.38138
C     0.21302  -2.17921   1.34070
O     1.30509  -0.32103   2.34181
H     2.99300   3.46498   0.12064
H     4.00465   2.19693  -0.61648
H     4.15765   2.55569   1.12916
H     2.40287   1.06585   1.54833
H    -0.20407   0.59523  -1.54436
H     1.06137  -2.78833   1.68749
H    -0.61700  -2.33262   2.04745
H    -0.10000  -2.52041   0.34554
