42
Generated by autodE on: 2022-06-23. E = -1137.087603 Ha. Imaginary frequency = -454.1 cm-1
C     4.30683   1.88177  -0.38841
N     3.46257   0.75455  -0.06478
C     2.41389   0.41921  -0.84572
O     2.25540   0.91054  -1.99047
C     1.46530  -0.60360  -0.35273
C     1.65438  -1.32228   0.85990
C     1.03415  -2.68592   1.07955
O     2.38277  -0.86225   1.78329
N     0.51073  -0.88976  -1.33997
C    -0.87522  -0.93486  -1.17882
C    -1.55060  -0.61092  -2.42867
N    -2.08426  -0.30512  -3.41245
C    -1.48466  -2.12775  -0.60122
N    -2.02472  -3.04967  -0.14963
C    -1.38768   0.51549   0.07573
C    -2.88667   0.64414  -0.21610
N    -3.73178  -0.22910   0.36146
O    -3.28184   1.53194  -0.97213
C    -0.59067   1.72218  -0.41368
C     0.46935   2.16820   0.53812
C     0.57691   1.71432   1.79719
N    -0.24088   0.67157   2.24111
C    -0.05955   0.19032   3.61609
C    -1.08227   0.06704   1.41748
H     3.76954   2.84439  -0.30008
H     4.68762   1.80570  -1.41734
H     5.16245   1.90007   0.29942
H     3.39613   0.40654   0.89380
H     1.77978  -3.29350   1.61371
H     0.14591  -2.62157   1.72571
H     0.76071  -3.19405   0.14713
H     0.78516  -0.36280  -2.17761
H    -4.71511  -0.17064   0.11328
H    -3.44111  -0.98737   0.96541
H    -0.12630   1.52886  -1.39600
H    -1.29077   2.55263  -0.60460
H     1.14346   2.96066   0.20809
H     1.30474   2.07725   2.52040
H    -0.79195  -0.59656   3.82578
H     0.95636  -0.20539   3.73002
H    -0.21173   1.02805   4.31041
H    -1.62697  -0.76699   1.86012
