23
Generated by autodE on: 2022-06-20. E = -609.135945 Ha
C    -3.70809   2.26690   1.87682
N    -3.52608   1.29087   0.82162
C    -2.27814   0.77069   0.56922
O    -1.24311   1.31764   1.02295
N    -2.32935  -0.34867  -0.20618
O    -0.99888  -0.86179  -0.32593
C    -0.07164  -0.06417  -0.69327
C     1.30010  -0.47581  -0.63359
C     1.68852  -1.69647  -0.03586
C     3.03022  -2.05459  -0.02040
C     3.99151  -1.20328  -0.58719
C     3.61427   0.01051  -1.17338
C     2.27194   0.37766  -1.19861
H    -4.71879   2.69143   1.80426
H    -3.58381   1.84351   2.89094
H    -2.98216   3.08386   1.76415
H    -4.29896   0.65356   0.65520
H    -0.34173   0.88977  -1.15424
H     0.93162  -2.34307   0.41064
H     3.33862  -2.99624   0.43794
H     5.04541  -1.48993  -0.56663
H     4.36952   0.66712  -1.60932
H     1.95875   1.32002  -1.65337
