46
Generated by autodE on: 2022-06-20. E = -960.663067 Ha. Imaginary frequency = -266.1 cm-1
C     4.49875  -2.49679  -0.07109
C     4.00176  -1.27630  -0.36845
C     4.64631  -0.39365  -1.40549
C     2.79307  -0.80174   0.30177
C     2.15345   0.36749   0.05471
C     0.90578   0.73058   0.70373
C    -0.50873  -0.24970  -0.77779
C    -0.41856  -1.65436  -0.44850
C     0.57388  -2.42697  -1.08285
C     0.75350  -3.76526  -0.72950
C    -0.05633  -4.34283   0.25176
C    -1.05200  -3.58026   0.88256
C    -1.23098  -2.24317   0.54366
O    -1.60088   0.40265  -0.47894
N    -1.47442   1.77165  -0.73151
C    -2.58121   2.43071  -0.24637
O    -2.59365   3.67819  -0.31827
N    -3.62016   1.73339   0.28365
C    -4.73621   2.41143   0.90758
C     0.37083   2.02688   0.74612
C    -0.49153   2.39000   1.91960
C     0.96547   3.16031  -0.03246
H     5.39144  -2.88722  -0.56765
H     4.01731  -3.13539   0.67590
H     5.54556  -0.86381  -1.82780
H     4.93238   0.58079  -0.97590
H     3.94716  -0.17939  -2.23112
H     2.36937  -1.47576   1.05381
H     2.55461   1.05462  -0.69473
H     0.57350   0.05277   1.49555
H     0.09586   0.16087  -1.58952
H     1.19581  -1.97230  -1.85433
H     1.53038  -4.35555  -1.21992
H     0.08506  -5.38961   0.53051
H    -1.68246  -4.03532   1.64969
H    -1.98750  -1.63943   1.04873
H    -3.51196   0.73552   0.42038
H    -5.14230   3.18764   0.24226
H    -4.45713   2.89763   1.85926
H    -5.52926   1.68035   1.11247
H    -1.12842   3.26053   1.71327
H     0.16141   2.65385   2.77227
H    -1.11745   1.54284   2.23661
H     1.79671   3.60691   0.54391
H     1.36410   2.83942  -1.00408
H     0.21511   3.94449  -0.20316
