39
Generated by autodE on: 2022-05-29. E = -898.162050 Ha
C     3.21485   1.83658  -2.49958
N     2.55929   1.40184  -1.28242
C     1.80693   0.29331  -1.24182
O     1.67145  -0.45984  -2.21211
C     1.18663  -0.04499   0.12407
C     2.09680  -1.12013   0.74896
N     1.22233   1.11528   1.02595
C     0.11692   1.24583   1.63933
C    -0.99446   0.28557   1.25111
C    -1.41009  -0.45249   2.44391
N    -1.79962  -0.86102   3.45985
C    -2.26252   0.98188   0.61196
C    -1.81165   2.21750  -0.18183
C    -1.01823   1.58860  -1.35995
C    -1.18870   0.06481  -1.15286
C    -2.59335  -0.00206  -0.52102
C    -0.33535  -0.48446   0.03215
C    -0.45006  -2.01554   0.10785
C    -0.38086  -2.79888  -1.17291
O    -0.56556  -2.58291   1.17988
H     3.79417   2.74334  -2.28730
H     2.47989   2.06048  -3.28999
H     3.89588   1.05978  -2.88014
H     2.57796   1.98147  -0.44861
H     3.10338  -0.70297   0.89155
H     2.17659  -1.99719   0.09281
H     1.70199  -1.43476   1.72391
H    -0.03884   2.01991   2.39877
H    -3.04675   1.17232   1.35388
H    -1.21911   2.92647   0.41217
H    -2.70094   2.75650  -0.53903
H     0.02720   1.91548  -1.37974
H    -1.45567   1.86653  -2.32923
H    -1.04165  -0.50318  -2.07458
H    -2.87784  -1.00380  -0.16553
H    -3.38236   0.37836  -1.18623
H     0.37747  -2.38029  -1.84685
H    -0.17314  -3.85125  -0.94092
H    -1.35458  -2.73473  -1.68586
