16
Generated by autodE on: 2022-07-26. E = -380.198935 Ha
C    -1.70931   1.05042   1.91167
N    -1.03098   0.21348   1.33485
C    -0.19358  -0.58189   0.77229
C     0.17843  -1.89787   1.38912
C     0.43690  -0.20225  -0.52167
O     1.22480  -0.98299  -1.07772
N     0.12030   1.00072  -1.04449
C     0.70813   1.46268  -2.28526
H    -2.80138   1.07243   1.74851
H    -0.08383  -2.73075   0.71690
H    -0.34098  -2.03833   2.34622
H     1.26579  -1.94836   1.56160
H    -0.50241   1.62018  -0.53793
H     0.53214   0.74145  -3.09862
H     0.25096   2.42131  -2.55935
H     1.79774   1.60516  -2.19270
