16
Generated by autodE on: 2022-05-29. E = -380.198690 Ha
C     2.53098  -1.50495   0.20710
N     1.75190  -0.59398  -0.00764
C     0.85638   0.32668  -0.07677
C     1.23990   1.77117  -0.23590
C    -0.55167  -0.14635   0.02631
O    -0.83193  -1.34423   0.18596
N    -1.50268   0.80941  -0.05908
C    -2.91031   0.47893   0.03315
H     2.93985  -2.09672  -0.63018
H     0.83325   2.19119  -1.17115
H     2.33242   1.87759  -0.25788
H     0.84863   2.37689   0.59873
H    -1.23794   1.77926  -0.18595
H    -3.49782   1.40078  -0.05563
H    -3.21381  -0.21267  -0.76934
H    -3.14784  -0.00069   0.99639
