45
Generated by autodE on: 2022-10-21. E = -1262.503879 Ha
C    -0.92753   3.00386   4.20361
N    -0.27999   2.06371   3.30753
C    -0.46721   2.12165   1.98865
O    -1.14789   2.96934   1.40919
C     0.23916   1.06332   1.15575
N     1.16214   1.57120   0.16884
C     1.63083   0.21903  -0.22822
C     2.71183   0.19908  -1.19760
N     3.61652   0.23022  -1.92048
C     2.00844  -0.35332   1.18575
O     2.88562  -1.10968   1.49818
O     1.11431   0.19338   2.02640
C     0.28396  -0.47030  -0.54322
C    -0.58415   0.08159   0.31609
C    -2.06254  -0.10681   0.39632
F    -2.47434   0.08278   1.72452
C    -2.83389   0.86529  -0.50020
C    -2.23682   1.08282  -1.89511
C    -2.00919  -0.17893  -2.75584
C    -0.57107  -0.70217  -2.88854
C     0.02867  -1.44829  -1.68040
O     1.23522  -2.00667  -2.15570
C     1.88319  -2.95227  -1.30993
O    -0.82028  -2.44730  -1.15867
C    -1.28701  -3.42827  -2.08193
H    -2.02346   2.92332   4.13118
H    -0.61967   2.78146   5.23179
H    -0.64343   4.03865   3.95923
H     0.30209   1.32325   3.68572
H     1.91482   2.10075   0.62465
H    -2.29421  -1.14565   0.13163
H    -2.87026   1.83066   0.02492
H    -3.86647   0.48881  -0.58084
H    -1.29543   1.64665  -1.80294
H    -2.93164   1.74974  -2.42830
H    -2.33444   0.04532  -3.78310
H    -2.67232  -0.98849  -2.41157
H    -0.52021  -1.40442  -3.73421
H     0.11302   0.12565  -3.13339
H     1.35153  -3.91630  -1.29750
H     2.88892  -3.10079  -1.72522
H     1.98139  -2.59519  -0.27378
H    -0.47625  -3.79314  -2.73050
H    -1.66545  -4.26528  -1.47951
H    -2.10532  -3.04520  -2.71162
