17
Generated by autodE on: 2022-10-21. E = -621.856144 Ha
C     1.69577  -2.58350   1.38565
N     1.15282  -2.79725   0.04943
C     0.45436  -1.95632  -0.72433
O     0.04163  -2.22731  -1.85708
C     0.13861  -0.59340  -0.20972
N    -0.52125   0.27650  -0.93732
C    -0.68734   1.45852  -0.23182
C    -1.34103   2.59811  -0.71531
N    -1.88096   3.56023  -1.09726
C    -0.07222   1.28378   1.03733
O     0.09351   1.94697   2.03379
O     0.43940  -0.07539   0.96963
H     2.40279  -1.74272   1.40527
H     2.23097  -3.49567   1.67383
H     0.90178  -2.39672   2.12217
H     1.31318  -3.70445  -0.38342
H    -0.84884   0.07236  -1.88404
