17
Generated by autodE on: 2022-10-26. E = -621.861787 Ha
C    -2.73806   1.34323   2.93920
N    -1.71151   0.69224   2.14962
C    -1.43993   1.02714   0.88202
O    -1.99157   1.90423   0.21427
C    -0.35239   0.23432   0.24903
N     0.06035   0.41908  -0.97975
C     1.08360  -0.47445  -1.27253
C     1.75385  -0.55078  -2.49843
N     2.32707  -0.63274  -3.51237
C     1.30039  -1.26689  -0.11339
O     2.03329  -2.17118   0.21002
O     0.32409  -0.74029   0.83182
H    -3.50440   0.61776   3.25196
H    -3.21069   2.12487   2.33378
H    -2.30095   1.80043   3.83975
H    -1.17160  -0.05753   2.57476
H    -0.33417   1.12767  -1.60181
