28
Generated by autodE on: 2022-10-21. E = -640.584328 Ha
C    -1.89329   2.88372  -1.22954
O    -0.65584   2.30431  -0.83079
C    -0.64248   0.89889  -0.69242
O    -0.90906   0.26076  -1.92143
C     0.01082   0.54252  -2.96780
C     0.67488   0.50770  -0.15037
C     1.45401  -0.15006   0.50616
C     1.87279  -1.08860   1.54178
F     3.02163  -1.79960   1.18488
C     0.71890  -2.07258   1.77397
C    -0.66344  -1.42590   1.99723
C    -1.53433  -1.10059   0.74969
C    -1.68827   0.37247   0.31665
H    -2.62287   2.90574  -0.40304
H    -2.33453   2.34952  -2.08585
H    -1.67253   3.91693  -1.53147
H     0.02563   1.61553  -3.21715
H     1.03355   0.22641  -2.69642
H    -0.31922  -0.02936  -3.84535
H     2.10835  -0.53895   2.46861
H     0.68377  -2.74654   0.90210
H     0.99021  -2.68447   2.64878
H    -1.23482  -2.13700   2.61272
H    -0.55200  -0.52348   2.62322
H    -2.55184  -1.45781   0.96912
H    -1.19633  -1.69702  -0.11347
H    -2.67009   0.50409  -0.16226
H    -1.65802   1.03627   1.19447
