45
Generated by autodE on: 2022-10-21. E = -1262.431019 Ha. Imaginary frequency = -340.3 cm-1
C    -1.25662   2.76598   4.20351
N    -0.33821   1.99599   3.38655
C    -0.22444   2.22025   2.07441
O    -0.72078   3.16628   1.45837
C     0.58357   1.22028   1.31385
N     1.19439   1.55563   0.16149
C     1.95148   0.47735  -0.21600
C     2.69962   0.41126  -1.41054
N     3.32859   0.36065  -2.38837
C     2.20850  -0.28894   0.99491
O     2.95316  -1.19654   1.26929
O     1.34463   0.28222   1.94293
C    -0.09432  -0.84363  -0.40214
C    -0.81004  -0.20004   0.39143
C    -2.24178   0.11414   0.59275
F    -2.51389   0.59460   1.88153
C    -2.74599   1.14300  -0.43149
C    -2.08019   1.11090  -1.81407
C    -2.03897  -0.24531  -2.56548
C    -0.63940  -0.84097  -2.79603
C    -0.09280  -1.69400  -1.63496
O     1.17118  -2.15069  -2.03581
C     1.79643  -3.07420  -1.15217
O    -0.94361  -2.78176  -1.30155
C    -1.27409  -3.67025  -2.36428
H    -2.30137   2.48136   3.99385
H    -1.03906   2.57887   5.26180
H    -1.14102   3.83846   3.99650
H     0.05550   1.13944   3.76586
H     0.78023   2.23276  -0.48063
H    -2.79497  -0.83385   0.50179
H    -2.57643   2.13565   0.01153
H    -3.83547   1.00623  -0.52383
H    -1.05569   1.50275  -1.72306
H    -2.61757   1.84605  -2.43319
H    -2.49525  -0.10837  -3.55703
H    -2.66980  -0.99160  -2.05558
H    -0.64056  -1.48672  -3.68670
H     0.09416  -0.04370  -2.99067
H     1.41697  -4.09757  -1.30587
H     2.87250  -3.05071  -1.37220
H     1.64402  -2.79704  -0.09831
H    -0.39103  -3.92506  -2.97107
H    -1.66014  -4.58686  -1.89666
H    -2.05471  -3.25240  -3.02139
