42
Generated by autodE on: 2022-05-30. E = -1181.894332 Ha
C     3.65789  -1.43088   2.29217
O     2.93963  -1.16712   1.07521
C     2.47892   0.06880   0.90168
O     2.64589   0.96833   1.69973
C     1.77680   0.26264  -0.45715
C     2.89725   0.36520  -1.50039
N     0.97627   1.48367  -0.44818
C    -0.34374   1.22944   0.08642
C    -0.41240   1.34931   1.56550
N    -0.44803   1.45968   2.71978
C    -1.42532   2.20800  -0.47333
C    -1.11191   2.91465  -1.75124
O    -2.45869   2.35509   0.14578
C    -0.64389  -0.27065  -0.34027
C    -1.35865  -1.01457   0.77464
O    -0.84785  -1.83648   1.50369
O    -2.62982  -0.62864   0.85931
C    -3.40974  -1.18348   1.93101
C    -1.40989  -0.42401  -1.71846
C    -1.65676  -1.91915  -1.87982
C    -0.45909  -2.43584  -2.17984
C     0.50010  -1.25461  -2.20242
O    -0.35644  -0.18718  -2.65012
C     0.74651  -0.86309  -0.71230
H     3.94912  -2.48626   2.24792
H     4.54861  -0.78986   2.35573
H     3.00992  -1.24877   3.16121
H     2.47411   0.61214  -2.48274
H     3.45560  -0.57870  -1.56893
H     3.59848   1.16438  -1.21611
H     1.44917   2.25632   0.02000
H    -0.71459   2.21913  -2.50216
H    -2.01126   3.42798  -2.11473
H    -0.31603   3.65250  -1.55624
H    -4.40772  -0.74155   1.83601
H    -2.96089  -0.91365   2.89766
H    -3.46306  -2.27720   1.83796
H    -2.26020   0.24611  -1.87438
H    -2.60147  -2.42459  -1.68321
H    -0.17021  -3.48069  -2.29317
H     1.39076  -1.34292  -2.82982
H     0.98819  -1.74517  -0.11554
