23
Generated by autodE on: 2022-05-30. E = -646.336742 Ha
C     3.69914   0.91222  -0.94189
O     2.35586   0.55147  -0.58729
C     2.17801  -0.63615   0.00144
O     3.07834  -1.41640   0.24702
C     0.75492  -0.90463   0.32423
C     0.36905  -2.18072   0.97643
N    -0.10156   0.03453   0.00446
C    -1.45481   0.17808   0.11383
C    -2.31755  -0.80695   0.63311
N    -3.09925  -1.57180   1.04480
C    -1.94491   1.46060  -0.37835
C    -3.42063   1.73408  -0.30250
O    -1.14092   2.28159  -0.83936
H     4.33485   0.94204  -0.04551
H     4.10950   0.18924  -1.66136
H     3.63317   1.90689  -1.39642
H    -0.14643  -1.99222   1.93175
H    -0.31697  -2.75945   0.33711
H     1.26543  -2.78090   1.16724
H     0.29487   0.88655  -0.43163
H    -3.76707   1.67834   0.74199
H    -3.98221   0.97495  -0.87007
H    -3.63234   2.73092  -0.70891
