19
Generated by autodE on: 2022-05-30. E = -535.503200 Ha
C     3.33712   1.48247  -0.55154
O     1.91948   1.28098  -0.61613
C     1.45453   0.11943  -0.13211
O     2.17525  -0.74699   0.33717
C    -0.00021   0.00104  -0.22180
C    -0.93816   0.90952  -0.53344
C    -2.27756   0.17981  -0.30457
C    -2.42048  -0.02239   1.22303
C    -1.49213  -0.93037   1.53636
C    -0.79128  -1.26046   0.19890
O    -1.90497  -1.15319  -0.70835
H     3.52245   2.47112  -0.98740
H     3.86491   0.70909  -1.12877
H     3.68493   1.45690   0.49163
H    -0.82012   1.95403  -0.81806
H    -3.14999   0.55343  -0.85073
H    -3.10626   0.52906   1.86504
H    -1.20882  -1.33382   2.50779
H    -0.27048  -2.21948   0.11638
