42
Generated by autodE on: 2022-05-30. E = -1181.833900 Ha. Imaginary frequency = -289.4 cm-1
C     3.25506  -1.75554   2.50227
O     2.99413  -1.19122   1.20733
C     2.26380  -0.07682   1.18445
O     1.88497   0.50095   2.18271
C     1.99243   0.38490  -0.21020
C     3.12225   0.26291  -1.19281
N     1.14952   1.42692  -0.39053
C    -0.07447   1.67767   0.15111
C    -0.43721   1.61415   1.52020
N    -0.91069   1.63901   2.58553
C    -0.97017   2.44178  -0.75372
C    -2.35192   2.76697  -0.27164
O    -0.56637   2.74647  -1.87359
C    -0.69443  -0.76582  -0.41491
C    -1.41765  -1.00780   0.82609
O    -0.92087  -1.44021   1.85564
O    -2.72120  -0.68864   0.72137
C    -3.52207  -0.85061   1.89916
C    -1.33058  -0.52625  -1.80244
C    -1.59753  -1.92653  -2.38699
C    -0.38516  -2.42713  -2.64887
C     0.60668  -1.32236  -2.23192
O    -0.15707  -0.14350  -2.54418
C     0.58076  -1.25569  -0.68882
H     3.84433  -2.66136   2.32151
H     3.82110  -1.04745   3.12369
H     2.30597  -2.00671   2.99749
H     3.44873  -0.78140  -1.27088
H     2.81513   0.61995  -2.18541
H     3.98658   0.85932  -0.85607
H     1.15399   1.80225  -1.34859
H    -2.29930   3.49383   0.55508
H    -2.93626   3.19134  -1.09719
H    -2.84315   1.86375   0.12096
H    -3.14386  -0.21064   2.70865
H    -3.51828  -1.89989   2.22822
H    -4.53720  -0.54669   1.61847
H    -2.12921   0.21594  -1.88017
H    -2.57865  -2.39128  -2.47760
H    -0.10264  -3.41279  -3.01734
H     1.58336  -1.32140  -2.72318
H     1.09955  -1.97939  -0.06275
