34
Generated by autodE on: 2022-07-27. E = -841.347224 Ha
C    -3.22770   3.28903   0.97766
C    -2.14770   2.68018   0.12053
O    -1.78431   3.21066  -0.94766
C    -1.51676   1.46435   0.56940
C    -1.82585   0.85865   1.79675
N    -2.12582   0.40866   2.83487
N    -0.49733   1.03293  -0.26737
C     0.28837  -0.01904  -0.30108
C     0.04260  -1.17733   0.58002
C     1.07020  -1.67623   1.39896
C     0.83709  -2.78068   2.21829
C    -0.41244  -3.41037   2.20908
C    -1.43160  -2.93016   1.38065
C    -1.21034  -1.81450   0.57350
C     1.40631  -0.02512  -1.25339
C     1.94171  -1.25092  -1.69981
C     2.98400  -1.27210  -2.62520
C     3.51361  -0.07520  -3.11834
C     2.99582   1.14763  -2.67656
C     1.95564   1.17634  -1.75005
H    -2.81075   3.61725   1.94365
H    -4.01791   2.55442   1.19802
H    -3.66215   4.15355   0.45950
H    -0.37492   1.74583  -1.00358
H     2.04626  -1.18750   1.39732
H     1.63468  -3.15418   2.86425
H    -0.59077  -4.27943   2.84650
H    -2.40492  -3.42524   1.36468
H    -2.00702  -1.43839  -0.07134
H     1.52503  -2.18917  -1.33228
H     3.38222  -2.22990  -2.96696
H     4.33352  -0.09415  -3.83983
H     3.41531   2.08618  -3.04513
H     1.59279   2.14153  -1.39036
