34
Generated by autodE on: 2022-07-01. E = -841.347388 Ha
C     4.18292  -2.20749  -0.02982
C     3.28539  -1.00485   0.09009
O     3.76734   0.13142   0.28035
C     1.86090  -1.16276  -0.04408
C     1.23693  -2.38525  -0.34028
N     0.76275  -3.42468  -0.59431
N     1.17622   0.04509   0.01418
C    -0.08950   0.39514   0.01088
C    -0.41558   1.82088  -0.12549
C    -1.63439   2.31497   0.38296
C    -1.94316   3.67065   0.28391
C    -1.04772   4.55499  -0.32649
C     0.16162   4.07472  -0.84147
C     0.47602   2.72060  -0.74741
C    -1.16057  -0.60778   0.16122
C    -1.14876  -1.49622   1.25047
C    -2.18391  -2.41646   1.41344
C    -3.22935  -2.46855   0.48622
C    -3.24622  -1.58636  -0.59986
C    -2.22437  -0.65038  -0.75682
H     3.64011  -3.16060   0.00703
H     4.93214  -2.17674   0.77549
H     4.72822  -2.15011  -0.98664
H     1.88192   0.79769   0.06421
H    -2.33128   1.63500   0.87392
H    -2.88743   4.03986   0.68982
H    -1.29419   5.61603  -0.40731
H     0.85819   4.75716  -1.33314
H     1.40748   2.35930  -1.18833
H    -0.33252  -1.45721   1.97438
H    -2.17292  -3.09755   2.26709
H    -4.03486  -3.19574   0.61153
H    -4.06178  -1.62529  -1.32527
H    -2.23852   0.04511  -1.59810
