26
Generated by autodE on: 2022-07-01. E = -689.460851 Ha
C     2.51833   1.94657   0.65144
O     2.01501   0.66708   1.04991
C     0.82985   0.29088   0.48529
C     0.73247  -0.69133  -0.45471
O     1.69776  -1.41394  -1.02229
C     3.08747  -1.19293  -0.75940
C    -0.62099  -1.09690  -0.97571
O    -0.68715  -1.97980  -1.81997
C    -1.83668  -0.41076  -0.46800
C    -3.16009  -0.84020  -1.02182
C    -1.72669   0.57090   0.46117
C    -2.92215   1.29320   0.99699
C    -0.38734   0.95063   1.00404
O    -0.28595   1.79988   1.88784
H     3.47285   2.08507   1.17633
H     2.69308   1.97334  -0.43704
H     1.82683   2.75472   0.93190
H     3.61868  -1.91379  -1.39380
H     3.32494  -1.37928   0.29582
H     3.38322  -0.17139  -1.03790
H    -3.66770   0.00386  -1.51741
H    -3.04218  -1.65415  -1.74674
H    -3.82896  -1.17895  -0.21367
H    -3.61605   0.58830   1.48484
H    -2.62928   2.05945   1.72411
H    -3.48595   1.77224   0.17969
