48
Generated by autodE on: 2022-06-22. E = -1132.158659 Ha
C    -5.49806   0.09214   0.70326
C    -4.38234   0.13440  -0.05279
C    -4.42075   0.53411  -1.50413
C    -3.08605  -0.20544   0.54454
C    -1.90748  -0.20388  -0.10296
C    -0.60311  -0.51425   0.55658
C     0.42059   0.64883   0.40031
C    -0.09330   2.04276   0.56553
C    -0.31416   2.56039   1.84930
C    -0.86603   3.83348   2.00498
C    -1.20695   4.59479   0.88190
C    -0.99115   4.07816  -0.39875
C    -0.43738   2.80485  -0.55820
N     1.08139   0.31849  -0.82990
C     1.57412  -0.98738  -0.38597
C     2.48325  -1.67175  -1.37201
O     2.75161  -1.22398  -2.46611
O     2.94391  -2.82307  -0.89564
C     3.81294  -3.58158  -1.75416
C     2.20160  -0.64186   0.97602
O     3.12961  -1.13747   1.56523
O     1.46366   0.37532   1.45181
C     0.20963  -1.73102  -0.05044
C    -0.38481  -2.27951  -1.35041
C     0.34928  -2.86100   0.96802
H    -6.47835   0.34475   0.28939
H    -5.45615  -0.19679   1.75793
H    -3.78807   1.41896  -1.68563
H    -5.44515   0.76742  -1.82680
H    -4.02785  -0.27014  -2.14816
H    -3.10267  -0.47199   1.60779
H    -1.86652   0.06485  -1.16101
H    -0.77109  -0.67536   1.62910
H    -0.05153   1.96618   2.72587
H    -1.03198   4.23240   3.00830
H    -1.64039   5.58994   1.00571
H    -1.25463   4.66718  -1.28017
H    -0.27598   2.40032  -1.55802
H     1.84837   0.96424  -1.03401
H     4.08157  -4.48111  -1.18944
H     4.71202  -2.99783  -1.99645
H     3.28733  -3.85286  -2.68055
H    -1.41554  -2.62209  -1.17928
H     0.20174  -3.14376  -1.69830
H    -0.40011  -1.52546  -2.14763
H     0.74705  -2.51057   1.93176
H     1.00598  -3.65737   0.59020
H    -0.64403  -3.29586   1.15795
