23
Generated by autodE on: 2022-06-22. E = -351.521382 Ha
C     3.63877   0.90277   0.49636
C     2.57563   0.12464   0.19628
C     2.75074  -1.31251  -0.22349
C     1.22335   0.67346   0.27610
C     0.07857  -0.00205   0.00387
C    -1.24010   0.59037   0.09825
C    -2.42792  -0.01528  -0.15478
C    -3.72052   0.73758  -0.01179
C    -2.57689  -1.44639  -0.58711
H     4.66101   0.51772   0.44482
H     3.50858   1.94590   0.80075
H     2.32713  -1.48797  -1.22636
H     2.22318  -1.99447   0.46395
H     3.81273  -1.59507  -0.24279
H     1.15009   1.72336   0.58445
H     0.14407  -1.04918  -0.30361
H    -1.26543   1.64196   0.40864
H    -4.38061   0.24544   0.72506
H    -4.27861   0.74184  -0.96537
H    -3.56277   1.77940   0.30374
H    -3.20272  -1.99981   0.13530
H    -3.10790  -1.49978  -1.55397
H    -1.62304  -1.97928  -0.69102
