25
Generated by autodE on: 2022-06-22. E = -780.623034 Ha
C     4.44382  -1.35012  -0.98224
O     3.09427  -0.96851  -0.69694
C     2.92496   0.15096   0.04325
O     3.85686   0.82336   0.46509
C     1.53436   0.43664   0.26036
N     0.48053  -0.33802  -0.22968
C    -0.67552   0.18135   0.12790
C    -2.01146  -0.29863  -0.16101
C    -3.12019   0.41421   0.33429
C    -4.41076  -0.03918   0.06905
C    -4.60721  -1.19974  -0.68667
C    -3.50643  -1.90983  -1.18152
C    -2.21226  -1.46619  -0.92381
O    -0.46708   1.28142   0.84498
C     0.96508   1.51212   0.97389
O     1.35686   2.47617   1.59814
H     4.96071  -0.56134  -1.54865
H     4.37976  -2.26405  -1.58452
H     4.99754  -1.54992  -0.05287
H     0.60573  -1.18440  -0.78306
H    -2.96190   1.31780   0.92398
H    -5.26827   0.51577   0.45494
H    -5.62025  -1.55297  -0.89137
H    -3.65868  -2.81565  -1.77172
H    -1.36239  -2.02819  -1.31576
