48
Generated by autodE on: 2022-06-22. E = -1132.116918 Ha. Imaginary frequency = -502.7 cm-1
C    -4.91901   1.60115   0.27327
C    -4.00755   0.83100  -0.35834
C    -4.06707   0.59267  -1.84399
C    -2.89766   0.25495   0.39854
C    -1.87016  -0.44750  -0.12529
C    -0.70012  -0.86696   0.65687
C     0.55734   0.65731   0.47290
C    -0.20582   1.88687   0.73147
C    -0.45576   2.28173   2.05431
C    -1.29632   3.36533   2.31418
C    -1.89869   4.05818   1.25887
C    -1.64749   3.66945  -0.06080
C    -0.80880   2.58663  -0.32564
N     1.14830   0.37332  -0.74764
C     1.91812  -0.75461  -0.49308
C     2.49781  -1.52823  -1.57676
O     2.25049  -1.32308  -2.75557
O     3.27287  -2.52856  -1.13958
C     3.81873  -3.39890  -2.14083
C     2.34359  -0.65551   0.88117
O     3.18366  -1.21863   1.55027
O     1.50144   0.30799   1.43577
C     0.07553  -2.01087   0.25362
C    -0.20386  -2.67567  -1.06813
C     0.62263  -2.92303   1.31421
H    -5.74479   2.07058  -0.26864
H    -4.85472   1.78376   1.35018
H    -3.17009   0.99949  -2.34076
H    -4.95319   1.06603  -2.28973
H    -4.09373  -0.48502  -2.07511
H    -2.89149   0.46801   1.47338
H    -1.85092  -0.64900  -1.19890
H    -0.82369  -0.76487   1.74011
H    -0.00062   1.72996   2.87800
H    -1.48680   3.66603   3.34681
H    -2.56340   4.90013   1.46485
H    -2.11598   4.20423  -0.88965
H    -0.63531   2.28235  -1.35920
H     0.58157   0.39716  -1.59453
H     4.40760  -4.14774  -1.59898
H     4.46274  -2.83621  -2.83182
H     3.01224  -3.88652  -2.70722
H    -1.18104  -3.18954  -1.01463
H     0.55601  -3.43605  -1.29788
H    -0.25843  -1.96771  -1.90680
H     0.81519  -2.40055   2.26122
H     1.54449  -3.42514   0.98472
H    -0.12360  -3.71386   1.51591
