22
Generated by autodE on: 2022-10-06. E = -757.847442 Ha
C     3.37280   0.55918  -0.23260
C     2.26311   0.56368   0.77971
O     2.19200   1.41278   1.66034
C     1.26588  -0.58690   0.78286
N     1.37203  -1.51928  -0.36631
N     0.07932  -1.63030  -0.98723
C    -0.89677  -1.26187   0.03973
C    -2.26707  -0.87102  -0.54004
O    -2.28061  -0.39409  -1.70585
O    -3.26053  -1.03044   0.21420
C    -0.20412  -0.11163   0.82527
C    -0.42467   1.23166   0.09921
O     0.35625   1.50551  -0.85547
O    -1.39279   1.93587   0.48248
H     3.99849   1.45325  -0.10705
H     2.95365   0.51728  -1.24679
H     3.98664  -0.34746  -0.10433
H     1.48940  -1.13026   1.71786
H     1.58421  -2.44254   0.00677
H     0.02175  -0.89078  -1.69084
H    -1.04082  -2.11151   0.72711
H    -0.59527  -0.03701   1.84721
