12
Generated by autodE on: 2022-10-06. E = -302.750358 Ha
C    -1.90531   1.41134  -0.03288
C    -0.95651   0.24424  -0.13725
O    -1.34121  -0.87947  -0.50369
C     0.42045   0.49205   0.21138
N     1.25800  -0.54691   0.12105
N     2.50888  -0.68053   0.34749
H    -1.94299   1.77655   1.00657
H    -2.91068   1.10752  -0.35274
H    -1.55271   2.24880  -0.65639
H     0.81242   1.45512   0.53826
H     0.77213  -1.40264  -0.19872
H     2.85694   0.24039   0.65572
