12
Generated by autodE on: 2022-10-13. E = -302.743199 Ha
C     0.39797   0.99405  -1.27787
C     0.42390   0.83593   0.22381
O     0.91109   1.72565   0.93807
C    -0.11458  -0.34426   0.85731
N    -0.67797  -1.42022   0.27984
N    -0.93439  -1.79191  -0.92252
H     0.86621   1.95128  -1.54246
H    -0.63757   0.98470  -1.65802
H     0.94746   0.17659  -1.77364
H    -0.07069  -0.39780   1.94458
H    -0.97635  -2.11664   0.97478
H    -0.61339  -1.05711  -1.56021
