10
Generated by autodE on: 2022-10-06. E = -455.046566 Ha
O    -0.98508   0.72788   1.00413
C    -1.56331  -0.08905   0.23289
O    -2.79927  -0.35522   0.24184
C    -0.73360  -0.82059  -0.79607
C     0.59594  -0.71131  -0.95623
C     1.56002   0.14958  -0.16108
O     1.83245   1.27835  -0.64615
O     2.07191  -0.37053   0.86347
H    -1.30023  -1.49182  -1.45184
H     1.07478  -1.30076  -1.75059
