22
Generated by autodE on: 2022-10-06. E = -757.776474 Ha. Imaginary frequency = -451.4 cm-1
C     2.17146   0.46483  -0.94977
C     1.97178   0.40747   0.54038
O     2.26654   1.37206   1.25625
C     1.43511  -0.79344   1.17527
N     1.19332  -1.98067   0.56609
N     0.48358  -2.15092  -0.53225
C    -1.22588  -1.05279  -0.07098
C    -1.61421  -0.56620  -1.46626
O    -0.70912  -0.39989  -2.33364
O    -2.84677  -0.41699  -1.66155
C    -0.83897  -0.20152   0.97517
C    -0.76938   1.30449   0.92058
O    -0.77170   1.88041  -0.20494
O    -0.71564   1.89398   2.03747
H     2.77821   1.34724  -1.19246
H     1.19562   0.54503  -1.45253
H     2.66663  -0.44485  -1.32534
H     1.65624  -0.87466   2.24225
H     1.12944  -2.77060   1.20951
H     0.62586  -1.37129  -1.18317
H    -1.77125  -1.95274   0.22848
H    -0.97271  -0.57928   1.99257
