39
Generated by autodE on: 2022-10-21. E = -840.053372 Ha
C     0.15121   2.45639   2.73282
O    -0.55345   1.22967   2.76209
C    -0.09763   0.28221   1.80789
C    -0.57864  -1.10332   2.25665
C     0.12729  -2.30097   1.60868
C    -0.20758  -2.57815   0.12935
C     0.82740  -2.18754  -0.92411
C     1.21259  -0.65424  -0.99551
C     1.78932  -0.41211  -2.33645
N     2.22118  -0.24650  -3.39938
C     2.32074  -0.37083  -0.05804
N     3.21637  -0.17108   0.65081
C     0.02950   0.27436  -0.77629
C    -0.51921   0.65266   0.39809
N    -1.64001   1.48488   0.19536
C    -2.91030   1.06413   0.78106
N    -1.73597   1.73991  -1.22372
C    -0.86655   0.75581  -1.90942
C    -1.66311  -0.36046  -2.58634
H    -0.27030   3.09733   3.52047
H     1.22823   2.30370   2.93329
H     0.04476   2.97217   1.76314
H     1.00413   0.27326   1.83524
H    -1.66683  -1.18756   2.10589
H    -0.40279  -1.13844   3.34333
H    -0.16647  -3.18584   2.19385
H     1.21810  -2.20912   1.74589
H    -0.34716  -3.66260  -0.00495
H    -1.17670  -2.12175  -0.12383
H     0.43215  -2.45456  -1.91380
H     1.76252  -2.75156  -0.78704
H    -3.66591   1.83656   0.58345
H    -3.27214   0.10327   0.36847
H    -2.79173   0.96861   1.86694
H    -1.31149   2.65832  -1.35526
H    -0.29179   1.29371  -2.67941
H    -0.99679  -1.07060  -3.10013
H    -2.34500   0.07005  -3.33616
H    -2.26056  -0.91548  -1.84724
