13
Generated by autodE on: 2022-10-26. E = -228.674056 Ha
C     0.44388  -1.36161  -1.96009
C     0.82307  -0.45023  -0.84642
N    -0.06544  -0.01380   0.02126
N     0.12989   0.71347   1.09473
C    -1.12498   1.12493   1.67909
H     0.77106  -0.96490  -2.93757
H     0.90966  -2.35948  -1.85593
H    -0.64771  -1.50720  -2.00180
H     1.85666  -0.13766  -0.68005
H    -1.03638  -0.31180  -0.18106
H    -0.96838   1.37735   2.73884
H    -1.90883   0.33779   1.64220
H    -1.56336   2.02819   1.20158
