26
Generated by autodE on: 2022-10-21. E = -611.264023 Ha
C     0.31632   2.62406  -3.15366
O    -0.81227   2.09917  -2.47908
C    -0.64184   0.76366  -2.05519
C     0.32197   0.58584  -0.95790
C     0.80948   0.12339   0.05004
C     0.81286  -0.66321   1.28922
C     0.47981   0.20409   2.44080
N     0.17927   0.87466   3.33656
C     2.11312  -1.31391   1.55156
N     3.12097  -1.85382   1.73853
C    -0.30368  -1.76955   1.11681
C    -1.67506  -1.24158   0.65896
C    -1.96901  -1.14976  -0.86544
C    -1.99281   0.24131  -1.52940
H     0.08237   3.66034  -3.43487
H     1.21258   2.62371  -2.50526
H     0.54738   2.04445  -4.06656
H    -0.30773   0.13672  -2.90548
H    -0.39016  -2.27699   2.08863
H     0.09546  -2.49632   0.39414
H    -1.88700  -0.27524   1.14708
H    -2.40419  -1.94571   1.08688
H    -2.97247  -1.57467  -1.01735
H    -1.28432  -1.81484  -1.41925
H    -2.67684   0.22687  -2.39214
H    -2.38201   0.99146  -0.82146
