39
Generated by autodE on: 2022-10-21. E = -839.945600 Ha. Imaginary frequency = -68.9 cm-1
C    -1.37979   1.71786   3.74794
O    -1.37289   1.13728   2.45938
C    -0.19177   0.40317   2.15323
C    -0.29115  -1.02628   2.72200
C     0.85464  -1.98626   2.36228
C     0.68803  -2.86383   1.09833
C     1.41000  -2.44454  -0.18780
C     0.63884  -1.43462  -1.11264
C    -0.60489  -2.06158  -1.61141
N    -1.58957  -2.56053  -1.96535
C     1.51121  -1.15538  -2.27772
N     2.23726  -0.93996  -3.15490
C     0.28675  -0.20598  -0.36714
C     0.01308   0.33890   0.70146
N     0.06565   2.72889   0.02678
C    -0.80802   3.62250   0.75737
N    -0.42719   2.43704  -1.15068
C     0.17133   1.69165  -2.06251
C    -0.54133   1.32432  -3.32020
H    -0.51437   2.39092   3.89373
H    -1.36859   0.96034   4.55220
H    -2.30405   2.30668   3.83736
H     0.68343   0.91441   2.59980
H    -1.25385  -1.44549   2.38510
H    -0.35142  -0.93327   3.81766
H     1.80798  -1.43195   2.31040
H     0.96517  -2.67716   3.21205
H    -0.38324  -3.02886   0.89134
H     1.09276  -3.85921   1.33721
H     1.62146  -3.33112  -0.80430
H     2.37391  -1.96847   0.04655
H    -0.54385   3.59464   1.82168
H    -0.69184   4.67238   0.42023
H    -1.88190   3.36337   0.66510
H    -1.42812   2.62925  -1.31825
H     1.25237   1.59412  -1.97283
H    -0.54456   0.23580  -3.49145
H    -0.05956   1.78064  -4.20270
H    -1.59134   1.65546  -3.28827
