10
Generated by autodE on: 2022-10-06. E = -455.051699 Ha
O    -2.27933  -1.07826   0.42413
C    -1.96524  -0.02112  -0.18920
O    -2.76777   0.76647  -0.76379
C    -0.50067   0.36156  -0.25999
C     0.50074  -0.36140   0.25995
C     1.96521   0.02110   0.18916
O     2.27941   1.07833  -0.42401
O     2.76765  -0.76665   0.76373
H    -0.26964   1.29627  -0.78212
H     0.26970  -1.29611   0.78204
