23
Generated by autodE on: 2022-10-06. E = -829.213309 Ha. Imaginary frequency = -438.6 cm-1
C     4.17045   0.69120  -0.02269
N     2.80074   0.77312  -0.49192
C     1.76473   0.75325   0.38753
O     1.93411   0.58480   1.60135
N     0.47879   0.96164  -0.11912
N     0.28998   0.62690  -1.39762
N    -0.94496   0.61726  -1.82027
C    -1.62810  -0.77076  -0.41508
C    -1.11315  -1.96984  -1.16246
O     0.15287  -2.10838  -1.19099
O    -1.94138  -2.72396  -1.73497
C    -0.96185  -0.31413   0.73240
C    -1.61444   0.68930   1.65946
O    -1.22087   0.70254   2.85579
O    -2.48911   1.45281   1.15836
H     4.83754   0.61308  -0.89053
H     4.31051  -0.19745   0.60958
H     4.46215   1.57724   0.56708
H     2.63812   1.10668  -1.43578
H     0.78774  -0.22633  -1.71327
H    -1.43672   1.35123  -1.29326
H    -2.67994  -0.50573  -0.54297
H    -0.17223  -0.93016   1.16467
