58
Generated by autodE on: 2022-06-26. E = -1417.432225 Ha
C     4.25069  -1.87863   2.09337
O     3.51682  -0.66965   2.33042
C     2.63403  -0.28101   1.37713
C     2.75518   0.93700   0.76255
O     3.75378   1.81065   0.88499
C     5.05002   1.43920   1.37162
C     1.68552   1.45857  -0.13354
O     1.81967   2.56247  -0.63573
C     0.43672   0.63095  -0.41393
C     0.08397   0.82892  -1.89401
C    -0.77428   1.11059   0.50540
C    -0.31584   1.21008   1.92444
N    -0.03565   1.19345   3.05094
C    -1.38280   2.44649   0.08853
C    -0.87902   3.65191   0.59408
C    -1.40254   4.87319   0.16229
C    -2.43942   4.90020  -0.77427
C    -2.94945   3.69862  -1.27635
C    -2.42391   2.47763  -0.84908
N    -1.68848  -0.00747   0.37204
C    -2.85378  -0.01887   1.23704
C    -0.94131  -1.26634   0.35927
C    -1.59522  -2.31843  -0.51353
C    -2.42717  -1.98183  -1.58885
C    -2.98865  -2.97959  -2.39186
C    -2.72417  -4.32716  -2.12903
C    -1.90159  -4.67157  -1.05079
C    -1.34677  -3.67303  -0.24713
C     0.53376  -0.87526  -0.02782
C     1.15514  -1.74561  -1.13845
C     1.44413  -1.13003   1.17816
O     1.25319  -2.08172   1.92499
H     4.86116  -2.04899   2.98920
H     4.90867  -1.75708   1.21761
H     3.57898  -2.73388   1.93826
H     5.03931   1.28541   2.45744
H     5.40839   0.53086   0.86536
H     5.70480   2.28321   1.11986
H     0.91612   0.48630  -2.52253
H    -0.08111   1.88927  -2.10920
H    -0.81465   0.26521  -2.16562
H    -0.07035   3.64221   1.32736
H    -0.99869   5.80559   0.56307
H    -2.85206   5.85471  -1.10917
H    -3.76306   3.71028  -2.00529
H    -2.81753   1.54060  -1.24193
H    -3.39920   0.93148   1.16117
H    -3.52938  -0.82551   0.91848
H    -2.59277  -0.19093   2.30099
H    -0.89740  -1.68837   1.37713
H    -2.64126  -0.93063  -1.78672
H    -3.63750  -2.70189  -3.22621
H    -3.16246  -5.10652  -2.75707
H    -1.69602  -5.72230  -0.83200
H    -0.70551  -3.94060   0.59659
H     1.26390  -2.78059  -0.78865
H     2.15081  -1.36415  -1.40671
H     0.52404  -1.75720  -2.03423
