32
Generated by autodE on: 2022-07-27. E = -727.920314 Ha
C    -2.04883  -0.72104   1.29504
N    -0.78975  -0.12338   0.81548
C     0.17023  -0.87510   0.29544
C     0.10313  -2.24099  -0.17716
C    -1.06338  -2.89539  -0.64050
C    -0.99969  -4.20669  -1.10807
C     0.21667  -4.89845  -1.13322
C     1.38422  -4.25590  -0.70414
C     1.33150  -2.94355  -0.24362
C    -0.65706   1.26144   0.94502
C    -1.41593   1.90279   1.93711
N    -2.03510   2.49243   2.74249
C     0.23426   2.07695   0.11160
C     0.67616   3.33346   0.58791
C     1.44480   4.18328  -0.20793
C     1.80557   3.80997  -1.50581
C     1.37619   2.56975  -1.99490
C     0.61107   1.71475  -1.20466
H    -2.83457  -0.60893   0.53614
H    -1.89148  -1.77624   1.53326
H    -2.35804  -0.19578   2.20529
H     1.13621  -0.37912   0.19894
H    -2.01709  -2.37120  -0.67122
H    -1.91062  -4.69098  -1.46754
H     0.25671  -5.92698  -1.49861
H     2.34171  -4.78099  -0.73399
H     2.24581  -2.44186   0.08226
H     0.40837   3.64590   1.59940
H     1.77045   5.14493   0.19685
H     2.41439   4.47093  -2.12659
H     1.64011   2.26154  -3.00984
H     0.29232   0.76064  -1.62706
