58
Generated by autodE on: 2022-06-26. E = -1417.385179 Ha. Imaginary frequency = -421.9 cm-1
C     4.41503  -2.09106   0.90714
O     3.16383  -1.68686   1.47117
C     2.43789  -0.81717   0.70061
C     2.50832   0.53913   0.83496
O     3.22843   1.23891   1.71222
C     3.71223   0.65802   2.92750
C     1.74621   1.43456  -0.10265
O     2.01488   2.64427  -0.10785
C     0.72967   0.83933  -0.95012
C     0.24302   1.67600  -2.09224
C    -1.04713   1.39863   0.69343
C    -0.26033   1.35634   1.89535
N     0.32838   1.32890   2.89982
C    -1.45862   2.73710   0.25673
C    -0.89934   3.86087   0.91274
C    -1.18151   5.15779   0.49155
C    -2.03200   5.37886  -0.59551
C    -2.58589   4.28189  -1.26175
C    -2.30232   2.98074  -0.85203
N    -1.67984   0.20290   0.39807
C    -3.05246   0.14539  -0.10096
C    -0.86367  -0.92048   0.46110
C    -1.36614  -2.30755   0.38072
C    -2.29003  -2.78151  -0.57240
C    -2.64858  -4.12976  -0.60088
C    -2.08884  -5.03373   0.30760
C    -1.15358  -4.58218   1.24320
C    -0.79281  -3.23552   1.27368
C     0.51317  -0.58683  -0.96672
C    -0.06876  -1.18075  -2.23212
C     1.57804  -1.42571  -0.33193
O     1.69517  -2.62394  -0.59186
H     4.26642  -2.62034  -0.04650
H     5.07091  -1.21948   0.74444
H     4.88488  -2.76971   1.63181
H     4.01418   1.50682   3.55484
H     4.57997   0.00897   2.74778
H     2.91516   0.09364   3.42939
H    -0.80163   1.46009  -2.34887
H     0.34359   2.74481  -1.87520
H     0.84201   1.45541  -2.99470
H    -0.23007   3.71703   1.76064
H    -0.73228   6.00162   1.01975
H    -2.25745   6.39598  -0.92331
H    -3.24277   4.43665  -2.12054
H    -2.73053   2.16101  -1.41990
H    -3.10478   0.08825  -1.19699
H    -3.53751  -0.74019   0.32574
H    -3.59578   1.02784   0.24947
H    -0.14137  -0.82210   1.27474
H    -2.71811  -2.11006  -1.31299
H    -3.36729  -4.47792  -1.34617
H    -2.37420  -6.08787   0.27952
H    -0.69994  -5.28089   1.94969
H    -0.04720  -2.88864   1.99275
H    -0.17711  -2.26660  -2.13994
H     0.59606  -0.97935  -3.08801
H    -1.05062  -0.74869  -2.46333
