27
Generated by autodE on: 2022-07-27. E = -665.781655 Ha
C    -2.83408  -1.91684   1.62532
N    -2.21998  -1.52852   0.36826
C    -0.89577  -1.36117   0.26320
O    -0.08856  -1.62468   1.15554
C    -0.40809  -0.87395  -1.08669
C    -0.78755  -1.62491  -2.31360
N     0.39615   0.15751  -1.13651
C     1.00048   0.52778  -2.43256
C     0.61323   1.02773  -0.02806
C    -0.50451   1.40650   0.73613
N    -1.43382   1.72107   1.37575
C     1.91313   1.43970   0.41466
C     3.15605   0.88368  -0.25099
O     2.03518   2.22828   1.37343
H    -2.37819  -2.84091   2.00900
H    -2.70713  -1.12631   2.38264
H    -3.90440  -2.08660   1.45949
H    -2.81306  -1.24653  -0.40743
H    -1.50195  -2.42126  -2.07911
H    -1.22816  -0.94954  -3.06589
H     0.10495  -2.08076  -2.77462
H     0.19563   0.72753  -3.15366
H     1.58780   1.43840  -2.30430
H     1.62785  -0.29048  -2.80777
H     3.95598   0.85456   0.50199
H     3.48534   1.55436  -1.06124
H     3.01602  -0.12149  -0.67105
