27
Generated by autodE on: 2022-06-24. E = -665.785224 Ha
C    -3.09038   2.02980   0.91772
N    -2.48727   0.70921   0.90104
C    -1.63236   0.34890  -0.06402
O    -1.37074   1.03765  -1.05160
C    -1.02808  -1.03301   0.08290
C    -1.93460  -2.20584   0.22653
N     0.26928  -1.17675   0.00194
C     0.83560  -2.54204  -0.02329
C     1.18991  -0.08967   0.04918
C     0.91099   0.97294   0.92206
N     0.69655   1.86296   1.65373
C     2.29056  -0.04180  -0.86889
C     3.21454   1.15540  -0.76170
O     2.48846  -0.91513  -1.73402
H    -3.62956   2.22278  -0.02130
H    -3.79646   2.08616   1.75448
H    -2.32055   2.80834   1.04197
H    -2.61733   0.09331   1.69911
H    -2.98170  -1.88632   0.25992
H    -1.70058  -2.76875   1.14619
H    -1.80468  -2.90134  -0.61884
H     0.48071  -3.07839  -0.91223
H     1.92332  -2.47583  -0.03812
H     0.50842  -3.07551   0.87946
H     2.69388   2.06867  -1.09374
H     3.54737   1.32648   0.27330
H     4.08699   0.99032  -1.40768
