14
Generated by autodE on: 2022-06-21. E = -270.683213 Ha
C    -0.74019  -1.39671  -0.15191
C    -0.82171   0.09767  -0.27810
C    -2.13207   0.65084  -0.74187
C     0.21646   0.93155   0.00503
C     1.53526   0.52310   0.46477
O     1.91490  -0.62585   0.67945
H     0.08074  -1.80048  -0.76499
H    -1.68255  -1.87304  -0.45643
H    -0.51240  -1.69003   0.88544
H    -2.93754   0.33013  -0.05787
H    -2.13069   1.74754  -0.80790
H    -2.38873   0.22889  -1.72959
H     0.07602   2.00973  -0.11520
H     2.24328   1.37177   0.62743
