29
Generated by autodE on: 2022-06-21. E = -837.095491 Ha
C    -1.99457   3.26182  -1.78268
N    -1.38056   2.11250  -1.15334
C    -2.13369   1.21772  -0.47986
O    -3.36295   1.33553  -0.37278
C    -1.41477   0.07264   0.13449
O    -0.11246  -0.11865   0.08486
N     0.76156   0.65174  -0.51002
C     2.04417   0.15674  -0.35921
C     3.05986   0.92738  -0.96656
C     4.38781   0.52108  -0.87495
C     4.71963  -0.64951  -0.18263
C     3.71068  -1.41577   0.42084
C     2.37892  -1.02612   0.34033
C    -2.10042  -0.99880   0.88522
O    -3.30098  -1.06049   1.07589
O    -1.24021  -1.92229   1.34517
C    -1.81238  -3.00944   2.08335
H    -2.51286   3.89359  -1.04314
H    -1.21394   3.85541  -2.27336
H    -2.73783   2.95502  -2.53623
H    -0.37187   1.96008  -1.19720
H     2.78365   1.83761  -1.50201
H     5.17010   1.12025  -1.34566
H     5.76209  -0.96680  -0.11137
H     3.97070  -2.32896   0.96090
H     1.59490  -1.62025   0.80899
H    -0.97170  -3.65029   2.37279
H    -2.52062  -3.57151   1.45713
H    -2.33327  -2.63822   2.97797
