43
Generated by autodE on: 2022-06-21. E = -1107.753030 Ha. Imaginary frequency = -302.5 cm-1
C     4.00513  -1.77370   1.66871
N     2.68044  -1.21573   1.47997
C     2.49728  -0.10971   0.74053
O     3.42293   0.58733   0.30874
C     1.07524   0.25363   0.43699
C     0.84921   1.67911   0.04849
O     1.29873   2.19526  -0.95196
O     0.14149   2.31530   0.98026
C    -0.14936   3.70433   0.73884
O     0.19685  -0.51215   1.05112
N    -1.07681  -0.85275   0.77706
C    -2.04422   0.11752   0.43251
C    -1.98483   1.13692  -0.54149
C    -3.10006   1.93239  -0.79326
C    -4.30008   1.72467  -0.10324
C    -4.38461   0.69338   0.83591
C    -3.27152  -0.10519   1.09286
C    -0.54570  -1.95696  -1.19025
C    -0.12531  -3.22622  -0.50720
C    -1.93753  -1.94893  -1.75392
C     0.38930  -1.03933  -1.67777
C     1.82533  -1.24287  -1.79270
O     2.46486  -2.23607  -1.45075
H     4.42191  -2.13633   0.71464
H     4.69009  -1.01693   2.07781
H     3.94065  -2.61257   2.37216
H     1.86727  -1.77804   1.71000
H     0.78403   4.28367   0.70999
H    -0.77641   4.02707   1.57693
H    -0.68889   3.82170  -0.21097
H    -1.10135   1.29577  -1.15120
H    -3.03272   2.71533  -1.55172
H    -5.16764   2.35512  -0.30994
H    -5.31837   0.50945   1.37177
H    -3.32093  -0.91428   1.82318
H     0.69547  -3.06524   0.20053
H    -0.97753  -3.68471   0.01306
H     0.23899  -3.94148  -1.26538
H    -2.21190  -0.98015  -2.18974
H    -2.68591  -2.23807  -1.00228
H    -1.97575  -2.70526  -2.55837
H     0.01894  -0.18278  -2.24545
H     2.35163  -0.38691  -2.27444
