34
Generated by autodE on: 2022-05-28. E = -1096.734004 Ha
C     0.46677   1.87493   2.57838
C     0.53853   0.55987   1.83872
O     1.05969  -0.41261   2.35506
C    -0.22771   0.47461   0.51869
C    -0.18206   1.77768  -0.32810
C     1.29756   2.12217  -0.63591
C     1.70511   1.06231  -1.69700
C     0.42614   0.22178  -1.85214
C    -0.66092   1.30040  -1.71290
C     0.17424  -0.60214  -0.56538
Cl    1.60092  -1.69634  -0.22676
C    -1.06590  -1.48058  -0.65788
C    -1.14571  -2.61101  -1.62922
N    -2.02350  -1.15775   0.12255
C    -1.67713  -0.00736   0.95340
C    -2.77490   1.04935   0.93452
H    -0.58947   2.14721   2.73535
H     0.96589   1.77023   3.55046
H     0.92546   2.69529   2.01008
H    -0.74402   2.60567   0.11723
H     1.36367   3.14261  -1.04075
H     1.94243   2.08535   0.25209
H     1.95309   1.53017  -2.66072
H     2.56514   0.45470  -1.38890
H     0.39838  -0.40076  -2.75506
H    -1.68544   0.90844  -1.73267
H    -0.56945   2.08179  -2.48170
H    -1.04971  -2.23517  -2.66098
H    -2.10412  -3.13641  -1.52925
H    -0.31970  -3.31946  -1.46686
H    -1.62387  -0.38440   1.98805
H    -2.95495   1.44916  -0.07265
H    -3.71361   0.60165   1.29420
H    -2.52225   1.88599   1.60123
