22
Generated by autodE on: 2022-05-28. E = -885.215173 Ha
C     2.62952  -1.13243   1.07843
C     1.91452  -0.21043   0.12289
O     2.49705   0.29570  -0.83366
C     0.49394   0.05272   0.40318
C    -0.44744   0.56681  -0.42941
Cl   -0.28085   1.06908  -2.06957
C    -1.80619   0.44860   0.21967
C    -2.13654  -1.08192   0.20109
C    -1.09320  -1.67654   1.18856
C    -0.28361  -0.41820   1.63517
C    -1.40267   0.64129   1.69573
H     2.67161  -0.67357   2.08003
H     3.64922  -1.32377   0.71958
H     2.08126  -2.08201   1.18645
H    -2.58367   1.09580  -0.20200
H    -2.06242  -1.49701  -0.81392
H    -3.16579  -1.23552   0.55640
H    -1.58308  -2.13834   2.05850
H    -0.44450  -2.43281   0.72483
H     0.31862  -0.55951   2.53964
H    -2.20985   0.38209   2.39709
H    -1.02842   1.65280   1.91028
