40
Generated by autodE on: 2022-06-18. E = -919.231329 Ha
C     3.68868   2.00285  -1.61502
O     2.65693   1.41455  -0.81530
C     2.52195   0.08334  -0.91491
O     3.21476  -0.62038  -1.63948
N     1.56490  -0.40971  -0.07434
C     0.97404  -1.71143  -0.33432
C     1.26322  -2.72398   0.75106
O     1.73882  -2.45940   1.83432
C    -0.54261  -1.36657  -0.47393
C    -1.48188  -2.53971  -0.20427
C    -0.79111  -0.80742  -1.87874
C    -0.64133  -0.27441   0.63282
C    -1.85573   0.62020   0.55232
C    -1.84820   1.81276  -0.18522
C    -3.00270   2.59369  -0.28363
C    -4.18197   2.19278   0.35325
C    -4.19634   1.00828   1.09636
C    -3.03899   0.23136   1.19805
N     0.62471   0.47220   0.54624
C     1.09441   0.94272   1.84275
H     3.50345   1.82465  -2.68426
H     3.65555   3.07808  -1.40291
H     4.67318   1.59542  -1.34234
H     1.36723  -2.12436  -1.27367
H     1.00590  -3.77332   0.47926
H    -1.29251  -3.35990  -0.91346
H    -1.37663  -2.93214   0.81860
H    -2.52622  -2.21815  -0.33295
H    -0.61410  -1.59366  -2.62808
H    -0.13151   0.04168  -2.11085
H    -1.83102  -0.46579  -1.98095
H    -0.68793  -0.81321   1.59819
H    -0.92595   2.12643  -0.67485
H    -2.98106   3.52196  -0.86003
H    -5.08379   2.80506   0.27725
H    -5.10955   0.69157   1.60608
H    -3.04881  -0.68676   1.79074
H     0.31805   1.59207   2.27294
H     1.29988   0.11282   2.54415
H     2.00652   1.54156   1.71447
