14
Generated by autodE on: 2022-06-18. E = -270.683220 Ha
C    -1.11825   0.48105  -1.02145
C    -0.78427  -0.32870   0.19862
C    -1.92414  -1.05316   0.84219
C     0.47081  -0.41988   0.71788
C     1.65986   0.23471   0.19328
O     1.71892   0.98024  -0.78191
H    -0.50247   0.17458  -1.88130
H    -2.17998   0.37995  -1.28643
H    -0.89476   1.54740  -0.85589
H    -2.71407  -0.33430   1.12274
H    -2.38778  -1.74372   0.11584
H    -1.61900  -1.61911   1.73314
H     0.63042  -1.03407   1.60893
H     2.59222   0.01020   0.76637
