26
Generated by autodE on: 2022-06-18. E = -648.508782 Ha
C    -3.20782   1.53156  -0.58060
O    -2.28221   0.45227  -0.50014
C    -2.04350  -0.05506   0.75644
O    -2.60417   0.42578   1.74773
N    -1.15588  -1.05465   0.81050
N    -0.67643  -1.49221  -0.40171
C    -1.53128  -2.45402  -1.11103
C     0.49383  -1.17589  -0.87415
C     1.47011  -0.23798  -0.35335
C     1.33070   0.54475   0.81619
C     2.34929   1.41789   1.19294
C     3.51217   1.53382   0.42306
C     3.66235   0.76492  -0.73615
C     2.65270  -0.11266  -1.11938
H    -2.85888   2.40028  -0.00114
H    -4.20216   1.23534  -0.21196
H    -3.27446   1.80055  -1.64298
H    -1.04675  -2.78701  -2.03609
H    -2.48449  -1.96016  -1.34128
H    -1.71679  -3.30780  -0.44545
H     0.77020  -1.69926  -1.79213
H     0.43471   0.45501   1.42373
H     2.23362   2.01712   2.09866
H     4.30222   2.22437   0.72710
H     4.56796   0.85041  -1.34021
H     2.76700  -0.71500  -2.02323
