40
Generated by autodE on: 2022-06-18. E = -919.162202 Ha. Imaginary frequency = -427.5 cm-1
C     3.98030   2.27481   0.05433
O     2.72539   1.65246   0.35361
C     2.28471   0.73791  -0.53431
O     2.89759   0.45022  -1.55363
N     1.04646   0.23655  -0.23892
C     0.21990  -1.68155  -0.92989
C     1.55235  -2.26915  -0.98817
O     2.10710  -2.94974  -0.12615
C    -0.77650  -1.91017   0.06566
C    -0.50639  -2.88097   1.20512
C    -2.19811  -2.02661  -0.46228
C    -0.76762  -0.11818   1.04680
C    -1.77893   0.73225   0.37032
C    -1.58746   1.39478  -0.85699
C    -2.61093   2.16658  -1.41051
C    -3.84668   2.28211  -0.76538
C    -4.05123   1.62143   0.44936
C    -3.02712   0.85652   1.00957
N     0.57383   0.18665   0.99754
C     1.44802  -0.20241   2.11940
H     3.92515   2.82356  -0.89719
H     4.17408   2.97112   0.87895
H     4.78253   1.52468  -0.00337
H    -0.11421  -1.26410  -1.88176
H     2.07972  -2.06534  -1.94763
H    -0.47243  -3.91392   0.81847
H     0.44372  -2.69643   1.71521
H    -1.32150  -2.83074   1.94294
H    -2.35669  -3.04935  -0.84506
H    -2.39771  -1.32203  -1.28060
H    -2.93838  -1.85491   0.33253
H    -1.08011  -0.42056   2.04742
H    -0.63702   1.29759  -1.37698
H    -2.44238   2.67680  -2.36202
H    -4.64532   2.88193  -1.20812
H    -5.01058   1.70338   0.96569
H    -3.19059   0.34705   1.96222
H     1.92340   0.69113   2.54356
H     0.84561  -0.68850   2.89395
H     2.22369  -0.89279   1.76552
