52
Generated by autodE on: 2022-06-25. E = -1280.853719 Ha
C     2.04296   4.87249   1.92092
O     1.36130   3.68337   1.48727
C     2.00250   2.53320   1.66106
O     3.11317   2.42989   2.14377
C     1.21590   1.34550   1.19681
N    -0.05833   1.35629   1.14571
C    -0.54179   0.02654   0.70476
C    -1.77262  -0.33714   1.53716
C    -1.90997  -1.55940   2.20567
C    -3.07934  -1.85520   2.91791
C    -4.12304  -0.93082   2.97635
C    -3.99312   0.29536   2.31291
C    -2.83126   0.58450   1.59803
C    -0.93258   0.10710  -0.77904
C    -0.42699   1.10528  -1.62251
C    -0.67399   1.06565  -2.99780
C    -1.43718   0.03354  -3.54894
C    -1.98122  -0.94159  -2.70777
C    -1.73826  -0.89821  -1.33435
C     0.69503  -0.91495   0.94622
C     0.79981  -2.19627   0.11824
C     1.31433  -1.91861  -1.27155
C     0.97639  -2.74595  -2.43153
N     0.27971  -3.88729  -2.18900
O     1.29219  -2.44769  -3.60425
C     2.08003  -0.81228  -1.49049
N     2.43961   0.09982  -0.55584
C     3.22715   1.26284  -0.92489
C     1.89391   0.03817   0.80746
H     2.99458   4.98302   1.38160
H     1.37164   5.70597   1.68628
H     2.23618   4.82840   3.00225
H    -1.11407  -2.30321   2.17721
H    -3.16839  -2.81695   3.42875
H    -5.03389  -1.16197   3.53373
H    -4.80309   1.02790   2.35094
H    -2.73815   1.53816   1.07587
H     0.18561   1.91013  -1.21782
H    -0.25868   1.84499  -3.64125
H    -1.61694  -0.00488  -4.62582
H    -2.58908  -1.74887  -3.12284
H    -2.16177  -1.66996  -0.69033
H     0.66005  -1.18134   2.00995
H    -0.18800  -2.67749   0.08392
H     1.46067  -2.90096   0.65413
H     0.03152  -4.19063  -1.25663
H     0.01671  -4.46909  -2.97613
H     2.45007  -0.61178  -2.49766
H     4.02762   1.43968  -0.19087
H     3.68778   1.09185  -1.90613
H     2.61087   2.17723  -0.99401
H     2.70444  -0.20411   1.51235
