20
Generated by autodE on: 2022-06-25. E = -457.715318 Ha
C    -3.10636  -0.64426  -0.21084
N    -1.75872  -0.41843   0.28506
C    -1.52230  -0.42895   1.66539
C    -0.31252  -0.18917   2.19538
C     0.90822   0.11237   1.36134
C     0.55178   0.12279  -0.11654
C     1.56440   0.40838  -1.14539
N     2.81995   0.65303  -0.69263
O     1.31668   0.43307  -2.36848
C    -0.71661  -0.13414  -0.54475
H    -3.79542   0.14542   0.13194
H    -3.49409  -1.61525   0.13626
H    -3.09452  -0.64542  -1.30787
H    -2.39784  -0.64818   2.27917
H    -0.20666  -0.21685   3.28230
H     1.34834   1.08286   1.66956
H     1.70519  -0.63044   1.57167
H     3.54989   0.85197  -1.36792
H     3.06082   0.63491   0.28996
H    -0.94358  -0.12068  -1.61190
