32
Generated by autodE on: 2022-06-25. E = -823.056223 Ha
C     5.07821  -1.17819   0.27031
O     3.80410  -1.05383  -0.38666
C     3.17994   0.11751  -0.25885
O     3.61334   1.08078   0.34913
C     1.94099   0.17430  -1.04085
N     0.80314   0.07229  -0.60728
C    -0.42726   0.06592  -0.23386
C    -0.98862   1.33959   0.27216
C    -2.35907   1.63425   0.14426
C    -2.86270   2.85710   0.59065
C    -2.01157   3.80504   1.16734
C    -0.64629   3.52437   1.28975
C    -0.13726   2.30366   0.84797
C    -1.19044  -1.19835  -0.33590
C    -2.23168  -1.49561   0.56284
C    -2.92384  -2.70409   0.46559
C    -2.59003  -3.63284  -0.52496
C    -1.54990  -3.34866  -1.41709
C    -0.85386  -2.14420  -1.32288
H     5.42834  -2.19358   0.05287
H     4.96767  -1.03879   1.35519
H     5.78708  -0.43750  -0.12660
H    -3.03053   0.91405  -0.32426
H    -3.92789   3.07269   0.47940
H    -2.40995   4.75950   1.51886
H     0.02661   4.25858   1.73871
H     0.92838   2.08934   0.95310
H    -2.49004  -0.78870   1.35191
H    -3.72633  -2.92278   1.17383
H    -3.13557  -4.57626  -0.59979
H    -1.28144  -4.06857  -2.19367
H    -0.04359  -1.92774  -2.02246
