52
Generated by autodE on: 2022-06-25. E = -1280.763947 Ha. Imaginary frequency = -409.5 cm-1
C     2.78646   4.77243   0.39283
O     1.87446   3.67316   0.22414
C     1.56578   2.97894   1.32387
O     1.95152   3.24300   2.44799
C     0.80928   1.76470   1.01134
N    -0.37893   1.58860   0.76762
C    -1.19559   0.55766   0.49496
C    -2.07879   0.12552   1.60446
C    -2.59234  -1.18610   1.67163
C    -3.37659  -1.58832   2.75223
C    -3.66532  -0.69703   3.79207
C    -3.15308   0.60209   3.74204
C    -2.36955   1.01016   2.66057
C    -1.52136   0.35137  -0.93291
C    -0.64234   0.84000  -1.92501
C    -0.88908   0.61542  -3.27682
C    -2.01863  -0.10569  -3.67897
C    -2.91052  -0.57624  -2.71168
C    -2.67041  -0.34682  -1.35526
C     0.62161  -1.07522   0.92087
C     0.47505  -1.97411  -0.28289
C     1.37323  -1.50776  -1.40830
C     1.15670  -1.91511  -2.80288
N     0.12688  -2.77594  -3.02942
O     1.86876  -1.52374  -3.74968
C     2.43138  -0.69084  -1.14865
N     2.72161  -0.17989   0.08212
C     3.78332   0.80782   0.20714
C     1.72717  -0.25222   1.08662
H     2.93604   5.19298  -0.60787
H     3.74132   4.41313   0.80313
H     2.35634   5.52901   1.06407
H    -2.34690  -1.90692   0.89199
H    -3.75692  -2.61199   2.78695
H    -4.28159  -1.01565   4.63586
H    -3.36857   1.30871   4.54713
H    -1.98484   2.03070   2.62499
H     0.24418   1.40189  -1.63250
H    -0.18137   0.98755  -4.02049
H    -2.20559  -0.29147  -4.73901
H    -3.80646  -1.12485  -3.01151
H    -3.39304  -0.70607  -0.62452
H     0.07255  -1.34360   1.82171
H     0.71358  -3.02267  -0.00470
H    -0.57801  -2.00254  -0.61091
H    -0.58272  -2.93022  -2.32281
H    -0.15207  -2.91355  -3.99550
H     3.10548  -0.39754  -1.95546
H     3.99519   0.98341   1.27002
H     3.50977   1.76833  -0.25971
H     4.69950   0.43678  -0.27324
H     2.08281   0.00323   2.08547
