32
Generated by autodE on: 2022-05-29. E = -1332.326544 Ha
C     3.51488  -2.41637  -0.69817
N     2.49063  -1.40329  -0.55073
C     1.30753  -1.69526   0.01311
O     1.01814  -2.82504   0.42473
C     0.30983  -0.57910   0.08528
C    -0.70669  -0.48117   0.95984
Cl   -0.97976  -1.47593   2.33749
C    -1.61948   0.69093   0.66188
C    -3.10402   0.28820   0.52541
C    -3.92773   0.26313   1.77114
O    -3.55197   0.06279  -0.58222
N    -1.12532   1.20666  -0.61523
C     0.19797   0.61716  -0.88191
C     0.30400   0.18295  -2.28365
N     0.37120  -0.15234  -3.39127
C     1.33964   1.65835  -0.62947
O     2.52206   1.35652  -0.83509
N     0.92028   2.83584  -0.18547
C     1.82181   3.93240   0.10964
H     4.36326  -1.98620  -1.24462
H     3.87095  -2.78033   0.28008
H     3.13277  -3.28378  -1.25847
H     2.69631  -0.42287  -0.77952
H    -1.53831   1.43467   1.47407
H    -3.38547  -0.20391   2.60494
H    -4.11475   1.31228   2.06106
H    -4.88487  -0.24193   1.58971
H    -1.78791   0.90204  -1.33358
H    -0.09183   2.95614  -0.15052
H     1.33270   4.62148   0.80922
H     2.09299   4.48717  -0.80338
H     2.74279   3.54599   0.56644
