11
Generated by autodE on: 2022-05-29. E = -745.105206 Ha
C    -2.29342   1.45709   0.16447
N    -2.26647   0.22821  -0.60460
C    -1.22474  -0.60395  -0.79473
O    -1.29463  -1.63151  -1.48004
C     0.03056  -0.24272  -0.14242
C     1.11113  -0.01656   0.36156
Cl    2.56960   0.29441   1.04520
H    -3.08272   1.41600   0.93056
H    -2.48464   2.32556  -0.48532
H    -1.33053   1.60571   0.66781
H    -3.12031  -0.05320  -1.08276
