21
Generated by autodE on: 2022-07-26. E = -587.122713 Ha
C     2.27872   2.59969   1.10846
N     1.30939   1.64029   0.61088
C     1.70102   0.59638  -0.15201
O     2.89074   0.38758  -0.42906
C     0.66641  -0.31759  -0.68792
C     1.05731  -1.13181  -1.77872
N     1.37028  -1.80290  -2.68089
N    -0.59179  -0.48608  -0.23095
C    -1.29577  -0.02039   0.78692
C    -2.66205  -0.53071   0.88162
C    -3.48506  -0.05980   2.04359
O    -3.08814  -1.31309   0.02615
H     3.09530   2.08036   1.62939
H     1.77778   3.27393   1.81393
H     2.71993   3.19833   0.29400
H     0.33160   1.90830   0.63051
H    -1.17062  -1.15044  -0.77707
H    -0.86964   0.65522   1.52301
H    -2.97719  -0.30940   2.98965
H    -3.58096   1.03812   2.01126
H    -4.47958  -0.52281   2.01734
