53
Generated by autodE on: 2022-10-22. E = -1483.645999 Ha
C    -2.37584   1.71670   8.55712
O    -2.02280   0.34565   8.46650
C    -1.45616  -0.10796   7.24826
O    -2.37660   0.11524   6.19516
C    -3.67686  -0.43644   6.37927
C    -0.17713   0.71116   6.94526
C     1.03067   0.01559   6.32871
C     0.90118  -0.41392   4.86955
C    -0.28763  -1.29666   4.49228
C    -0.40553  -2.67586   5.20079
C     0.93472  -3.42422   5.05250
C     1.26457  -4.12720   3.88335
C     2.50944  -4.74709   3.75077
C     3.45509  -4.66732   4.77592
C     3.14277  -3.95851   5.93755
C     1.89687  -3.34424   6.07132
C    -1.56816  -3.43262   4.48628
F    -1.49278  -3.36989   3.14516
F    -1.61693  -4.73795   4.80548
F    -2.75944  -2.90339   4.81902
C    -0.82265  -2.59759   6.67014
C    -1.23441  -1.60342   7.48787
C    -1.42401  -2.20822   8.89853
C    -0.20945  -1.89871   9.78466
C    -2.67329  -1.82737   9.58086
N    -3.65516  -1.66305  10.17637
N    -1.54041  -3.66888   8.64342
N    -0.88575  -3.83587   7.38852
C    -0.24480  -4.98165   7.20620
N     0.23548  -6.04277   7.11457
H    -2.89412   2.06365   7.65012
H    -1.49640   2.35692   8.73623
H    -3.05782   1.80428   9.41461
H    -4.19063  -0.35784   5.41196
H    -4.24734   0.12220   7.13811
H    -3.63484  -1.49566   6.67572
H     0.14808   1.11441   7.91427
H    -0.48646   1.56788   6.32646
H     1.31821  -0.83223   6.96501
H     1.87378   0.72267   6.39232
H     1.83743  -0.90684   4.56334
H     0.81677   0.49246   4.24627
H    -1.22609  -0.75121   4.63610
H    -0.19989  -1.51437   3.42011
H     0.55767  -4.20363   3.05931
H     2.73802  -5.29561   2.83411
H     4.42717  -5.15404   4.66936
H     3.86757  -3.88438   6.75126
H     1.67420  -2.81211   6.99617
H     0.68944  -2.30646   9.29990
H    -0.33027  -2.36605  10.77243
H    -0.09131  -0.81394   9.90233
H    -2.52729  -3.88082   8.46219
