12
Generated by autodE on: 2022-10-22. E = -373.915479 Ha
C    -2.61510  -0.06872  -0.38087
C    -1.13139  -0.03443  -0.19398
C    -0.60230   0.79045   0.83832
N    -0.30402   1.50691   1.70627
N    -0.35052  -0.75234  -0.97661
N     0.95354  -0.95200  -1.05990
C     1.76268  -0.37768  -0.19447
N     2.62632   0.04025   0.48386
H    -2.99504   0.94453  -0.58541
H    -3.10212  -0.43145   0.53821
H    -2.88526  -0.73127  -1.21499
H    -0.85260  -1.28694  -1.69474
