12
Generated by autodE on: 2022-10-26. E = -373.919784 Ha
C     0.67651   1.20041   1.66609
C    -0.05184   0.99843   0.38545
C    -0.75965   2.04861  -0.25725
N    -1.32884   2.93649  -0.75143
N    -0.06560  -0.18037  -0.20047
N     0.55279  -1.23369   0.30709
C     0.44846  -2.34856  -0.38668
N     0.42780  -3.39766  -0.91380
H     1.74189   0.94887   1.53175
H     0.27585   0.51734   2.43368
H     0.58155   2.23725   2.00795
H    -0.58392  -0.27210  -1.08770
