53
Generated by autodE on: 2022-10-22. E = -1483.562363 Ha. Imaginary frequency = -278.1 cm-1
C    -2.14051   1.67113   8.87731
O    -1.71254   0.36749   8.51472
C    -1.67247   0.05043   7.13632
O    -2.93099   0.25797   6.52980
C    -4.01598  -0.50330   7.04261
C    -0.67801   0.94171   6.34736
C     0.76484   0.41902   6.25237
C     1.13564  -0.25300   4.91207
C     0.13341  -1.19138   4.23056
C    -0.20829  -2.55264   4.93261
C     1.03234  -3.44769   5.01638
C     1.33945  -4.42869   4.06250
C     2.50660  -5.19074   4.17661
C     3.39125  -4.97874   5.23569
C     3.10038  -3.99271   6.18304
C     1.93215  -3.23780   6.07312
C    -1.35983  -3.18372   4.11144
F    -1.06603  -3.28020   2.80042
F    -1.68609  -4.41410   4.53472
F    -2.47778  -2.43677   4.19298
C    -0.77761  -2.22065   6.25854
C    -1.27727  -1.39220   7.03561
C    -1.38783  -2.50732   9.04312
C    -0.03790  -2.05013   9.52150
C    -2.54379  -2.04718   9.75808
N    -3.46385  -1.68864  10.37118
N    -1.53912  -3.70231   8.45515
N    -0.60241  -4.06759   7.58774
C    -0.68911  -5.28111   7.07637
N    -0.63701  -6.35185   6.60267
H    -2.96375   2.02180   8.23654
H    -1.31503   2.40176   8.83578
H    -2.50081   1.60508   9.91400
H    -4.88824  -0.26434   6.41911
H    -4.24118  -0.24774   8.08942
H    -3.81400  -1.58591   6.97420
H    -0.69390   1.93592   6.81452
H    -1.10324   1.07347   5.34300
H     0.97187  -0.25567   7.09622
H     1.45588   1.26649   6.38049
H     2.10645  -0.76043   5.02452
H     1.30644   0.55114   4.17663
H    -0.81637  -0.65941   4.07448
H     0.52573  -1.44317   3.23442
H     0.67698  -4.61928   3.22030
H     2.71977  -5.95678   3.42743
H     4.30111  -5.57707   5.32294
H     3.78236  -3.81169   7.01704
H     1.71023  -2.48167   6.82575
H     0.74658  -2.38989   8.83872
H     0.14200  -2.48123  10.52174
H    -0.01686  -0.95867   9.59771
H    -2.49275  -4.06719   8.34152
