28
Generated by autodE on: 2022-06-26. E = -708.440771 Ha
N     1.17120  -3.25483   1.44613
C     1.14148  -2.19285   0.94930
C     1.07371  -0.92547   0.35793
O    -0.14511  -0.36586   0.18161
C    -1.31430  -0.82450   0.48384
C    -2.47611  -0.04553   0.19606
C    -3.74225  -0.57885   0.53617
C    -4.90177   0.14442   0.27223
C    -4.82203   1.40525  -0.33192
C    -3.57112   1.94256  -0.67229
C    -2.40546   1.23124  -0.41441
C     2.21744  -0.15678  -0.08143
C     3.52654  -0.66751   0.08102
C     4.63355   0.06750  -0.33797
C     4.47265   1.32675  -0.92883
C     3.18061   1.84070  -1.09434
C     2.06479   1.11572  -0.67956
H    -1.38375  -1.81006   0.95603
H    -3.79798  -1.56319   1.00672
H    -5.87484  -0.27460   0.53763
H    -5.73317   1.97101  -0.53873
H    -3.51111   2.92627  -1.14320
H    -1.43273   1.64926  -0.67906
H     3.67036  -1.64825   0.54083
H     5.63470  -0.34885  -0.20110
H     5.34279   1.90004  -1.25591
H     3.03834   2.82195  -1.55424
H     1.06541   1.53124  -0.81675
