28
Generated by autodE on: 2022-07-27. E = -708.440767 Ha
N     0.96549  -3.34588   1.39814
C     0.98907  -2.30625   0.85576
C     0.98541  -1.06060   0.21628
O    -0.16157  -0.34454   0.21724
C    -1.31233  -0.62936   0.73036
C    -2.38977   0.30005   0.60648
C    -2.24978   1.54150  -0.06216
C    -3.33259   2.40795  -0.15127
C    -4.56813   2.06270   0.41752
C    -4.71611   0.83806   1.08030
C    -3.63986  -0.03927   1.17680
C     2.12671  -0.46782  -0.44577
C     3.36597  -1.14877  -0.48061
C     4.47050  -0.58330  -1.11434
C     4.37607   0.67084  -1.72985
C     3.15331   1.35265  -1.70095
C     2.04074   0.79803  -1.07069
H    -1.43063  -1.58477   1.25210
H    -1.28866   1.81018  -0.50377
H    -3.21895   3.36375  -0.66757
H    -5.41390   2.74984   0.34331
H    -5.67718   0.56850   1.52363
H    -3.74953  -0.99601   1.69269
H     3.45739  -2.12793  -0.00434
H     5.41696  -1.12953  -1.12727
H     5.24395   1.11120  -2.22546
H     3.06320   2.33234  -2.17704
H     1.09605   1.34354  -1.05820
