48
Generated by autodE on: 2022-06-26. E = -1166.146337 Ha. Imaginary frequency = -346.9 cm-1
C    -2.45717  -2.15526  -2.26294
N    -1.24030  -2.20859  -1.47322
C    -0.04242  -2.55405  -2.10078
C     1.13293  -2.57987  -1.45082
C     1.22238  -2.29170   0.02436
C     0.00000  -1.53060   0.50494
C    -0.15532  -1.20998   1.93500
N     0.93859  -1.41042   2.71517
O    -1.22362  -0.80244   2.42632
C    -1.17882  -1.53017  -0.26351
C    -1.36748   0.60414  -0.88719
C    -2.23952   1.31109   0.05598
C    -1.88667   2.54606   0.63374
C    -2.77713   3.21533   1.47495
C    -4.03596   2.67339   1.74827
C    -4.41140   1.46381   1.14980
C    -3.52848   0.79368   0.30729
O    -0.06648   0.88194  -1.03326
C     0.92557   0.82012  -0.13343
C     0.80553   1.36258   1.17043
N     0.80027   1.77295   2.26370
C     2.25706   0.59085  -0.67805
C     3.39242   0.61595   0.16219
C     4.65675   0.32828  -0.34767
C     4.82057   0.01640  -1.70282
C     3.70233  -0.00592  -2.54319
C     2.43121   0.27109  -2.04117
H    -3.32629  -2.09489  -1.59444
H    -2.48221  -1.28659  -2.94630
H    -2.54943  -3.06808  -2.86820
H    -0.13158  -2.80881  -3.15896
H     2.03679  -2.86136  -1.99226
H     2.15409  -1.74463   0.24577
H     1.30900  -3.24039   0.59550
H     0.90582  -1.03086   3.65615
H     1.85556  -1.52665   2.29935
H    -2.12670  -1.42890   0.26170
H    -1.80488   0.37874  -1.86256
H    -0.92957   3.00788   0.39483
H    -2.48558   4.17343   1.91155
H    -4.72823   3.19668   2.41170
H    -5.40076   1.04189   1.34121
H    -3.83373  -0.14282  -0.16428
H     3.27795   0.85267   1.22157
H     5.52222   0.34872   0.31867
H     5.81327  -0.20598  -2.10043
H     3.81927  -0.24695  -3.60247
H     1.56534   0.24676  -2.70110
