57
Generated by autodE on: 2022-10-22. E = -1362.293528 Ha
C     0.79938  -2.59792  -1.73110
O     1.22361  -1.78005  -0.63957
C     0.88439  -0.41019  -0.53646
O     0.91897   0.24701  -1.74817
C     2.00275   0.08551  -2.66778
C     1.84271   0.07327   0.65521
C     2.45824   1.48946   0.54655
C     2.41277   2.33981   1.78381
O     3.01504   1.87090  -0.46774
C     3.05851  -0.91184   0.81515
C     4.10135  -1.03276  -0.25524
O     3.14355  -1.53438   1.85743
N     0.99659  -0.01584   1.82937
C    -0.24868  -0.70316   1.53699
C    -1.31560  -0.40153   2.59063
C    -1.14412   0.81792   3.45075
O    -2.25143  -1.17065   2.74848
C    -0.57678  -0.24953   0.07983
C    -1.56566  -1.13961  -0.67321
C    -1.98234  -0.73300  -1.95335
C    -2.83417  -1.52751  -2.71965
C    -3.30812  -2.74250  -2.21199
C    -2.92447  -3.14295  -0.93126
C    -2.05936  -2.34933  -0.16942
C    -1.13808   1.18589   0.09490
C    -2.47519   1.34899   0.50751
C    -3.05065   2.61242   0.63332
C    -2.30576   3.75764   0.33235
C    -0.99198   3.61172  -0.11229
C    -0.41871   2.34010  -0.23672
H     0.11192  -3.37391  -1.36917
H     0.29718  -2.02363  -2.51730
H     1.69553  -3.07805  -2.15485
H     2.42239  -0.92668  -2.64521
H     2.79571   0.81137  -2.45582
H     1.58272   0.27109  -3.66587
H     1.37381   2.59196   2.03716
H     2.99672   3.25313   1.61244
H     2.81973   1.78062   2.64079
H     4.27477  -0.08705  -0.77964
H     3.74997  -1.76791  -0.99453
H     5.03184  -1.40560   0.19348
H     1.50456  -0.48649   2.57753
H    -0.12901  -1.79870   1.52669
H    -0.83975   1.69172   2.86003
H    -2.07481   1.01509   3.99862
H    -0.33270   0.62492   4.17291
H    -1.62180   0.21288  -2.35783
H    -3.13253  -1.19527  -3.71692
H    -3.97891  -3.36569  -2.80820
H    -3.29746  -4.08177  -0.51482
H    -1.78657  -2.68300   0.82917
H    -3.07884   0.47068   0.73697
H    -4.08773   2.70137   0.96546
H    -2.75141   4.75026   0.43025
H    -0.39875   4.49066  -0.37570
H     0.58703   2.26994  -0.63436
