23
Generated by autodE on: 2022-10-26. E = -592.172056 Ha
C    -3.76561  -0.67479   1.44161
C    -2.55141   0.14582   1.13474
O    -2.45110   1.34030   1.41792
C    -1.43920  -0.54446   0.46108
N    -0.38377   0.19872   0.21541
C     0.83280  -0.01542  -0.36410
C     1.73022   1.14281  -0.41417
C     1.25038   2.45722   0.17533
O     2.85348   1.07833  -0.91751
C     1.14658  -1.34754  -0.87812
C     2.48218  -1.62094  -1.51997
O     0.31588  -2.26231  -0.79118
H    -4.16910  -1.10440   0.50969
H    -4.52886  -0.06114   1.93641
H    -3.48503  -1.52381   2.08697
H    -1.45828  -1.59081   0.17923
H    -0.54621   1.16216   0.55227
H     0.34194   2.82091  -0.33210
H     2.04618   3.20080   0.04668
H     1.02423   2.36281   1.25007
H     2.64032  -0.97195  -2.39347
H     3.30638  -1.41215  -0.82267
H     2.50266  -2.67589  -1.82476
