23
Generated by autodE on: 2022-10-22. E = -592.171507 Ha
C    -4.11109  -0.07116   0.10954
C    -2.73872  -0.53292  -0.27605
O    -2.53148  -1.51694  -0.98491
C    -1.60865   0.25747   0.24257
N    -0.41472  -0.16103  -0.09627
C     0.88985   0.17260   0.09397
C     1.76544  -0.79350  -0.59799
C     3.25994  -0.66867  -0.55364
O     1.23949  -1.72347  -1.22662
C     1.35404   1.32464   0.86310
C     0.34900   2.26252   1.48512
O     2.56043   1.54577   1.00853
H    -4.25952   0.97201  -0.21523
H    -4.87326  -0.71913  -0.34117
H    -4.20997  -0.07938   1.20790
H    -1.76717   1.12883   0.86937
H    -0.44907  -1.01858  -0.69592
H     3.62240  -0.71460   0.48357
H     3.69541  -1.48558  -1.14410
H     3.58228   0.30388  -0.95278
H    -0.26845   1.73976   2.23319
H    -0.32727   2.68578   0.72567
H     0.89512   3.07638   1.97830
