57
Generated by autodE on: 2022-10-22. E = -1362.257429 Ha. Imaginary frequency = -361.8 cm-1
C     1.17103  -2.20060  -2.74870
O     0.48278  -1.64586  -1.61028
C     0.17060  -0.39294  -1.46031
O     0.60794   0.55270  -2.23939
C     1.95229   0.67982  -2.76154
C     2.26597  -0.07012   0.70168
C     3.16177   1.05923   0.59279
C     2.84325   2.31324   1.39558
O     4.20360   1.05483  -0.09588
C     2.66181  -1.41913   0.39647
C     3.97196  -1.70884  -0.31226
O     1.95649  -2.40522   0.72218
N     1.06870   0.13413   1.42803
C    -0.11314  -0.52161   1.22013
C    -1.14644  -0.07361   2.23828
C    -2.31987  -0.95761   2.52604
O    -0.99345   0.99612   2.80985
C    -0.89964  -0.11253  -0.49571
C    -2.02398  -1.10684  -0.80194
C    -3.02965  -0.72909  -1.70982
C    -4.03589  -1.62089  -2.08682
C    -4.04931  -2.92253  -1.57805
C    -3.03303  -3.32375  -0.70797
C    -2.02714  -2.42937  -0.33282
C    -1.29686   1.33006  -0.31366
C    -2.60181   1.66573   0.10083
C    -2.95016   2.97787   0.42197
C    -2.00112   4.00123   0.35186
C    -0.69749   3.68482  -0.03424
C    -0.34933   2.37089  -0.35800
H     2.24889  -2.02183  -2.66612
H     0.96575  -3.27560  -2.70392
H     0.76614  -1.77342  -3.67469
H     2.10822   1.75849  -2.87857
H     2.03377   0.18022  -3.73332
H     2.66583   0.27515  -2.03685
H     1.90959   2.79370   1.06646
H     3.66743   3.02604   1.26421
H     2.73308   2.08625   2.46897
H     4.83112  -1.29740   0.23754
H     4.06843  -2.80082  -0.39111
H     4.01148  -1.26912  -1.31852
H     0.93588   1.05808   1.83134
H    -0.00363  -1.59634   1.10248
H    -2.84093  -0.59277   3.42069
H    -3.01411  -0.93949   1.67210
H    -2.00108  -2.00183   2.65592
H    -3.02273   0.27447  -2.13644
H    -4.80654  -1.29618  -2.78994
H    -4.83593  -3.62228  -1.86963
H    -3.01397  -4.34423  -0.31828
H    -1.23723  -2.78713   0.32458
H    -3.35890   0.88934   0.19964
H    -3.97284   3.19657   0.73849
H    -2.27238   5.02896   0.60392
H     0.06688   4.46423  -0.08248
H     0.67835   2.16557  -0.64020
