23
Generated by autodE on: 2022-06-19. E = -351.515966 Ha
C    -1.88405  -1.14798   2.20662
C    -1.66738   0.15871   1.95070
C    -2.23589   1.23567   2.84148
C    -0.88747   0.64628   0.80171
C    -0.02300  -0.07289   0.04534
C     0.70174   0.47713  -1.08117
C     1.58571  -0.17299  -1.88012
C     2.25849   0.53875  -3.01958
C     1.97176  -1.61615  -1.72246
H    -2.45482  -1.46121   3.08529
H    -1.50860  -1.93791   1.55008
H    -2.89934   1.90422   2.26600
H    -2.80974   0.81476   3.67950
H    -1.43269   1.87200   3.25124
H    -1.01725   1.70851   0.56010
H     0.14835  -1.12385   0.29855
H     0.50351   1.53315  -1.30115
H     1.94591   1.59048  -3.09616
H     2.03714   0.03749  -3.97902
H     3.35708   0.50753  -2.90605
H     1.74202  -2.17569  -2.64650
H     1.47176  -2.11903  -0.88485
H     3.06263  -1.70505  -1.57522
