45
Generated by autodE on: 2022-06-19. E = -943.470122 Ha. Imaginary frequency = -462.8 cm-1
C    -1.06351   2.54262  -2.19937
C    -1.72137   2.50165  -1.01471
C    -2.58453   3.65495  -0.56638
C    -1.63526   1.38560  -0.08301
C    -1.09892   0.11134  -0.42096
C    -1.65045  -1.08579   0.23543
C    -1.66113  -2.34675  -0.24717
C    -2.19373  -3.48389   0.58118
C    -1.14946  -2.74599  -1.60339
C     0.74824   0.20513   0.32389
C     1.47006  -0.98479  -0.14998
C     1.48800  -2.15155   0.63033
C     2.08852  -3.31331   0.14083
C     2.67112  -3.32442  -1.12985
C     2.65468  -2.16229  -1.91038
C     2.05367  -1.00016  -1.42805
N     1.13697   1.49565  -0.00025
C     0.47197   2.34214   0.83719
C     0.53939   3.81696   0.74974
C     0.09580   1.56786   1.98770
O    -0.38591   1.86233   3.07146
O     0.42855   0.25040   1.67242
H    -0.45597   1.70918  -2.56115
H    -1.13648   3.41900  -2.84854
H    -3.63977   3.33945  -0.49611
H    -2.29368   3.99809   0.43907
H    -2.52465   4.50681  -1.25885
H    -2.27580   1.44611   0.80110
H    -0.81543  -0.01979  -1.46807
H    -2.05354  -0.91975   1.24071
H    -1.40328  -4.23754   0.75054
H    -3.01374  -4.00932   0.05997
H    -2.56276  -3.14652   1.56119
H    -0.81597  -1.89728  -2.21349
H    -0.30026  -3.44378  -1.50294
H    -1.93249  -3.28746  -2.16301
H     1.03001  -2.14610   1.61903
H     2.09643  -4.21611   0.75580
H     3.13650  -4.23535  -1.51308
H     3.10716  -2.16322  -2.90455
H     2.03147  -0.10642  -2.05550
H     1.34165   1.76076  -0.96337
H     0.25895   4.16246  -0.25860
H     1.56350   4.17367   0.95310
H    -0.13506   4.26580   1.49030
