42
Generated by autodE on: 2022-06-18. E = -1032.585412 Ha
C    -0.02673  -2.74187   1.24797
C    -0.03816  -1.52336   1.80516
C    -0.36817  -1.29320   3.25227
C     0.25211  -0.26422   1.00182
C     1.45255  -0.38114   0.02417
C     2.46365   0.73427   0.13844
C     3.78639   0.63951  -0.09120
C     4.67169   1.85036   0.02634
C     4.49284  -0.62378  -0.49955
C     0.75215  -0.29958  -1.31402
C     1.48704  -0.50301  -2.53655
N     2.12190  -0.68301  -3.49195
N    -0.49156  -0.00338  -1.32998
C    -0.93360   0.17459   0.06011
C    -1.27370   1.67122   0.22361
O    -0.63243   2.45592   0.88393
O    -2.34791   1.98669  -0.48720
C    -2.77769   3.35989  -0.45212
C    -2.20707  -0.61810   0.36266
O    -2.89314  -0.38392   1.33567
O    -2.44137  -1.58365  -0.51060
C    -3.54506  -2.46037  -0.22420
H    -0.26010  -3.63330   1.83731
H     0.20715  -2.89433   0.19062
H     0.48358  -0.81796   3.76936
H    -0.61742  -2.23003   3.77109
H    -1.21975  -0.59948   3.34616
H     0.43159   0.55746   1.70255
H     1.94484  -1.35846   0.11271
H     2.03803   1.71235   0.38561
H     5.45707   1.68602   0.78473
H     5.19658   2.04028  -0.92637
H     4.10552   2.75304   0.29864
H     4.86048  -0.52911  -1.53616
H     3.85868  -1.51900  -0.45298
H     5.38084  -0.79034   0.13327
H    -3.66485   3.41201  -1.09272
H    -3.02925   3.65022   0.57754
H    -1.98429   4.01425  -0.83967
H    -4.48186  -1.88914  -0.16696
H    -3.36802  -2.98301   0.72678
H    -3.58185  -3.17592  -1.05301
