19
Generated by autodE on: 2022-06-18. E = -680.983373 Ha
C     3.69517  -0.46856  -0.13119
O     2.32413  -0.04890  -0.15545
C     1.40845  -0.97047   0.17997
O     1.68296  -2.11267   0.49390
C     0.04713  -0.41660   0.11710
N    -0.10159   0.83979  -0.23746
C    -0.23172   1.96169  -0.55550
C    -0.38022   3.25879  -0.92633
N    -0.50780   4.37734  -1.24642
C    -1.15436  -1.20373   0.43386
O    -1.15356  -2.37284   0.76775
O    -2.26741  -0.46497   0.30862
C    -3.50882  -1.12374   0.59384
H     4.28253   0.40798  -0.42797
H     3.85891  -1.29310  -0.84013
H     3.98171  -0.79297   0.87972
H    -4.29011  -0.36976   0.44399
H    -3.66235  -1.97077  -0.09041
H    -3.52429  -1.48512   1.63226
