51
Generated by autodE on: 2022-06-03. E = -1130.471276 Ha
C    -1.87423   2.25080   2.84703
N    -1.36464   1.78792   1.57280
C    -1.83721   0.68925   0.96216
O    -2.84500   0.10486   1.38338
C    -1.15774   0.20938  -0.33479
C    -1.57917   1.19682  -1.51816
C    -1.18634   2.61239  -1.11876
C     0.14666   2.64345  -1.22948
C     0.53713   1.25910  -1.72031
O    -0.60172   0.89844  -2.50922
C     0.43205   0.21964  -0.52606
C     1.31041   0.60809   0.65120
C     2.47954   1.35584   0.43579
C     3.34110   1.67756   1.49009
C     3.05201   1.25441   2.78825
C     1.89873   0.49675   3.01834
C     1.04516   0.17522   1.96326
C     0.79591  -1.25204  -1.04216
C     1.45894  -2.12880   0.04114
C     1.76890  -1.22886  -2.22992
N    -0.51078  -1.78204  -1.48058
C    -0.58370  -3.18269  -1.85024
C    -1.58530  -1.26907  -0.64889
C    -2.95549  -1.40782  -1.33747
C    -1.66667  -2.08032   0.61193
N    -1.67005  -2.86810   1.48833
H    -1.66165   3.32282   2.95491
H    -1.40253   1.71199   3.68758
H    -2.95887   2.09254   2.89844
H    -0.49663   2.19122   1.24347
H    -2.59743   1.05226  -1.88580
H    -1.86608   3.38074  -0.75535
H     0.83713   3.44731  -0.97917
H     1.45615   1.20038  -2.30407
H     2.73933   1.69123  -0.56849
H     4.24210   2.26198   1.28914
H     3.71995   1.50822   3.61469
H     1.66117   0.14970   4.02666
H     0.16385  -0.42983   2.17470
H     2.44992  -1.73590   0.30440
H     0.87031  -2.20925   0.96015
H     1.60154  -3.14348  -0.35772
H     2.67180  -0.65614  -1.97165
H     1.31157  -0.79568  -3.12808
H     2.09290  -2.25079  -2.47387
H    -0.56939  -3.88017  -0.98886
H     0.26147  -3.43556  -2.50363
H    -1.50243  -3.37685  -2.42215
H    -2.88761  -1.04251  -2.37002
H    -3.27269  -2.45888  -1.36387
H    -3.71236  -0.83531  -0.78888
