21
Generated by autodE on: 2022-07-26. E = -383.595733 Ha
C    -2.46003   0.46384  -0.12243
C    -1.06996   0.00205   0.23174
C    -0.82591  -0.66696   1.42320
N    -0.61765  -1.25050   2.42941
N    -0.01572   0.10953  -0.69538
C    -0.34031  -0.11742  -2.11545
C     1.24577   0.33607  -0.35696
C     1.58612   0.81313   1.00894
C     2.34138   0.13517  -1.35679
H    -2.45600   1.45475  -0.60796
H    -3.01822  -0.22598  -0.78396
H    -3.05055   0.56113   0.80108
H    -1.41770  -0.01321  -2.26298
H    -0.04220  -1.13526  -2.40536
H     0.17947   0.60971  -2.75024
H     2.54124   1.35706   0.98187
H     0.78363   1.46690   1.39120
H     1.68643  -0.00567   1.74551
H     3.30897   0.07531  -0.84155
H     2.39602   0.98102  -2.06651
H     2.20594  -0.78007  -1.95278
