30
Generated by autodE on: 2022-06-03. E = -746.810057 Ha
C     2.28717  -2.98113  -0.98044
N     1.46255  -1.78979  -1.01017
C     1.93116  -0.59199  -0.60247
O     3.12603  -0.40620  -0.31799
C     0.98280   0.53511  -0.54218
C    -0.31335   0.65631  -0.17956
C    -1.30043  -0.30428   0.31777
C    -0.92291  -1.37590   1.15260
C    -1.87575  -2.27962   1.62223
C    -3.22224  -2.13084   1.27150
C    -3.61171  -1.06377   0.45584
C    -2.66224  -0.15354  -0.01101
C    -0.56348   2.19345  -0.21730
C     0.21381   2.78576   0.97911
C     1.50098   2.65987   0.64221
C     1.47938   1.98863  -0.74774
O     0.29096   2.57360  -1.30640
H     2.51238  -3.29854   0.05227
H     1.75739  -3.79503  -1.49076
H     3.24253  -2.80213  -1.49504
H     0.46515  -1.89239  -1.16395
H     0.12045  -1.48392   1.45263
H    -1.56694  -3.10023   2.27399
H    -3.96677  -2.84002   1.64056
H    -4.66191  -0.93810   0.18234
H    -2.97455   0.67333  -0.65179
H    -1.59771   2.52194  -0.36083
H    -0.23784   3.15013   1.90097
H     2.40051   2.89252   1.21097
H     2.35561   2.11828  -1.39062
