51
Generated by autodE on: 2022-06-03. E = -1130.398700 Ha. Imaginary frequency = -201.2 cm-1
C    -2.45895   1.74185   3.07245
N    -1.54998   1.48983   1.97363
C    -1.99091   1.03840   0.78336
O    -3.21387   0.99067   0.54250
C    -1.01174   0.68178  -0.27198
C    -1.45273   1.15175  -1.68699
C    -1.12390   2.65766  -1.73378
C     0.21295   2.71037  -1.78869
C     0.66377   1.23622  -1.77669
O    -0.40500   0.62587  -2.50465
C     0.39277   0.69316  -0.33896
C     1.41561   0.85512   0.69500
C     2.62973   1.50833   0.37523
C     3.63581   1.68604   1.32628
C     3.47135   1.21502   2.63215
C     2.28601   0.55208   2.96663
C     1.28181   0.36694   2.01708
C     0.81942  -1.76884  -0.89130
C     1.38985  -2.22936   0.41638
C     1.84061  -1.70867  -1.98813
N    -0.48199  -1.99535  -1.21125
C    -0.82235  -2.32750  -2.60876
C    -1.56499  -1.71759  -0.39072
C    -2.96975  -1.85711  -0.92223
C    -1.49134  -1.81749   1.01865
N    -1.56862  -1.85005   2.18654
H    -3.16531   2.55356   2.83649
H    -1.87422   2.03050   3.95502
H    -3.04658   0.84152   3.31546
H    -0.55405   1.51651   2.15441
H    -2.44479   0.83800  -2.02263
H    -1.85058   3.46470  -1.64297
H     0.87682   3.57416  -1.76301
H     1.63600   1.00733  -2.22040
H     2.79267   1.89425  -0.63126
H     4.55646   2.20155   1.04150
H     4.25825   1.35556   3.37655
H     2.14338   0.16024   3.97681
H     0.39266  -0.19353   2.30027
H     2.33994  -1.72179   0.62045
H     0.74445  -2.11175   1.28636
H     1.61197  -3.30921   0.31239
H     2.71489  -1.15788  -1.61085
H     1.48388  -1.20780  -2.89453
H     2.19643  -2.71853  -2.26710
H    -1.64121  -3.05437  -2.60687
H     0.03594  -2.80117  -3.08965
H    -1.11486  -1.43661  -3.17407
H    -3.10224  -1.32998  -1.87655
H    -3.26110  -2.91254  -1.06942
H    -3.66238  -1.41161  -0.19798
