57
Generated by autodE on: 2022-06-27. E = -1503.300887 Ha
C     3.36424   0.27371   2.37716
N     2.48902  -0.10008   1.28465
C     2.41204   0.62424   0.16387
O     3.16617   1.58263  -0.07058
C     1.26001   0.24160  -0.79730
C     1.67357   0.24648  -2.29893
O     1.04837  -0.45679  -3.10184
N     2.66571   1.06296  -2.66675
C     3.08129   1.18151  -4.04967
C     0.08355   1.25673  -0.61422
C    -0.02040   1.86388   0.79733
C    -1.42872   2.29172   1.12342
C    -1.72007   3.15151   2.27887
N    -0.66012   3.49859   3.05411
O    -2.86786   3.54643   2.56894
C    -2.48555   1.82523   0.40008
N    -2.39184   0.98409  -0.66116
C    -3.58345   0.41236  -1.26638
C    -1.12454   0.38662  -0.98211
C    -0.77736  -1.00831  -0.34153
C    -1.39024  -2.14407  -1.18946
O    -1.62841  -2.06160  -2.37341
O    -1.55186  -3.25269  -0.47454
C    -2.03055  -4.41614  -1.17038
C    -1.31336  -1.12362   1.09452
O    -2.49773  -1.14836   1.35761
O    -0.35146  -1.15153   2.01276
C    -0.76134  -1.08185   3.38752
N     0.66931  -1.03333  -0.42533
C     1.37118  -2.27298  -0.70160
H     3.40489  -0.54920   3.10176
H     3.00355   1.18189   2.89009
H     4.37852   0.47217   2.00358
H     1.72053  -0.74972   1.44956
H     3.12460   1.58870  -1.91991
H     2.25654   1.54132  -4.68563
H     3.91203   1.89509  -4.11172
H     3.41618   0.21191  -4.45165
H     0.17464   2.07220  -1.34251
H     0.67039   2.71982   0.84504
H     0.33209   1.15314   1.55816
H     0.28288   3.18224   2.86783
H    -0.82586   4.07869   3.86889
H    -3.49691   2.14114   0.66198
H    -4.42957   1.09831  -1.12702
H    -3.42167   0.26545  -2.34372
H    -3.84352  -0.56031  -0.81608
H    -1.10163   0.19472  -2.06052
H    -2.10414  -5.20770  -0.41652
H    -1.32087  -4.70144  -1.95972
H    -3.01578  -4.21392  -1.61324
H     0.16035  -1.13347   3.97760
H    -1.42494  -1.92198   3.63449
H    -1.28042  -0.12973   3.57194
H     1.13150  -2.69937  -1.69198
H     2.45322  -2.08605  -0.67752
H     1.14396  -3.02286   0.07110
