20
Generated by autodE on: 2022-06-27. E = -457.715300 Ha
C    -3.01723   0.91032  -0.41921
N    -1.82009   0.14045  -0.12472
C    -1.94283  -1.18590   0.30766
C    -0.88160  -1.95156   0.60707
C     0.54240  -1.46247   0.50859
C     0.57619  -0.01973   0.03100
C     1.84881   0.69538  -0.15398
N     2.97443  -0.00673   0.13153
O     1.92308   1.87750  -0.54719
C    -0.56923   0.66622  -0.24437
H    -2.72976   1.91731  -0.74609
H    -3.65941   1.00084   0.47207
H    -3.60518   0.43556  -1.22143
H    -2.96865  -1.55132   0.38269
H    -1.05805  -2.97792   0.93699
H     1.04906  -1.56739   1.49002
H     1.12344  -2.11846  -0.17178
H     2.95634  -0.97131   0.43684
H     3.87328   0.44609   0.00793
H    -0.51509   1.70190  -0.58374
