37
Generated by autodE on: 2022-06-27. E = -1045.511307 Ha
C    -2.70833   1.88598   2.77287
N    -2.51323   1.25156   1.48780
C    -1.34318   0.65685   1.17550
O    -0.36550   0.69538   1.94443
C    -1.32222  -0.09273  -0.10474
C    -2.45540  -0.01728  -1.05952
O    -3.64239   0.10005  -0.69909
N    -2.12028  -0.00663  -2.36666
C    -3.12911   0.04467  -3.40626
N    -0.24572  -0.87319  -0.39677
C    -0.47405  -2.17805  -1.06426
C     1.01160  -0.53362  -0.04770
C     2.05722  -1.56493   0.09585
O     1.88277  -2.68702   0.54205
O     3.24970  -1.13026  -0.33141
C     4.36111  -2.01768  -0.14883
C     1.35319   0.90669   0.07803
O     0.81358   1.79557  -0.55692
O     2.35860   1.11947   0.92636
C     2.77507   2.48055   1.09738
H    -1.86251   2.54948   3.00423
H    -3.63031   2.48044   2.74119
H    -2.79301   1.15158   3.59289
H    -3.31453   1.02049   0.89827
H    -1.14186   0.01814  -2.63297
H    -3.69127   0.99230  -3.37634
H    -3.84969  -0.78016  -3.29480
H    -2.63473  -0.04333  -4.38124
H    -0.23879  -2.96918  -0.34558
H    -1.52407  -2.26197  -1.34991
H     0.17798  -2.26663  -1.94185
H     5.23939  -1.48088  -0.52538
H     4.21055  -2.94690  -0.71722
H     4.49009  -2.25856   0.91651
H     1.94314   3.08432   1.48813
H     3.59842   2.45466   1.82038
H     3.12041   2.90435   0.14345
