37
Generated by autodE on: 2022-07-27. E = -1045.512724 Ha
C     3.44298   1.09410   2.72037
N     2.24643   0.80112   1.95184
C     2.27549   0.69404   0.61825
O     3.28945   0.89561  -0.06415
C     0.94571   0.38114  -0.01733
C     0.37598   1.34713  -1.01679
O    -0.79365   1.30716  -1.41194
N     1.27039   2.23806  -1.48959
C     0.90778   3.17004  -2.53680
N     0.35442  -0.77407   0.24786
C     1.14267  -1.86427   0.86923
C    -1.01819  -0.96711   0.11092
C    -1.53423  -2.16139  -0.53187
O    -2.68602  -2.57210  -0.47546
O    -0.59051  -2.79349  -1.27505
C    -0.97644  -4.03257  -1.87441
C    -1.93336   0.05740   0.59867
O    -3.13547   0.09705   0.38539
O    -1.32794   0.95769   1.40832
C    -2.10212   2.09405   1.79137
H     4.15416   0.25332   2.68382
H     3.15643   1.27499   3.76284
H     3.94582   1.98780   2.32268
H     1.37133   0.62942   2.43969
H     2.25421   2.09235  -1.26716
H    -0.03578   3.67525  -2.28518
H     1.70327   3.91877  -2.63608
H     0.77278   2.66454  -3.50805
H     0.69472  -2.81922   0.58650
H     2.17936  -1.82690   0.51569
H     1.09622  -1.75534   1.96003
H    -0.08575  -4.40892  -2.39197
H    -1.79309  -3.88034  -2.59552
H    -1.30107  -4.75489  -1.11039
H    -1.43732   2.72472   2.39398
H    -2.97786   1.79569   2.38622
H    -2.43872   2.64768   0.90183
