57
Generated by autodE on: 2022-06-27. E = -1503.212984 Ha. Imaginary frequency = -171.7 cm-1
C     3.11571   0.81240   2.34441
N     2.17844   0.21470   1.41508
C     2.40905   0.17526   0.09270
O     3.44491   0.63652  -0.41402
C     1.24539  -0.39609  -0.69957
C     1.22619  -0.31477  -2.22512
O     0.24431  -0.66432  -2.88957
N     2.36054   0.11750  -2.79241
C     2.49226   0.20339  -4.23237
C     0.08360   1.61617  -0.59271
C     0.06949   2.35667   0.72139
C    -1.27362   2.31870   1.39934
C    -1.45431   2.83033   2.78834
N    -0.33745   3.26246   3.40957
O    -2.56123   2.84618   3.34581
C    -2.35921   1.82170   0.77659
N    -2.30035   1.29476  -0.51350
C    -3.51679   0.71024  -1.08049
C    -1.13016   1.19873  -1.15145
C    -0.76180  -1.71056  -0.16012
C    -1.36095  -2.51854  -1.17489
O    -2.56594  -2.64534  -1.41458
O    -0.43636  -3.21809  -1.90124
C    -0.91181  -3.86800  -3.07443
C    -1.47685  -1.31901   1.00935
O    -2.67676  -1.47385   1.26225
O    -0.66030  -0.70667   1.94053
C    -1.22037  -0.45196   3.22588
N     0.64861  -1.48252  -0.11916
C     1.42030  -2.45579   0.66858
H     3.98682   0.15853   2.51617
H     2.60311   0.98095   3.29970
H     3.48133   1.77452   1.95623
H     1.28385  -0.13911   1.76035
H     3.11576   0.40260  -2.16071
H     1.73020   0.87289  -4.66228
H     3.48776   0.59540  -4.47385
H     2.37522  -0.78500  -4.70488
H     0.84788   1.92289  -1.30497
H     0.37309   3.40655   0.54734
H     0.84293   1.95410   1.39490
H     0.57842   3.24361   2.97688
H    -0.41397   3.60480   4.36218
H    -3.33910   1.79864   1.25034
H    -4.33467   1.44170  -1.02607
H    -3.33259   0.43903  -2.12575
H    -3.78666  -0.18930  -0.51171
H    -1.16624   0.77667  -2.15315
H    -0.03584  -4.33382  -3.54420
H    -1.36187  -3.14427  -3.77218
H    -1.65728  -4.64195  -2.83547
H    -0.46761   0.12721   3.77471
H    -1.42043  -1.39622   3.75685
H    -2.15159   0.12378   3.15700
H     1.17631  -3.45118   0.26844
H     2.50010  -2.30163   0.55510
H     1.15071  -2.43164   1.73478
