48
Generated by autodE on: 2022-06-08. E = -2076.024050 Ha
C    -3.36762   1.18458  -4.08476
O    -2.45345   1.42412  -2.99440
C    -2.28523   0.44219  -2.14101
O    -2.86342  -0.62116  -2.13488
C    -1.28961   0.77784  -1.04034
O    -0.51424   1.98564  -1.30270
C    -0.16783   2.44115  -0.07940
O     0.50454   3.39991   0.14857
C    -0.85090   1.41963   0.90391
C    -1.22936   2.00031   2.18132
N    -1.59078   2.56146   3.12717
O    -2.00744   1.12058   0.11980
C    -0.01940   0.10449   0.74365
C    -0.28688  -0.29219  -0.52143
C     0.20193  -1.46957  -1.34102
C     1.77135  -1.43453  -1.43861
C     2.51117  -2.71744  -1.67977
O     2.32769  -0.35656  -1.41412
C    -0.10921  -1.22967  -2.85941
C    -0.50649  -2.38068  -3.72736
O     0.00424  -0.10014  -3.29843
C    -0.43991  -2.79361  -0.83930
C    -0.63146  -2.96412   0.66688
C     0.62061  -3.02990   1.53880
C     1.52873  -1.79745   1.60575
C     0.86315  -0.43749   1.84153
Cl   -0.18512  -0.59598   3.35486
C     1.96738   0.59004   2.21221
F     2.81551   0.73862   1.18790
F     1.45937   1.80329   2.48846
F     2.67069   0.20306   3.27784
H    -3.37678   2.10870  -4.67192
H    -3.00214   0.34391  -4.69051
H    -4.36984   0.96148  -3.69480
H     2.36168  -3.42721  -0.85335
H     2.13524  -3.20678  -2.59175
H     3.57921  -2.49416  -1.79308
H    -1.56752  -2.60484  -3.52956
H    -0.39552  -2.09043  -4.77956
H     0.06626  -3.29111  -3.50904
H     0.13519  -3.63786  -1.24150
H    -1.43806  -2.84937  -1.29219
H    -1.31368  -2.18696   1.04475
H    -1.17295  -3.91382   0.80330
H     1.25526  -3.86827   1.20859
H     0.30243  -3.27105   2.56382
H     2.23188  -1.94979   2.43552
H     2.16224  -1.69939   0.71976
