33
Generated by autodE on: 2022-06-08. E = -1414.405293 Ha
C     3.32534   0.34774   3.20439
C     2.83210   0.23496   1.79453
O     3.52754  -0.15343   0.87636
C     1.36301   0.65162   1.51773
C     1.36774   2.21756   1.50934
C     1.56514   2.89167   0.18763
O     1.24348   2.81951   2.55509
C     0.88596   0.11964   0.24988
C     0.12221  -0.33668  -0.57098
C    -1.14108  -0.85254  -1.05879
Cl   -1.01350  -2.67612  -1.28378
C    -1.50846  -0.27206  -2.43607
F    -2.69905  -0.71087  -2.85877
F    -0.59929  -0.58071  -3.36746
F    -1.57024   1.06901  -2.36263
C    -2.22277  -0.53711  -0.00143
C    -1.82941  -0.84097   1.45689
C    -1.12040   0.27590   2.27518
C     0.37912   0.11890   2.60402
H     3.01564   1.30072   3.65656
H     2.87303  -0.45675   3.80727
H     4.41753   0.24263   3.22356
H     2.40521   2.42703  -0.35232
H     1.73996   3.96510   0.33324
H     0.66644   2.73978  -0.43227
H    -3.12465  -1.10048  -0.28033
H    -2.46329   0.53338  -0.10185
H    -1.24323  -1.77378   1.49298
H    -2.77337  -1.06978   1.97308
H    -1.62933   0.32743   3.24963
H    -1.29772   1.25705   1.80312
H     0.61092  -0.94151   2.78714
H     0.60094   0.66687   3.52909
