48
Generated by autodE on: 2022-06-08. E = -2075.946494 Ha. Imaginary frequency = -285.2 cm-1
C    -3.23800   0.91270  -4.00448
O    -2.63930   1.21423  -2.72765
C    -1.32804   1.13567  -2.66203
O    -0.56277   0.93698  -3.57690
C    -0.83791   1.37016  -1.26353
O     0.20959   2.16784  -1.07622
C     0.21308   2.57928   0.28745
O     1.08239   3.27255   0.73809
C    -0.98456   1.95406   0.79685
C    -1.67311   2.19891   1.99982
N    -2.24464   2.41896   2.98936
O    -1.68365   1.44911  -0.26012
C     0.34301  -0.26770   0.72691
C     0.17464  -0.53259  -0.47185
C     0.37350  -1.52890  -1.56152
C     1.35198  -0.93149  -2.62011
C     1.38865  -1.50372  -4.00379
O     2.11547  -0.06011  -2.25617
C    -0.99661  -1.99218  -2.11062
C    -1.09754  -3.29096  -2.85967
O    -1.99455  -1.34268  -1.85683
C     1.11310  -2.75656  -0.92472
C     0.36816  -3.33235   0.29687
C     1.11093  -3.20950   1.63337
C     1.72632  -1.86096   2.01405
C     0.80180  -0.61922   2.07813
Cl   -0.65319  -0.96947   3.13560
C     1.58241   0.52399   2.77666
F     2.09803   0.12135   3.94311
F     0.82518   1.59461   3.03655
F     2.59560   0.91931   1.99190
H    -2.86923   1.61051  -4.76830
H    -2.99598  -0.12080  -4.28835
H    -4.31687   1.03142  -3.86008
H     2.14089  -0.96402  -4.59268
H     1.65051  -2.57253  -3.96235
H     0.40413  -1.41757  -4.48593
H    -1.24548  -4.08713  -2.10964
H    -1.98489  -3.26221  -3.50545
H    -0.20442  -3.54747  -3.43778
H     2.12005  -2.41401  -0.64802
H     1.24992  -3.51723  -1.70381
H    -0.62362  -2.86382   0.39219
H     0.16942  -4.40117   0.12707
H     1.95339  -3.92062   1.63854
H     0.43385  -3.53288   2.43887
H     2.18283  -1.97327   3.00676
H     2.53683  -1.59259   1.31985
