44
Generated by autodE on: 2022-06-20. E = -979.652219 Ha
C     1.09766  -2.45340  -1.98713
C     1.12166  -2.60951  -0.65624
C     1.66918  -3.85370  -0.01108
C     0.59556  -1.56844   0.31365
C     0.79465  -0.07935  -0.09722
C     1.77437   0.69039   0.73742
C     2.53062   1.72461   0.32494
C     3.45511   2.43217   1.27846
C     2.51777   2.28625  -1.07124
C    -0.66670   0.43432   0.01642
C    -0.89432   1.81407  -0.55899
O    -1.00818   2.81472   0.11106
O    -0.87634   1.77984  -1.88570
C    -0.97922   3.04131  -2.56922
O    -0.98481   0.48025   1.46033
C    -1.17406  -0.81535   1.80579
O    -1.41304  -1.17208   2.93309
C    -0.97147  -1.63482   0.52037
C    -1.62686  -2.99047   0.54201
N    -1.43557  -0.66489  -0.50214
C    -2.88082  -0.45448  -0.57925
H     1.47345  -3.23997  -2.64830
H     0.70602  -1.55357  -2.46589
H     0.91615  -4.32732   0.64015
H     2.52642  -3.60341   0.63805
H     1.99828  -4.59147  -0.75705
H     1.07004  -1.75017   1.28871
H     1.05496  -0.01648  -1.15833
H     1.84127   0.38830   1.78811
H     3.20096   3.50484   1.34247
H     3.41362   2.00392   2.29073
H     4.49824   2.38289   0.91955
H     1.91846   1.69913  -1.77871
H     3.54542   2.36500  -1.46493
H     2.11111   3.31262  -1.05759
H    -0.13192   3.68646  -2.29760
H    -0.95286   2.80531  -3.63855
H    -1.92362   3.53888  -2.30849
H    -1.46119  -3.51831  -0.40702
H    -2.70812  -2.90345   0.71848
H    -1.20082  -3.58876   1.35939
H    -3.34654  -0.18646   0.38750
H    -3.36022  -1.36818  -0.95296
H    -3.08773   0.34830  -1.30008
