23
Generated by autodE on: 2022-06-20. E = -351.521385 Ha
C    -1.42602   2.93975  -1.90273
C    -1.30515   2.04304  -0.89919
C    -2.22485   2.07451   0.29468
C    -0.26709   1.01601  -0.95957
C    -0.04279   0.06164  -0.02164
C     1.00260  -0.93529  -0.13151
C     1.28926  -1.91860   0.75878
C     0.54476  -2.14170   2.04449
C     2.41339  -2.88272   0.50490
H    -0.75676   2.91393  -2.76829
H    -2.19381   3.71823  -1.88351
H    -1.65720   2.20947   1.23036
H    -2.77673   1.12524   0.39623
H    -2.95534   2.89167   0.21288
H     0.37498   1.03599  -1.84846
H    -0.67827   0.03490   0.86775
H     1.62035  -0.87644  -1.03580
H     1.23609  -2.07314   2.90303
H     0.12576  -3.16314   2.07090
H    -0.27554  -1.43118   2.20849
H     2.92992  -2.67922  -0.44464
H     2.04032  -3.92253   0.48411
H     3.15571  -2.84197   1.32230
