44
Generated by autodE on: 2022-06-20. E = -979.609715 Ha. Imaginary frequency = -400.3 cm-1
C     0.73349  -2.68695  -2.11335
C     0.98344  -2.70253  -0.78190
C     1.19945  -4.00811  -0.05454
C     1.04422  -1.52260   0.06537
C     0.99562  -0.16418  -0.36660
C     1.85356   0.81657   0.33709
C     2.39917   1.93650  -0.17872
C     3.19671   2.87046   0.69055
C     2.26598   2.37318  -1.61248
C    -0.77804   0.38111   0.15285
C    -0.91527   1.81785  -0.21437
O    -1.12006   2.19668  -1.35104
O    -0.70093   2.61743   0.82324
C    -0.63558   4.02719   0.54759
O    -0.76368   0.09801   1.50797
C    -1.05172  -1.26016   1.64002
O    -0.95670  -1.83620   2.71276
C    -1.53487  -1.67705   0.34761
C    -2.10226  -2.99676   0.01173
N    -1.59635  -0.57579  -0.44136
C    -2.02717  -0.54057  -1.83295
H     0.69118  -3.61850  -2.68344
H     0.57716  -1.75835  -2.66645
H     0.50943  -4.09287   0.80089
H     2.22047  -4.05638   0.36126
H     1.05236  -4.87567  -0.71336
H     1.42311  -1.69638   1.07660
H     0.91944  -0.01345  -1.44772
H     2.01791   0.60607   1.39956
H     4.20773   3.03474   0.27759
H     2.71355   3.86344   0.73113
H     3.29662   2.49461   1.71957
H     1.65390   1.69804  -2.22367
H     3.26305   2.45558  -2.08027
H     1.81688   3.37978  -1.66573
H    -0.40227   4.50786   1.50395
H     0.15396   4.23344  -0.18811
H    -1.60106   4.38630   0.16447
H    -3.17352  -2.91845  -0.23426
H    -1.98707  -3.67286   0.86812
H    -1.58663  -3.42942  -0.86457
H    -2.83797   0.19006  -1.95575
H    -2.38607  -1.53482  -2.11693
H    -1.19399  -0.25420  -2.48577
