35
Generated by autodE on: 2022-06-28. E = -932.868097 Ha
C     0.14241   3.54177   0.80753
N     0.52561   2.23712   0.30535
C     0.08839   1.11251   0.89137
O    -0.56169   1.10636   1.93940
C     0.50817  -0.17200   0.20626
C     1.83025  -0.22591  -0.43610
C     1.96848  -0.71322  -1.75079
C     3.21859  -0.72272  -2.36728
C     4.34459  -0.25391  -1.68217
C     4.21476   0.23716  -0.37855
C     2.96577   0.26211   0.24003
N    -0.29076  -1.22518   0.24073
C     0.23974  -2.58179  -0.01482
C    -1.66871  -1.15343   0.49290
C    -2.29857  -2.22560   1.15035
N    -2.84559  -3.10560   1.69523
C    -2.52421  -0.07194   0.05750
O    -3.70640   0.02877   0.37330
O    -1.92586   0.79919  -0.77815
C    -2.68439   1.94216  -1.18046
H     0.49233   3.68433   1.84123
H    -0.95351   3.65978   0.79818
H     0.59152   4.31206   0.16956
H     1.02080   2.17163  -0.57828
H     1.08935  -1.06335  -2.29403
H     3.31323  -1.09302  -3.39035
H     5.32338  -0.26540  -2.16687
H     5.09163   0.60350   0.15951
H     2.86827   0.64357   1.25806
H     1.32776  -2.58461   0.08099
H    -0.18893  -3.25638   0.73614
H    -0.06401  -2.91741  -1.01426
H    -2.00446   2.56152  -1.77706
H    -3.55109   1.64213  -1.78763
H    -3.03299   2.50364  -0.30163
