26
Generated by autodE on: 2022-06-28. E = -689.460855 Ha
C    -2.36404  -2.40052  -0.41602
O    -0.99181  -2.22283  -0.05013
C    -0.39571  -1.03084  -0.04668
C    -0.88370   0.17895  -0.44173
O    -2.12711   0.33963  -0.98299
C    -3.09217   0.99784  -0.15560
C    -0.03019   1.38500  -0.37719
O    -0.46747   2.45875  -0.78759
C     1.35625   1.28549   0.17087
C     2.16345   2.54250   0.25109
C     1.85528   0.08543   0.55791
C     3.24615  -0.06559   1.09185
C     1.01734  -1.13726   0.46207
O     1.44168  -2.23418   0.79872
H    -2.56281  -3.47094  -0.27819
H    -2.53377  -2.12229  -1.46405
H    -3.02495  -1.81751   0.24119
H    -4.02604   1.03312  -0.73213
H    -2.77706   2.02220   0.09185
H    -3.25889   0.42960   0.77460
H     2.49374   2.72673   1.28670
H     1.58737   3.40744  -0.09753
H     3.07843   2.45701  -0.35858
H     3.38518   0.55013   1.99583
H     3.46457  -1.11064   1.34099
H     3.98715   0.28568   0.35505
