61
Generated by autodE on: 2022-06-28. E = -1622.286174 Ha. Imaginary frequency = -266.0 cm-1
C    -3.30545   0.45409   2.15544
N    -2.59557  -0.78592   1.90366
C    -1.62507  -1.03810   1.00479
O    -1.06683  -2.13360   0.96065
C    -1.41941   0.05517  -0.07170
C    -2.44283  -0.05525  -1.14841
C    -2.41409   0.81272  -2.26260
C    -3.32745   0.67542  -3.30403
C    -4.28096  -0.34754  -3.27599
C    -4.30272  -1.23662  -2.19894
C    -3.39299  -1.09603  -1.15056
N    -1.07563   1.32988   0.38663
C    -1.82655   2.54622   0.01401
C     0.14524   1.55641   1.02982
C     0.67059   2.87780   0.90790
N     1.12558   3.94064   0.77038
C     0.56198   0.85742   2.26720
O     0.03929  -0.13055   2.74349
O     1.62908   1.45581   2.81700
C     2.08133   0.94572   4.07979
C     1.31673   0.58356  -0.74393
O     1.23024   1.62425  -1.58232
C     2.34838   2.42253  -2.00981
C     2.50798   0.33937   0.10626
O     3.37745   1.19844   0.24920
C     2.59865  -0.96743   0.81058
C     3.69652  -1.11334   1.82166
C     1.75561  -1.98862   0.51015
C     1.82453  -3.31567   1.19684
C     0.80857  -1.86023  -0.63566
O     0.50000  -2.84042  -1.30440
C     0.40115  -0.48917  -1.08286
O    -0.07833  -0.47068  -2.37790
C     0.86752  -0.69570  -3.42311
H    -3.78489   0.83800   1.24433
H    -2.64986   1.23345   2.57451
H    -4.09973   0.24472   2.88313
H    -2.70438  -1.52875   2.58976
H    -1.64874   1.58099  -2.33130
H    -3.28411   1.36392  -4.15077
H    -4.99594  -0.45662  -4.09472
H    -5.03338  -2.04782  -2.16948
H    -3.43725  -1.80965  -0.32957
H    -2.84355   2.27683  -0.27993
H    -1.34880   3.10117  -0.80325
H    -1.88455   3.19103   0.90024
H     3.02218   1.46505   4.29332
H     1.33789   1.16930   4.85909
H     2.24436  -0.13755   4.03038
H     3.17200   1.77955  -2.34889
H     1.96472   3.00556  -2.85674
H     2.69354   3.09303  -1.21744
H     3.34459  -1.64326   2.71794
H     4.52765  -1.70718   1.40271
H     4.09909  -0.13703   2.11515
H     1.14171  -4.03535   0.73051
H     1.54945  -3.20176   2.25846
H     2.84573  -3.72820   1.17124
H     1.26737  -1.72042  -3.38431
H     1.70000   0.02323  -3.38714
H     0.31926  -0.55813  -4.36532
