29
Generated by autodE on: 2022-10-07. E = -1177.113725 Ha
C     3.45715   0.80676  -2.47585
O     2.19658   0.83558  -1.78348
C     2.21799   0.49178  -0.50504
O     3.21146   0.20707   0.12925
C     0.86018   0.53455   0.14044
O    -0.23675   0.68330  -0.76365
C    -1.23079   0.75021   0.22417
C    -2.62029   1.13750  -0.27546
C    -2.75746   1.52082  -1.71520
O    -3.50221   1.25318   0.55599
O    -0.74512   1.84250   1.08927
C     0.60316   1.73614   1.06152
O     1.35787   2.43667   1.68084
C    -1.07702  -0.56509   0.99878
C    -1.84206  -1.69922   0.27884
O    -2.55211  -1.35740  -0.70671
O    -1.72797  -2.85041   0.75355
C     0.48023  -0.70523   1.01694
C     1.04061  -2.01055   0.39407
O     1.02768  -2.07052  -0.86327
O     1.47474  -2.87354   1.18934
H     3.86613  -0.21352  -2.46776
H     4.16985   1.49557  -2.00104
H     3.24315   1.12449  -3.50228
H    -3.81915   1.63532  -1.96969
H    -2.24208   2.48627  -1.86132
H    -2.27473   0.78472  -2.36996
H    -1.48010  -0.46422   2.01466
H     0.88087  -0.59595   2.03113
