19
Generated by autodE on: 2022-10-07. E = -722.000167 Ha
C    -4.24453  -0.43063   0.02089
O    -2.84429  -0.73945  -0.01630
C    -2.00142   0.30159   0.03893
O    -2.34786   1.46756   0.11747
C    -0.62488  -0.14220  -0.00566
O     0.36676   0.82365   0.05251
C     1.51525   0.23741   0.00142
C     2.79202   1.03660   0.04555
C     4.05516   0.24916  -0.01777
O     2.69466   2.24248   0.12808
O     1.43952  -1.04101  -0.08768
C    -0.04337  -1.41427  -0.10122
O    -0.35117  -2.56906  -0.18003
H    -4.76529  -1.39406  -0.02262
H    -4.49948   0.09687   0.95154
H    -4.52578   0.19174  -0.84112
H     4.09613  -0.45059   0.83375
H     4.06740  -0.36147  -0.93562
H     4.91569   0.92844   0.00386
