10
Generated by autodE on: 2022-10-07. E = -455.045666 Ha
O    -2.76885  -0.23561  -0.45210
C    -1.54010  -0.32040  -0.19068
O    -0.79739  -1.30077  -0.45587
C    -0.92490   0.88876   0.47586
C     0.40082   1.13128   0.56519
C     1.54811   0.22774   0.16014
O     1.99073   0.36196  -1.01038
O     2.02021  -0.51009   1.05087
H    -1.63833   1.67179   0.75953
H     0.72898   2.10026   0.96915
