29
Generated by autodE on: 2022-10-07. E = -1177.042616 Ha. Imaginary frequency = -346.3 cm-1
C     3.41747   0.02227  -2.31411
O     2.18010   0.47934  -1.75088
C     2.23448   0.95219  -0.50150
O     3.26646   1.16494   0.11413
C     0.91969   1.14946   0.07297
O    -0.22860   0.90910  -0.62637
C    -1.21070   0.90436   0.26911
C    -2.65539   1.03231  -0.17181
C    -2.89640   1.43571  -1.59569
O    -3.50987   1.00703   0.69480
O    -0.83721   1.59944   1.36090
C     0.58060   1.68937   1.34765
O     1.19058   2.14025   2.29040
C    -1.05333  -1.06417   1.04982
C    -1.88181  -1.87491   0.04442
O    -2.43631  -1.26213  -0.90877
O    -2.02019  -3.08707   0.32227
C     0.32063  -1.16313   1.17187
C     1.19891  -1.80920   0.12372
O     0.67086  -2.06988  -0.98832
O     2.40287  -2.00948   0.44642
H     3.81191  -0.80761  -1.71027
H     4.15387   0.83724  -2.35722
H     3.17687  -0.32612  -3.32495
H    -3.91217   1.13806  -1.88688
H    -2.82312   2.53658  -1.64514
H    -2.15719   1.00610  -2.28032
H    -1.61299  -0.79053   1.95201
H     0.81392  -0.86571   2.10055
