55
Generated by autodE on: 2022-06-08. E = -1830.095828 Ha
C     0.19858  -5.70281   7.23727
N    -1.03966  -5.13302   6.74302
C    -1.78575  -5.72165   5.80591
O    -1.57660  -6.84438   5.34442
C    -3.06267  -4.99082   5.29888
Cl   -3.12133  -3.22960   5.91777
C    -4.25288  -5.69100   5.97379
C    -5.65407  -5.11269   5.76980
C    -6.11999  -4.86889   4.33653
C    -6.15202  -6.07411   3.40414
C    -4.74937  -6.64820   2.92787
C    -4.29367  -7.78314   3.76509
N    -3.99820  -8.75589   4.32183
C    -5.01862  -7.37144   1.65862
N    -5.29187  -8.07244   0.77726
C    -3.67129  -5.55912   2.81082
C    -2.99662  -4.90891   3.77945
C    -1.98755  -3.93686   3.16816
C    -0.54190  -4.28256   3.48326
C     0.23842  -3.41075   4.25124
C     1.56658  -3.72734   4.55227
C     2.12354  -4.92014   4.08376
C     1.34940  -5.79354   3.31086
C     0.02381  -5.47648   3.01229
N    -2.27996  -3.96524   1.72993
C    -3.32093  -4.94346   1.43912
C    -2.82864  -5.93982   0.46971
N    -2.35870  -6.67436  -0.29473
C    -4.60987  -4.26141   0.85269
O    -5.54678  -4.95018   0.44595
N    -4.56890  -2.93277   0.89629
C    -5.65563  -2.07346   0.47632
H     0.49313  -6.53919   6.59235
H     0.08591  -6.07261   8.26911
H     0.98959  -4.94029   7.22072
H    -1.27305  -4.18066   7.00506
H    -4.21561  -6.74620   5.68958
H    -4.03492  -5.68417   7.05250
H    -6.35283  -5.80977   6.26103
H    -5.72886  -4.16161   6.31812
H    -5.53974  -4.05661   3.87381
H    -7.15654  -4.49779   4.38111
H    -6.71094  -6.91082   3.84779
H    -6.66672  -5.78000   2.48210
H    -2.18505  -2.93116   3.56197
H    -0.20066  -2.48227   4.62303
H     2.16615  -3.04047   5.15397
H     3.16008  -5.17138   4.32056
H     1.77954  -6.72873   2.94503
H    -0.58128  -6.17090   2.42420
H    -1.44632  -4.11324   1.16789
H    -3.68505  -2.54532   1.22884
H    -6.50898  -2.69422   0.17773
H    -5.35273  -1.44900  -0.37827
H    -5.96436  -1.41190   1.29969
