26
Generated by autodE on: 2022-07-27. E = -665.570421 Ha
C    -3.90537   2.22889  -0.49432
N    -2.67265   1.46382  -0.48273
C    -2.59802   0.27302  -1.14821
O    -3.58355  -0.19307  -1.75027
C    -1.33910  -0.45880  -1.11058
C    -1.17315  -1.55918  -1.96442
N    -1.00787  -2.48124  -2.66765
N    -0.30935  -0.11684  -0.24960
C     0.90692  -0.59993  -0.16915
C     1.88155  -0.20256   0.82171
C     1.62629   0.74352   1.84011
C     2.62424   1.08338   2.74869
C     3.89123   0.48966   2.66758
C     4.15477  -0.45106   1.66667
C     3.16147  -0.79530   0.75207
H    -4.74912   1.59907  -0.17926
H    -4.14117   2.63377  -1.49398
H    -3.81037   3.06604   0.20925
H    -1.82193   1.98901  -0.30976
H    -0.56630   0.58777   0.44647
H     1.18660  -1.35464  -0.90755
H     0.64678   1.21927   1.93158
H     2.41371   1.81642   3.53045
H     4.66885   0.76026   3.38521
H     5.13963  -0.91826   1.59838
H     3.36573  -1.52836  -0.03168
