29
Generated by autodE on: 2022-06-08. E = -1164.435807 Ha
C    -0.61154   4.76470  -1.29427
N    -0.13834   3.68109  -0.45203
C    -0.29273   2.40453  -0.80812
O    -0.82934   2.03803  -1.85547
C     0.31245   1.31674   0.10563
Cl    0.57053   1.92832   1.83042
C    -0.52148   0.13088   0.18346
C    -0.82373  -1.03827   0.23897
C    -0.58164  -2.48452   0.17260
C    -0.93512  -2.98908  -1.17264
N    -1.17126  -3.37804  -2.23798
C    -1.35583  -3.23999   1.17795
N    -1.93366  -3.83203   1.98876
C     0.96536  -2.68860   0.43304
C     1.88840  -1.79443  -0.41394
C     2.29708  -0.40669   0.15412
C     1.67935   0.85653  -0.47237
H    -0.15240   4.71389  -2.29327
H    -1.70507   4.72294  -1.41797
H    -0.34294   5.71849  -0.82532
H     0.28627   3.89241   0.44522
H     1.17312  -3.75145   0.24276
H     1.12159  -2.50301   1.50568
H     1.47879  -1.68626  -1.43243
H     2.81299  -2.37776  -0.53576
H     2.15245  -0.38494   1.24653
H     3.38180  -0.30603   0.00131
H     2.36672   1.70890  -0.36705
H     1.51578   0.70059  -1.55056
