55
Generated by autodE on: 2022-06-08. E = -1830.005665 Ha. Imaginary frequency = -65.9 cm-1
C     0.15100  -5.30809   7.25901
N    -1.11102  -4.90723   6.66716
C    -1.73802  -5.63932   5.74289
O    -1.35545  -6.74151   5.34594
C    -3.08924  -5.11356   5.19986
Cl   -3.19737  -3.26498   5.33410
C    -4.24134  -5.73375   6.02829
C    -5.67734  -5.24305   5.74330
C    -6.15925  -4.90015   4.31982
C    -6.45586  -5.98972   3.28545
C    -5.23271  -6.88907   2.82880
C    -5.12363  -8.05405   3.73748
N    -5.05346  -8.94873   4.47120
C    -5.51029  -7.44482   1.48758
N    -5.77981  -7.93720   0.47476
C    -3.97305  -6.11593   2.97168
C    -3.29532  -5.52598   3.80935
C    -1.55952  -4.22981   2.44205
C    -0.25835  -4.34224   3.08252
C     0.14207  -3.31475   3.96052
C     1.37344  -3.37738   4.61027
C     2.22137  -4.46926   4.40267
C     1.82831  -5.50194   3.54195
C     0.59944  -5.44499   2.88975
N    -1.86799  -4.89048   1.33766
C    -3.07829  -5.05100   0.70633
C    -3.10165  -6.01305  -0.32998
N    -3.09521  -6.80341  -1.18991
C    -4.26565  -4.17753   0.81658
O    -5.36726  -4.58835   0.41372
N    -4.12286  -2.94260   1.34567
C    -5.26914  -2.07700   1.54910
H     0.68475  -5.97376   6.56986
H    -0.00123  -5.83846   8.21365
H     0.76498  -4.41769   7.44485
H    -1.48378  -3.98989   6.88924
H    -4.14802  -6.81787   5.87059
H    -4.02511  -5.55588   7.09284
H    -6.35603  -5.99099   6.18594
H    -5.82169  -4.32225   6.32871
H    -5.49563  -4.14904   3.87067
H    -7.12489  -4.38380   4.44831
H    -7.24431  -6.67389   3.63109
H    -6.81735  -5.49384   2.37562
H    -2.23211  -3.45229   2.78753
H    -0.52356  -2.46691   4.12925
H     1.67022  -2.57296   5.28660
H     3.18240  -4.52338   4.91871
H     2.48059  -6.36437   3.38877
H     0.30103  -6.27757   2.24843
H    -1.15510  -5.54372   1.00526
H    -3.19931  -2.54147   1.45914
H    -6.05945  -2.61432   2.09277
H    -5.69142  -1.71624   0.59649
H    -4.95390  -1.21324   2.14763
