56
Generated by autodE on: 2022-06-24. E = -1510.620782 Ha
C    -0.57199   3.92165  -2.78346
O    -0.08052   3.02747  -1.77386
C    -0.91412   2.74410  -0.77943
O    -1.99788   3.26982  -0.63957
C    -0.29187   1.76922   0.24067
C    -0.28061   2.51668   1.59709
O     0.73558   3.00345   2.04644
O    -1.47122   2.61562   2.16551
C    -1.53297   3.30439   3.42650
N     1.03542   1.36091  -0.15355
C     1.46346   0.19549   0.61449
C     2.34469  -0.75087  -0.18029
C     3.12113  -1.69365   0.50875
C     3.88110  -2.63560  -0.18882
C     3.88071  -2.63910  -1.58742
C     3.12073  -1.69115  -2.28075
C     2.35776  -0.75279  -1.58066
C     0.11076  -0.40994   1.15376
O     0.07359  -0.04822   2.51308
C    -0.98742  -0.47652   3.37061
C     0.05164  -1.92092   0.96291
O     0.30806  -2.66639   1.89406
C    -0.23633  -2.43976  -0.39614
C     0.13336  -3.86133  -0.67080
C    -0.76745  -1.64091  -1.36506
C    -0.99347  -2.15273  -2.75267
C    -1.06684  -0.21558  -1.11307
O    -1.47785   0.51530  -2.00393
C    -0.96266   0.34227   0.32153
O    -2.18948   0.15654   0.95881
C    -3.39108   0.72350   0.43968
H     0.24744   4.04432  -3.50063
H    -1.45036   3.48278  -3.27842
H    -0.84363   4.89076  -2.34160
H    -1.22496   4.35216   3.30229
H    -2.57894   3.24827   3.74720
H    -0.87938   2.81008   4.15863
H     1.70412   2.12656  -0.12270
H     2.00358   0.46955   1.53350
H     3.11506  -1.69671   1.60152
H     4.47689  -3.36780   0.36134
H     4.47394  -3.37526  -2.13499
H     3.11847  -1.68382  -3.37340
H     1.75523  -0.01976  -2.11754
H    -1.52944  -1.34434   2.97771
H    -1.70235   0.34301   3.52911
H    -0.52889  -0.74918   4.33317
H     0.45352  -4.37072   0.24511
H    -0.70761  -4.41326  -1.11845
H     0.96014  -3.89249  -1.40141
H    -1.62447  -3.05525  -2.74222
H    -0.03037  -2.44327  -3.20597
H    -1.46573  -1.39332  -3.38569
H    -3.40688   1.81085   0.58044
H    -3.53452   0.49371  -0.62703
H    -4.20477   0.26232   1.01532
