30
Generated by autodE on: 2022-06-24. E = -821.142322 Ha
C    -3.89272   2.58857  -0.24225
O    -3.24998   1.31424  -0.13797
C    -1.90910   1.32029  -0.12799
O    -1.26324   2.37136  -0.20873
C    -1.25967   0.02848  -0.01660
N     0.12466   0.17565  -0.01271
C     1.11853  -0.66632   0.06477
C     2.50992  -0.25808   0.04901
C     3.48420  -1.27499   0.12908
C     4.84216  -0.95988   0.11912
C     5.24988   0.37469   0.02972
C     4.29090   1.39386  -0.04992
C     2.93342   1.08613  -0.04069
C    -1.83360  -1.28846   0.08198
O    -1.17134  -2.32525   0.17269
O    -3.18372  -1.32396   0.06809
C    -3.78414  -2.61723   0.16116
H    -4.96973   2.38207  -0.23496
H    -3.61312   3.09451  -1.17820
H    -3.62764   3.23256   0.60935
H     0.35111   1.17746  -0.09084
H     0.86953  -1.72230   0.14447
H     3.16063  -2.31604   0.19888
H     5.58520  -1.75795   0.18163
H     6.31336   0.62383   0.02208
H     4.60712   2.43693  -0.11928
H     2.20751   1.90104  -0.10274
H    -3.48842  -3.25267  -0.68725
H    -3.50235  -3.11844   1.09938
H    -4.86759  -2.44713   0.13976
