26
Generated by autodE on: 2022-06-24. E = -689.460846 Ha
C    -2.28955   2.43364  -0.60387
O    -0.91095   2.24161  -0.27020
C    -0.36047   1.03387  -0.15024
C    -0.91899  -0.19262  -0.35453
O    -2.20202  -0.36471  -0.78937
C    -3.12905  -0.86687   0.17867
C    -0.10694  -1.41830  -0.19571
O    -0.61079  -2.51349  -0.43860
C     1.31711  -1.31398   0.24479
C     2.08223  -2.58647   0.42794
C     1.88400  -0.09892   0.44867
C     3.31193   0.05430   0.87327
C     1.08592   1.13896   0.25543
O     1.57081   2.24872   0.42798
H    -2.94490   1.97509   0.15028
H    -2.43719   3.52105  -0.60475
H    -2.51639   2.02583  -1.59734
H    -4.10202  -0.93514  -0.32579
H    -2.83357  -1.86362   0.53806
H    -3.20895  -0.17606   1.03453
H     1.46064  -3.45993   0.19935
H     2.45053  -2.67250   1.46379
H     2.97216  -2.60288  -0.22281
H     3.49111  -0.46255   1.83047
H     3.98958  -0.40604   0.13546
H     3.58102   1.11094   0.98751
