56
Generated by autodE on: 2022-06-24. E = -1510.598178 Ha. Imaginary frequency = -357.0 cm-1
C    -1.67663   3.17091  -3.29222
O    -1.26441   2.90039  -1.94373
C    -0.23387   2.07853  -1.78554
O     0.33755   1.52457  -2.71774
C     0.17782   1.84793  -0.38501
C    -0.20424   2.76988   0.69461
O    -1.21148   3.45701   0.70238
O     0.68071   2.77793   1.70488
C     0.34956   3.58107   2.84534
N     1.23830   0.98898  -0.30444
C     1.52196   0.21377   0.79454
C     2.66779  -0.72060   0.69470
C     3.35903  -1.05663   1.86984
C     4.42698  -1.95470   1.83245
C     4.81784  -2.52761   0.61882
C     4.13052  -2.20349  -0.55639
C     3.05810  -1.31307  -0.51935
C    -0.06562  -0.75385   1.22542
O     0.28557  -1.13234   2.51205
C    -0.64221  -1.98983   3.17785
C     0.00207  -1.84213   0.19617
O     0.57231  -2.89528   0.45361
C    -0.57976  -1.56441  -1.13367
C    -0.16066  -2.44048  -2.27559
C    -1.55042  -0.61909  -1.25991
C    -2.28292  -0.42609  -2.55070
C    -1.97711   0.24389  -0.11167
O    -2.99535   0.94570  -0.19505
C    -1.18474   0.14963   1.11502
O    -1.49636   0.77488   2.24766
C    -2.81282   1.26412   2.56426
H    -0.85350   3.63025  -3.85781
H    -1.99652   2.24639  -3.79130
H    -2.51807   3.86811  -3.21019
H     1.16463   3.43073   3.56261
H    -0.60477   3.25678   3.28290
H     0.28325   4.64173   2.56390
H     1.51077   0.63202  -1.22275
H     1.48326   0.75250   1.74015
H     3.05407  -0.60556   2.81571
H     4.95817  -2.20455   2.75362
H     5.65498  -3.22884   0.58754
H     4.42511  -2.65460  -1.50643
H     2.51655  -1.10348  -1.44509
H    -1.63129  -1.51507   3.27587
H    -0.23103  -2.17225   4.17978
H    -0.74674  -2.95036   2.65042
H     0.62850  -3.13691  -1.96763
H    -1.00983  -3.02664  -2.66443
H     0.21188  -1.82544  -3.11060
H    -1.57777  -0.32760  -3.38849
H    -2.92790   0.45870  -2.51225
H    -2.91422  -1.30551  -2.76577
H    -3.56528   0.48788   2.37249
H    -2.77556   1.48771   3.63783
H    -3.04492   2.16983   1.99651
