32
Generated by autodE on: 2022-05-28. E = -851.476730 Ha
F    -2.22028   1.98994   0.42951
C    -1.87378   0.79749  -0.18271
N    -1.46348   1.03538  -1.54772
N    -0.11439   0.88048  -1.71850
C     0.41839   0.32760  -0.67705
C     1.83111  -0.05259  -0.60436
C     2.40125  -0.47957   0.61062
C     3.74735  -0.84716   0.67213
C     4.54742  -0.79376  -0.47233
C     3.99003  -0.36840  -1.68517
C     2.64734  -0.00369  -1.75289
C    -0.58339   0.16283   0.44838
F    -0.15718   0.88614   1.55952
C    -1.04787  -1.25427   0.82157
C    -1.96919  -1.13550   2.05414
C    -3.24543  -0.44224   1.48684
C    -2.93554  -0.28996  -0.01767
C    -2.07086  -1.53707  -0.29891
H    -1.86889   1.82950  -2.03864
H     1.79370  -0.51147   1.51494
H     4.17260  -1.17535   1.62350
H     5.59969  -1.08299  -0.42227
H     4.60754  -0.32658  -2.58567
H     2.21199   0.31795  -2.70016
H    -0.22307  -1.96920   0.92880
H    -2.19579  -2.14174   2.43404
H    -1.50072  -0.56761   2.86760
H    -4.13780  -1.06911   1.62161
H    -3.44521   0.52899   1.95891
H    -3.81010  -0.13699  -0.66302
H    -1.63714  -1.55525  -1.30891
H    -2.61802  -2.47513  -0.13046
