17
Generated by autodE on: 2022-05-28. E = -471.410363 Ha
F    -1.05224   1.98190   0.26279
C    -0.40046   0.81572   0.35744
C     0.82280   0.51690  -0.09633
F     1.67717   1.31522  -0.74930
C     1.00171  -0.98019   0.01292
C     0.06228  -1.61423  -1.06727
C    -1.36186  -1.26644  -0.53893
C    -1.06353  -0.47575   0.77915
C     0.17549  -1.24293   1.29135
H     2.04227  -1.32776  -0.00615
H     0.21950  -2.70210  -1.11081
H     0.26317  -1.20333  -2.06682
H    -1.94847  -0.66343  -1.24644
H    -1.93788  -2.17529  -0.31032
H    -1.91466  -0.36143   1.46214
H    -0.02351  -2.31217   1.45900
H     0.61895  -0.79452   2.19150
