15
Generated by autodE on: 2022-05-28. E = -379.942339 Ha
N     3.77943   0.35084   0.60022
N     2.55831   0.13781   0.37351
C     1.39895   0.07196   0.19956
C    -0.00306  -0.01149  -0.00545
C    -0.82603   1.10785   0.25323
C    -2.20175   1.01865   0.04934
C    -2.77775  -0.17117  -0.41040
C    -1.96463  -1.28103  -0.66729
C    -0.58689  -1.21165  -0.46967
H     4.30194  -0.50920   0.38991
H    -0.37639   2.03538   0.61159
H    -2.83039   1.88876   0.25220
H    -3.85662  -0.23334  -0.56818
H    -2.40772  -2.21276  -1.02641
H     0.04724  -2.07683  -0.67036
