32
Generated by autodE on: 2022-05-28. E = -851.347951 Ha. Imaginary frequency = -322.3 cm-1
F    -2.63106   1.98243   0.53667
C    -2.05821   0.78713   0.30011
N    -1.26090   1.37800  -2.02825
N    -0.05929   1.22001  -1.68289
C     0.69739   0.73927  -0.86534
C     1.98007   0.08957  -0.77220
C     2.56862  -0.10391   0.49339
C     3.79852  -0.75254   0.60059
C     4.45446  -1.20868  -0.54783
C     3.87686  -1.01832  -1.80941
C     2.64508  -0.37774  -1.92630
C    -0.87804   0.38371   0.86443
F    -0.21579   1.12230   1.79348
C    -0.93774  -1.12565   0.97161
C    -2.00547  -1.43698   2.06876
C    -3.33809  -0.97268   1.40630
C    -2.87451  -0.44218   0.00778
C    -1.73902  -1.43791  -0.30859
H    -1.41403   2.34658  -2.34214
H     2.04881   0.25845   1.38084
H     4.24949  -0.90098   1.58420
H     5.41861  -1.71491  -0.46085
H     4.38940  -1.37528  -2.70561
H     2.18540  -0.23060  -2.90554
H     0.02704  -1.63262   1.09815
H    -2.01974  -2.51452   2.29068
H    -1.78278  -0.90392   3.00439
H    -4.03832  -1.81162   1.27746
H    -3.85376  -0.18940   1.98047
H    -3.66985  -0.32583  -0.73875
H    -1.20143  -1.20386  -1.23648
H    -2.09334  -2.47864  -0.33491
