50
Generated by autodE on: 2022-06-04. E = -3611.781757 Ha
C    -2.95509  -2.98065   0.97123
N    -2.00188  -2.20622   0.20781
C    -2.34465  -1.10293  -0.47098
O    -3.51558  -0.73734  -0.62518
C    -1.15531  -0.27197  -1.03608
C    -1.61645   0.28226  -2.39448
N     0.05291  -1.10031  -1.10358
C     0.09906  -2.08576  -2.17018
C     1.28522  -0.33197  -0.86043
C     1.86099   0.23463  -2.17885
C     2.35390  -1.22157  -0.20083
C     2.02884  -2.45175   0.39026
C     2.99569  -3.22038   1.04469
C     4.31643  -2.77282   1.12864
C     4.65739  -1.55030   0.54339
C     3.68908  -0.78961  -0.11744
C     0.82044   0.81929   0.13133
C     1.54099   2.13965  -0.11996
C     0.95718   0.39459   1.64871
C     0.53908   1.56943   2.51797
C    -0.79321   1.62505   2.41882
C    -1.16946   0.47042   1.50143
O    -0.16112  -0.49575   1.81024
C    -0.75888   0.82924   0.02331
Br   -1.55172   2.59421  -0.41015
H    -3.88143  -3.11308   0.39505
H    -3.21344  -2.48674   1.92483
H    -2.52973  -3.96812   1.19373
H    -1.00300  -2.31085   0.36829
H    -2.57290   0.80210  -2.28587
H    -1.76673  -0.54852  -3.09762
H    -0.88495   0.97644  -2.82387
H    -0.80003  -2.71746  -2.13303
H     0.96882  -2.74257  -2.02861
H     0.16615  -1.65756  -3.18620
H     2.15194  -0.59177  -2.84163
H     1.12362   0.85205  -2.70662
H     2.75250   0.84919  -2.01692
H     1.00411  -2.81495   0.34348
H     2.71041  -4.17532   1.49314
H     5.07276  -3.37068   1.64278
H     5.68502  -1.18267   0.59889
H     3.98562   0.16307  -0.55635
H     1.37358   2.52153  -1.13338
H     2.62339   2.00378   0.02522
H     1.19928   2.91037   0.58089
H     1.89796  -0.09663   1.90534
H     1.21699   2.25107   3.03054
H    -1.48629   2.35661   2.83043
H    -2.17911   0.06600   1.61461
