16
Generated by autodE on: 2022-06-04. E = -2920.439889 Ha
C    -2.21919  -1.29556  -0.19695
C    -0.82299  -0.94061  -0.54510
C    -0.03274   0.08390  -0.20232
Br   -0.39578   1.54374   0.92414
C     1.37382  -0.23389  -0.76131
C     1.91532  -1.43690   0.04871
C     1.14065  -2.46401  -0.31281
C     0.14407  -1.86797  -1.33405
O     0.98913  -0.89243  -1.97953
H    -2.23696  -2.22718   0.39667
H    -2.70464  -0.50211   0.38917
H    -2.81945  -1.48657  -1.10240
H     2.04616   0.61330  -0.93379
H     2.71700  -1.38850   0.78485
H     1.13210  -3.49262   0.04602
H    -0.32120  -2.55397  -2.05089
