34
Generated by autodE on: 2022-06-04. E = -691.254514 Ha
C     4.25719   1.40485  -0.76182
N     3.11047   0.56094  -1.01334
C     2.38077   0.04084   0.03351
O     2.82608   0.17668   1.20474
C     1.14801  -0.62146  -0.30319
C     0.56643  -0.55780  -1.68139
N     0.39768  -1.18989   0.72808
C     1.10135  -2.05029   1.70097
C    -0.93724  -1.14706   0.78640
C    -1.66653  -2.17283   1.60559
C    -1.69992  -0.07387   0.13163
C    -1.20854   1.25061   0.09137
C    -1.98162   2.28529  -0.42857
C    -3.25569   2.02818  -0.95209
C    -3.74925   0.72085  -0.93590
C    -2.98638  -0.31543  -0.39410
H     3.99630   2.33296  -0.22013
H     5.01381   0.87812  -0.16036
H     4.71270   1.68291  -1.72156
H     2.67261   0.63578  -1.92226
H     1.34617  -0.75990  -2.43520
H     0.09962   0.41152  -1.94886
H    -0.21328  -1.32451  -1.80512
H     0.86585  -1.74691   2.72956
H     2.17481  -1.97063   1.53282
H     0.78435  -3.09182   1.55206
H    -2.74957  -2.02480   1.53943
H    -1.39287  -2.10439   2.67159
H    -1.43636  -3.20203   1.28146
H    -0.21539   1.46667   0.48877
H    -1.58558   3.30373  -0.42852
H    -3.85372   2.84015  -1.37200
H    -4.73724   0.50232  -1.34839
H    -3.38909  -1.32984  -0.39432
