23
Generated by autodE on: 2022-06-01. E = -605.333745 Ha
C     1.56199   2.62662   0.12940
N     1.79943   1.48542   0.99420
C     0.95562   0.46745   1.20563
O     1.26359  -0.59439   1.75249
C    -0.50620   0.68818   0.87325
C    -1.26395   1.67666   1.69341
N    -1.10790  -0.09672   0.01484
C    -2.58221  -0.07265  -0.06580
C    -0.42772  -0.92360  -0.91103
C     0.85986  -0.59488  -1.35752
N     1.92652  -0.31986  -1.75617
C    -1.04473  -2.08084  -1.41060
N    -1.53271  -3.05012  -1.85261
H     0.51454   2.64935  -0.19663
H     2.19078   2.56063  -0.77202
H     1.78655   3.56744   0.65280
H     2.75940   1.31034   1.28683
H    -1.88858   1.15510   2.43950
H    -1.93358   2.28964   1.07062
H    -0.57130   2.33569   2.23019
H    -2.92248  -0.89042  -0.70661
H    -2.90243   0.88429  -0.49986
H    -3.00986  -0.18795   0.93649
