19
Generated by autodE on: 2022-06-01. E = -995.131156 Ha
C     3.47518  -1.33417   0.91782
O     2.14806  -1.27444   0.38058
C     1.57075  -0.06048   0.33690
O     2.12102   0.95554   0.72298
C     0.22344  -0.13899  -0.22211
C    -0.74866   0.79261  -0.25472
Cl   -0.77515   2.40039   0.31481
C    -1.99935   0.08290  -0.82544
C    -2.46463  -0.91502   0.25999
C    -1.51394  -1.85290   0.28586
C    -0.48102  -1.40621  -0.77315
O    -1.35341  -0.80236  -1.74934
H     4.16235  -0.71916   0.31829
H     3.48684  -0.98041   1.95918
H     3.77311  -2.38808   0.87271
H    -2.74975   0.72576  -1.29638
H    -3.35374  -0.79550   0.87735
H    -1.40876  -2.72399   0.93131
H     0.16936  -2.16953  -1.20965
