42
Generated by autodE on: 2022-06-01. E = -1600.457709 Ha. Imaginary frequency = -307.3 cm-1
C    -4.39134   0.84728  -2.47824
N    -3.30245   0.26589  -1.71340
C    -3.48103  -0.15449  -0.45395
O    -4.55586  -0.05371   0.14482
C    -2.31149  -0.87512   0.20626
C    -2.32288  -2.34387  -0.14309
C    -0.31911  -0.49680  -0.76141
C    -0.05938   1.02709  -0.85892
O     0.28297   1.33671   0.49408
C     1.34132   0.36772   0.61086
C     2.22398   0.76827  -0.59550
C     3.66534   0.56221  -0.72328
O     4.35285   0.91635  -1.66419
O     4.15476  -0.08623   0.34826
C     5.56136  -0.36076   0.34659
C     1.32822   1.17869  -1.51563
Cl    1.53030   1.63755  -3.14603
C     0.58911  -0.90749   0.20387
C    -0.94920  -1.04494   2.15201
C    -0.23924  -0.31145   3.13811
N     0.40970   0.23910   3.93691
C    -0.87437  -2.45224   2.34933
N    -0.74549  -3.58848   2.58123
N    -1.97391  -0.42729   1.43837
C    -2.38189   0.92943   1.84649
H    -4.00739   1.15753  -3.45725
H    -4.80642   1.72619  -1.96214
H    -5.20625   0.12092  -2.62627
H    -2.40269   0.13183  -2.16040
H    -1.37613  -2.85496   0.04912
H    -3.11994  -2.84183   0.43461
H    -2.55783  -2.45280  -1.20961
H    -0.60199  -1.09026  -1.63108
H    -0.85110   1.67130  -1.25170
H     1.82292   0.39850   1.59128
H     5.83035  -0.99242  -0.51270
H     5.76782  -0.88928   1.28444
H     6.13688   0.57552   0.30332
H     0.99208  -1.90864   0.34591
H    -1.63475   1.36084   2.51672
H    -3.34980   0.87789   2.36101
H    -2.46610   1.57899   0.96950
