39
Generated by autodE on: 2022-06-21. E = -1179.623331 Ha
C     3.56685  -1.75286  -1.62379
O     2.83731  -0.78535  -0.84726
C     1.79396  -1.24591  -0.17418
O     1.40109  -2.40148  -0.15827
N     1.18110  -0.26989   0.57247
O     1.63034   1.07109   0.40264
C     0.51432   1.91180   0.72077
C     0.67082   3.15648  -0.02959
N     0.87297   4.18614  -0.52278
C    -0.72209   1.00867   0.44821
O    -1.90324   1.36546   1.09099
C    -2.45386   2.65486   0.81627
C    -0.95842   0.83742  -1.07181
O    -0.92793   1.83823  -1.77070
C    -1.28819  -0.49062  -1.63071
C    -1.62074  -0.55910  -3.08900
C    -1.29670  -1.60730  -0.84971
C    -1.65419  -2.95316  -1.39077
C    -0.98943  -1.52061   0.59581
O    -1.40231  -2.32178   1.40751
C    -0.17382  -0.29717   1.07925
O    -0.23484  -0.17103   2.46335
C     0.66685  -0.99304   3.20910
H     3.97528  -2.53644  -0.97059
H     4.37852  -1.19433  -2.10282
H     2.91226  -2.20263  -2.38324
H     0.50651   2.16194   1.79473
H    -1.78436   3.45850   1.16417
H    -3.39281   2.70606   1.38215
H    -2.66731   2.79471  -0.25418
H    -1.51625   0.42144  -3.56671
H    -2.65499  -0.91350  -3.23176
H    -0.96451  -1.28136  -3.60039
H    -2.64185  -2.92941  -1.87855
H    -1.66518  -3.71017  -0.59799
H    -0.92574  -3.25202  -2.16229
H     0.69000  -2.02474   2.83086
H     0.29618  -0.99523   4.24242
H     1.68495  -0.57325   3.18993
