13
Generated by autodE on: 2022-07-27. E = -490.079111 Ha
C     1.00190  -2.70996  -0.81046
O     0.29645  -2.04888   0.24773
C     0.37588  -0.71163   0.26610
O     0.99943  -0.05179  -0.56067
N    -0.26175  -0.25200   1.39303
O    -0.27670   1.10989   1.47142
C    -0.43449   1.97251   0.54463
C    -0.81517   1.69581  -0.79195
N    -1.23787   1.57928  -1.87038
H     0.79097  -3.77892  -0.68928
H     2.08377  -2.52824  -0.72940
H     0.64522  -2.36146  -1.79082
H    -0.38505   3.01141   0.88780
