39
Generated by autodE on: 2022-06-21. E = -1179.547282 Ha. Imaginary frequency = -181.6 cm-1
C     2.74113  -2.86986  -1.30490
O     2.16612  -2.17691  -0.19400
C     2.35943  -0.84187  -0.16089
O     3.02682  -0.23153  -0.99122
N     1.74513  -0.34484   0.94879
O     1.74375   1.04514   1.00238
C     1.13034   1.76792   0.11617
C     1.00267   1.47548  -1.27100
N     0.79736   1.37410  -2.41250
C    -1.23285   1.17774   0.63768
O    -1.51826   2.24524   1.40317
C    -1.67632   3.55881   0.85287
C    -1.83626   1.00656  -0.71848
O    -2.51048   1.89904  -1.21459
C    -1.56937  -0.25907  -1.45675
C    -1.91838  -0.29330  -2.91179
C    -1.09105  -1.35031  -0.80639
C    -0.85551  -2.65275  -1.50345
C    -0.85720  -1.31388   0.66302
O    -0.75408  -2.34530   1.31248
C    -0.84018   0.02001   1.33647
O    -0.62114   0.18594   2.61924
C    -0.05688  -0.81045   3.48942
H     2.42019  -3.91375  -1.20841
H     3.83955  -2.81139  -1.27598
H     2.38050  -2.45168  -2.25590
H     1.02838   2.81494   0.41549
H    -2.72155   3.73674   0.56778
H    -1.38569   4.25286   1.65300
H    -1.03323   3.71381  -0.02450
H    -2.19370   0.70176  -3.27947
H    -2.76614  -0.97728  -3.08761
H    -1.07261  -0.67408  -3.50370
H    -1.78579  -3.02323  -1.96482
H    -0.47969  -3.41340  -0.81032
H    -0.12752  -2.52177  -2.32009
H    -0.79211  -1.59556   3.70124
H     0.19798  -0.26629   4.40691
H     0.84127  -1.23849   3.02741
