47
Generated by autodE on: 2022-06-21. E = -1127.403700 Ha
C     3.45533  -2.53699  -1.16969
N     2.43606  -1.61206  -0.71956
C     2.68900  -0.32448  -0.47911
O     3.82351   0.16700  -0.61293
C     1.45274   0.53365  -0.11740
C     1.72424   1.65246   0.92305
O     0.76246   2.18954   1.48932
N     2.98820   2.03197   1.12790
C     3.31870   3.12499   2.01917
C     0.95041   1.23070  -1.42624
C    -0.30541   0.45001  -1.80655
C    -0.88784   0.00560  -0.45259
C    -1.65366   1.17650   0.20390
O    -1.85426   2.25950  -0.30828
O    -2.08589   0.85620   1.42390
C    -2.71889   1.89686   2.18135
C    -1.83656  -1.17880  -0.62758
C    -1.39735  -2.50446  -0.51791
C    -2.27279  -3.56736  -0.76188
C    -3.59968  -3.32084  -1.12365
C    -4.04501  -2.00055  -1.24215
C    -3.16994  -0.94055  -0.99584
N     0.33364  -0.31341   0.29221
C     0.30062  -0.78425   1.66483
H     3.02621  -3.54531  -1.21427
H     3.83057  -2.26565  -2.16993
H     4.31121  -2.54383  -0.47750
H     1.46718  -1.89928  -0.61081
H     3.70088   1.55867   0.56716
H     4.40950   3.23223   2.06245
H     2.94065   2.93660   3.03611
H     2.88297   4.07580   1.67053
H     0.69727   2.27547  -1.20775
H     1.72159   1.22434  -2.20701
H    -0.04961  -0.45243  -2.37791
H    -1.02136   1.04348  -2.38757
H    -3.61881   2.25833   1.66354
H    -2.01949   2.73164   2.33200
H    -2.98891   1.44886   3.14453
H    -0.36753  -2.71998  -0.23350
H    -1.91196  -4.59419  -0.66561
H    -4.28344  -4.15189  -1.31170
H    -5.07885  -1.79284  -1.52810
H    -3.53195   0.08520  -1.10131
H     0.12761   0.01249   2.40556
H     1.26208  -1.26806   1.89966
H    -0.48931  -1.53730   1.78306
