41
Generated by autodE on: 2022-07-27. E = -1048.696802 Ha
C     4.93339  -0.15183  -1.19268
N     3.80373   0.11779  -0.33351
C     2.69086  -0.66081  -0.36763
O     2.66235  -1.71817  -1.04069
C     1.54066  -0.20962   0.40105
C     1.46752   1.02589   1.15524
O     2.33473   1.93138   1.05355
N     0.45243   1.18261   2.06336
C     0.10771   2.49880   2.56273
N     0.37753  -1.02745   0.31189
C     0.40537  -2.37560   0.89326
C    -0.67912  -0.48875  -0.25232
C    -0.38973   0.69296  -1.15685
O     0.15573   0.57494  -2.23312
O    -0.88206   1.82007  -0.66172
C    -0.60455   3.02931  -1.39311
C    -2.06397  -0.90680  -0.08181
C    -2.96691  -0.72109  -1.15063
C    -4.30278  -1.08533  -1.00901
C    -4.76068  -1.61218   0.20428
C    -3.87817  -1.77237   1.27842
C    -2.53578  -1.42722   1.14118
H     5.74293   0.54901  -0.94950
H     4.68899  -0.03934  -2.26479
H     5.30795  -1.17698  -1.04794
H     3.68279   1.03071   0.10777
H    -0.28395   0.48824   2.09289
H    -0.68317   2.39475   3.31698
H    -0.25805   3.16886   1.76398
H     0.97638   2.97804   3.03576
H    -0.38798  -2.99707   0.46276
H     1.38605  -2.79959   0.65192
H     0.29590  -2.31122   1.98435
H    -1.12745   3.82949  -0.85868
H    -0.97481   2.94678  -2.42399
H     0.47931   3.21259  -1.39393
H    -2.61292  -0.30974  -2.09814
H    -4.99209  -0.95369  -1.84536
H    -5.81134  -1.88893   0.31621
H    -4.24009  -2.16259   2.23172
H    -1.86326  -1.52735   1.99299
