41
Generated by autodE on: 2022-06-21. E = -1048.697381 Ha
C     2.54887   1.65767  -3.30555
N     2.55804   1.12169  -1.96421
C     1.44036   0.62402  -1.39028
O     0.33899   0.66032  -1.98917
C     1.59543   0.01254  -0.06612
C     2.80594   0.14171   0.73065
O     3.92999   0.40920   0.23914
N     2.67870   0.00529   2.08022
C     3.81582   0.15506   2.96422
N     0.48624  -0.67501   0.43331
C     0.69438  -2.05516   0.92322
C    -0.74234  -0.20009   0.27931
C    -0.93735   1.28456   0.19979
O    -0.21933   2.11033   0.72906
O    -2.06007   1.58995  -0.44771
C    -2.37721   2.98455  -0.55961
C    -1.92565  -1.07407   0.25852
C    -1.98927  -2.16763  -0.62451
C    -3.11900  -2.98533  -0.64961
C    -4.19479  -2.72507   0.20550
C    -4.14334  -1.63232   1.07846
C    -3.02152  -0.80498   1.10009
H     2.47405   0.86959  -4.07606
H     1.69614   2.33898  -3.44511
H     3.47886   2.21626  -3.47531
H     3.42938   0.96287  -1.45451
H     1.75092   0.02330   2.48791
H     3.51606  -0.13414   3.97985
H     4.19128   1.19305   2.99122
H     4.64535  -0.49270   2.64425
H    -0.08891  -2.31999   1.64176
H     0.68393  -2.75320   0.07715
H     1.67365  -2.10438   1.40601
H    -2.49559   3.43426   0.43647
H    -3.32036   3.03473  -1.11517
H    -1.58174   3.50932  -1.10825
H    -1.16189  -2.35636  -1.31045
H    -3.16214  -3.82595  -1.34575
H    -5.07719  -3.36876   0.18651
H    -4.98307  -1.42278   1.74473
H    -2.98392   0.04776   1.78103
