47
Generated by autodE on: 2022-06-21. E = -1127.301803 Ha. Imaginary frequency = -321.8 cm-1
C     5.11670  -1.13182  -0.43342
N     3.92944  -0.45492   0.04318
C     2.70469  -0.99557  -0.14686
O     2.57366  -2.13518  -0.62061
C     1.53859  -0.09923   0.14800
C     1.84095   1.12960   0.95990
O     2.72075   1.94718   0.63989
N     1.22575   1.18958   2.16022
C     1.29576   2.38739   2.97316
C     1.35944   0.58728  -2.02636
C     0.04206   0.36503  -2.37455
C    -0.85966  -0.06653  -0.16405
C    -1.03272   1.40176  -0.22811
O    -0.21704   2.26978   0.03830
O    -2.27224   1.71569  -0.66193
C    -2.54333   3.10669  -0.85219
C    -2.12283  -0.86665  -0.15059
C    -2.40185  -1.81432  -1.14535
C    -3.57860  -2.56632  -1.09616
C    -4.48571  -2.38556  -0.04852
C    -4.21426  -1.44369   0.95006
C    -3.04360  -0.68644   0.89641
N     0.28601  -0.68072   0.27070
C     0.17445  -2.10966   0.64595
H     5.99909  -0.54863  -0.14129
H     5.11632  -1.24462  -1.53164
H     5.19902  -2.13780   0.00442
H     3.96946   0.54055   0.25685
H     0.44446   0.56127   2.31582
H     2.34255   2.66285   3.16344
H     0.80006   3.24054   2.47950
H     0.80085   2.19681   3.93371
H     2.10912  -0.15585  -2.29877
H     1.73098   1.59792  -1.84978
H    -0.64804   1.18887  -2.55961
H    -0.25917  -0.60559  -2.77385
H    -3.58029   3.16556  -1.20355
H    -1.86456   3.53562  -1.60445
H    -2.43264   3.65997   0.09192
H    -1.69458  -1.96459  -1.96151
H    -3.78542  -3.29723  -1.88124
H    -5.40420  -2.97593  -0.01023
H    -4.91823  -1.29719   1.77252
H    -2.83248   0.05041   1.67471
H     0.08323  -2.76198  -0.22947
H    -0.71101  -2.22541   1.28056
H     1.05815  -2.39235   1.22054
