11
Generated by autodE on: 2022-06-10. E = -397.625308 Ha
C    -3.14782   0.69062  -0.56858
O    -1.70619   0.68006  -0.59535
C    -1.10566  -0.19146   0.20137
O    -1.65392  -0.97599   0.94435
C     0.34451  -0.10410   0.08757
C     1.55928  -0.08674   0.04502
C     2.93038  -0.05633  -0.01319
N     4.09521  -0.02976  -0.06290
H    -3.53700  -0.29199  -0.86995
H    -3.50336   0.93830   0.44139
H    -3.45140   1.46185  -1.28438
