28
Generated by autodE on: 2022-06-10. E = -782.030648 Ha
C    -2.32232  -1.84557   2.54688
O    -1.73333  -0.72228   1.88080
C    -0.88734  -0.99949   0.87713
O    -0.55213  -2.14298   0.59630
C    -0.43647   0.18222   0.14100
N     0.75133   0.17116  -0.52198
C     1.89008  -0.47712  -0.37764
C     2.18666  -1.36106   0.77490
C     2.87472  -0.12504  -1.43731
C     4.23503  -0.75342  -1.39210
O     2.55287   0.67365  -2.31729
C    -1.25955   1.32951  -0.23106
O    -0.86490   2.19534  -1.00949
O    -2.48268   1.34963   0.31118
C    -3.32377   2.45184  -0.04925
H    -2.87404  -2.47592   1.83392
H    -1.55004  -2.45122   3.04337
H    -3.00995  -1.42777   3.29162
H     0.79530   0.87337  -1.28269
H     1.75717  -0.93175   1.69543
H     3.26856  -1.47559   0.90806
H     1.73563  -2.35938   0.65529
H     4.77237  -0.43092  -0.48507
H     4.80526  -0.45524  -2.28056
H     4.15401  -1.85098  -1.34606
H    -3.51469   2.45791  -1.13242
H    -2.86167   3.40602   0.24347
H    -4.26220   2.30390   0.49793
