28
Generated by autodE on: 2022-07-26. E = -782.030657 Ha
C     2.94501   2.84537  -0.54126
O     2.32862   1.62939  -0.10100
C     1.02613   1.48844  -0.37357
O     0.37799   2.34422  -0.97273
C     0.43462   0.22607   0.06128
N    -0.86127   0.10784  -0.33597
C    -1.86404  -0.68328  -0.01030
C    -1.80504  -1.66294   1.10062
C    -3.08803  -0.39718  -0.80801
C    -4.32605  -1.19700  -0.53428
O    -3.05641   0.48612  -1.66508
C     1.16046  -0.93273   0.58271
O     0.89456  -2.09081   0.28749
O     2.17482  -0.61177   1.39996
C     3.01206  -1.69004   1.83381
H     3.99149   2.78405  -0.22025
H     2.45854   3.71754  -0.08052
H     2.89003   2.93519  -1.63611
H    -1.14592   0.84217  -1.00947
H    -1.22704  -1.24200   1.94006
H    -1.29354  -2.59262   0.80331
H    -2.81300  -1.91090   1.45277
H    -5.10527  -0.92423  -1.25665
H    -4.11266  -2.27578  -0.59769
H    -4.68751  -0.99935   0.48828
H     3.45933  -2.20734   0.97217
H     3.79685  -1.23349   2.44841
H     2.43663  -2.41246   2.43110
