27
Generated by autodE on: 2022-06-02. E = -3077.613781 Ha
Br   -0.50745   1.67072   1.38120
C    -1.01881   0.10571   0.44275
C    -0.24383  -0.76463  -0.24787
C     1.20653  -0.83858  -0.44302
C     1.72457  -1.38841  -1.63474
C     3.10146  -1.46499  -1.85114
C     3.99550  -1.00980  -0.87709
C     3.49711  -0.48003   0.31823
C     2.12148  -0.39374   0.53405
C    -1.24480  -1.63334  -1.02129
C    -1.84608  -0.72447  -2.14112
C    -2.70064   0.29622  -1.33650
C    -2.48068  -0.16116   0.14139
C    -2.42437  -1.69121  -0.03218
H     1.04128  -1.74777  -2.40579
H     3.47792  -1.88563  -2.78675
H     5.07318  -1.07384  -1.04471
H     4.18608  -0.13528   1.09326
H     1.75193   0.00579   1.47814
H    -0.84191  -2.58981  -1.37578
H    -2.47118  -1.32558  -2.81823
H    -1.05939  -0.24789  -2.74248
H    -3.76742   0.22537  -1.59619
H    -2.38559   1.33870  -1.48644
H    -3.19447   0.25068   0.86464
H    -3.34123  -2.10985  -0.47504
H    -2.18122  -2.22133   0.90006
