58
Generated by autodE on: 2022-06-13. E = -2143.916069 Ha
C     1.55924   0.78639   1.71446
O     2.61345  -0.17324   1.87693
C     2.28419  -1.44376   1.93775
O     1.14161  -1.85455   1.95078
C     3.49592  -2.40692   1.99843
C     3.78759  -2.67784   3.51152
C     4.75531  -3.77976   3.84397
O     3.13121  -2.11274   4.36303
N     3.09002  -3.71933   1.51387
C     3.46961  -3.80957   0.11100
C     2.29679  -3.25508  -0.74437
C     1.28447  -4.26869  -1.18612
O     2.16947  -2.05965  -0.93213
C     4.71072  -2.93557   0.02598
C     4.69451  -2.05061   1.06677
C     5.64235  -0.85162   1.30983
C     5.14684   0.44838   0.52338
F     4.78593   1.45003   1.34595
F     6.12445   0.95167  -0.25279
F     4.10979   0.21097  -0.27529
C     5.81840  -0.43181   2.80579
F     4.70784  -0.03645   3.42813
F     6.69759   0.58120   2.90337
F     6.32246  -1.44506   3.53438
C     7.08206  -1.18256   0.83000
C     7.69874  -2.49811   1.33478
C     8.09532  -3.40532   0.18048
C     6.92914  -4.09516  -0.52568
C     5.73044  -3.26212  -1.10146
C     6.07505  -2.03694  -2.01788
C     7.40962  -1.94197  -2.71369
O     5.19935  -1.22805  -2.23803
C     5.11736  -4.22006  -2.18066
F     3.94264  -3.78174  -2.66599
F     4.92693  -5.47650  -1.74982
F     5.94532  -4.31313  -3.23955
H     2.05221   1.76232   1.65052
H     0.87734   0.75481   2.57562
H     1.00244   0.57424   0.79068
H     5.43245  -4.01835   3.01628
H     4.16979  -4.68260   4.07889
H     5.32051  -3.50125   4.74332
H     2.09050  -3.85267   1.67069
H     3.64766  -4.85671  -0.14891
H     1.76821  -5.01984  -1.82988
H     0.90064  -4.80639  -0.30273
H     0.45633  -3.78200  -1.71696
H     7.07051  -1.17184  -0.25846
H     7.72697  -0.33611   1.08948
H     8.58528  -2.26601   1.94210
H     7.01394  -3.04395   1.99455
H     8.73808  -4.21631   0.55848
H     8.71142  -2.84268  -0.53725
H     6.47772  -4.81868   0.16932
H     7.35401  -4.68707  -1.34823
H     7.22355  -1.62893  -3.75079
H     8.00300  -1.14611  -2.23605
H     7.99043  -2.86883  -2.69860
