34
Generated by autodE on: 2022-06-13. E = -1476.445160 Ha
C    -2.04049  -0.21637  -2.78550
C    -0.77890   0.49188  -3.17262
O    -0.57635   0.94264  -4.28025
C     0.32209   0.59337  -2.07979
C     1.10167   1.91184  -2.23749
F     1.80244   1.96653  -3.37466
F     1.97662   2.08557  -1.22931
F     0.26770   2.96639  -2.22015
C    -0.20046   0.49873  -0.72274
C    -0.35236   0.12909   0.41720
C    -0.18766  -0.71557   1.59658
C    -0.01359   0.15827   2.86172
F     1.01364   1.00390   2.70006
F    -1.10061   0.89871   3.11662
F     0.23864  -0.58436   3.94662
C    -1.43413  -1.62548   1.74335
F    -2.56083  -0.91625   1.88892
F    -1.32724  -2.44116   2.80003
F    -1.58972  -2.39404   0.65462
C     1.10645  -1.57669   1.38031
C     1.38581  -2.07941  -0.04967
C     2.07963  -1.10671  -1.04418
C     1.26327  -0.65690  -2.27184
H    -2.61897  -0.46676  -3.68363
H    -1.83070  -1.11504  -2.18690
H    -2.63121   0.46116  -2.14548
H     1.95695  -0.96369   1.71032
H     1.04747  -2.43129   2.06912
H     2.05109  -2.94589   0.08262
H     0.46751  -2.48461  -0.49793
H     2.47981  -0.23093  -0.51190
H     2.95792  -1.62646  -1.45607
H     1.92863  -0.42071  -3.11396
H     0.62754  -1.49279  -2.60161
