24
Generated by autodE on: 2022-07-27. E = -667.420950 Ha
C    -0.58749   3.04543   0.71669
O     0.10286   1.79471   0.84895
C    -0.55898   0.70956   0.45361
O    -1.69629   0.73055   0.02044
C     0.19030  -0.55321   0.68396
N     0.17362  -1.51831  -0.25618
C    -0.07423  -1.50478  -1.56637
C    -0.03857  -0.31725  -2.39697
C    -0.32974  -0.52790  -3.85974
O     0.25910   0.79576  -1.94731
C     0.70439  -0.86576   2.01576
C     1.34687  -2.21618   2.24777
O     0.61161  -0.04781   2.93477
H     0.10051   3.81133   1.09271
H    -1.51323   3.04179   1.31011
H    -0.82931   3.23501  -0.33901
H     0.39605  -2.45452   0.09482
H    -0.12718  -2.48802  -2.03201
H    -0.06066   0.37324  -4.42610
H    -1.40881  -0.72383  -3.98463
H     0.20767  -1.40248  -4.25677
H     1.69664  -2.25903   3.28667
H     0.62365  -3.03541   2.09103
H     2.19823  -2.38229   1.56904
