22
Generated by autodE on: 2022-06-01. E = -662.344923 Ha
C    -3.80015   0.62821   1.78303
N    -2.61283   0.40686   0.98591
C    -2.63642   0.28101  -0.35636
O    -3.65174   0.33288  -1.06340
C    -1.33047   0.06228  -1.00480
O    -0.29265   0.01100  -0.25941
C     0.99933  -0.17309  -0.52394
C     1.41404  -0.35964  -1.85049
N     1.75648  -0.51568  -2.95819
C     1.84867  -0.15055   0.68027
O     1.34358   0.03039   1.79674
N     3.17067  -0.33618   0.46723
C     4.15233  -0.33940   1.53186
H    -3.90778  -0.15520   2.54918
H    -3.76077   1.60534   2.29058
H    -4.67736   0.60650   1.12595
H    -1.71236   0.35200   1.45518
H    -1.25352  -0.05561  -2.08992
H     3.50065  -0.48312  -0.48206
H     3.64098  -0.16673   2.48571
H     4.90041   0.45516   1.38217
H     4.67906  -1.30554   1.58208
