32
Generated by autodE on: 2022-10-07. E = -1064.023792 Ha
C     0.55485  -1.39385   2.26688
C     0.57889  -0.64498   0.93310
C     2.00198  -0.44990   0.43210
C     2.93581   0.20979   1.24669
C     4.24035   0.42959   0.80039
C     4.63229  -0.00470  -0.47025
C     3.70537  -0.65347  -1.28973
C     2.39769  -0.87111  -0.84354
O    -0.13455  -1.47099  -0.03678
C    -1.44230  -0.99561  -0.26573
C    -1.59116  -0.70060  -1.71810
N    -1.69537  -0.66970  -2.87304
C    -2.41377  -2.07395   0.03677
N    -3.15475  -2.92388   0.30613
C    -1.65787   0.20463   0.69948
C    -2.69596   1.23230   0.22001
O    -3.60519   0.78262  -0.52590
O    -2.58033   2.40064   0.65705
C    -0.23551   0.68067   0.99768
C     0.27044   1.72727  -0.01260
O     0.01646   1.50456  -1.22759
O     0.92665   2.69675   0.44110
H     1.01946  -2.38360   2.14512
H    -0.47969  -1.53392   2.61363
H     1.10629  -0.83940   3.03826
H     2.63972   0.56808   2.23438
H     4.95322   0.94625   1.44768
H     5.65354   0.16549  -0.81951
H     3.99823  -0.99259  -2.28652
H     1.67723  -1.37031  -1.49047
H    -2.07610  -0.22256   1.62355
H    -0.16866   1.10155   2.00748
