22
Generated by autodE on: 2022-10-07. E = -608.897252 Ha
C    -0.70159   1.79662   0.95108
C    -0.07275   0.62367   0.30918
O    -0.76383  -0.43855   0.06792
C    -2.10433  -0.71475   0.26123
C    -2.40946  -2.08084   0.18899
N    -2.67848  -3.22034   0.14607
C    -3.11169   0.25623   0.29107
N    -3.99789   1.02368   0.29609
C     1.32519   0.52933  -0.07089
C     2.19340   1.63294   0.08258
C     3.53322   1.52865  -0.28323
C     4.02959   0.32923  -0.80300
C     3.17697  -0.77179  -0.96442
C     1.83774  -0.67627  -0.60887
H    -1.36597   2.31976   0.24344
H     0.04409   2.50657   1.31960
H    -1.32495   1.45371   1.79313
H     1.82415   2.57679   0.48204
H     4.19406   2.38904  -0.16138
H     5.08170   0.25045  -1.08569
H     3.56349  -1.70776  -1.37268
H     1.17551  -1.53201  -0.73990
