10
Generated by autodE on: 2022-10-07. E = -455.046572 Ha
O    -0.91837  -1.20363  -0.48325
C    -1.38677  -0.06501  -0.76637
O    -2.46809   0.14830  -1.38585
C    -0.61286   1.16096  -0.34105
C     0.56495   1.16567   0.30571
C     1.38185  -0.02900   0.76285
O     1.19860  -0.40861   1.94856
O     2.23188  -0.47990  -0.04744
H    -1.08524   2.11528  -0.60146
H     1.01592   2.13608   0.55628
