32
Generated by autodE on: 2022-10-07. E = -1063.939846 Ha. Imaginary frequency = -328.2 cm-1
C     0.34411  -1.51477   2.07581
C     0.67923  -0.94947   0.73322
C     2.05978  -0.59904   0.37938
C     2.96660  -0.16914   1.36849
C     4.25544   0.23099   1.02071
C     4.66380   0.20812  -0.31647
C     3.77029  -0.21522  -1.30700
C     2.47982  -0.61248  -0.96715
O    -0.05259  -1.28091  -0.32085
C    -1.41286  -1.35740  -0.36958
C    -1.93210  -1.05482  -1.65012
N    -2.37339  -0.77767  -2.69520
C    -2.17076  -2.19074   0.48457
N    -2.82949  -2.86999   1.17083
C    -1.66030   0.77068   0.95272
C    -2.80515   1.26301   0.07109
O    -3.85922   0.57159   0.12023
O    -2.65564   2.33782  -0.56191
C    -0.32460   1.11550   0.96369
C     0.42307   1.85083  -0.12586
O     0.15347   1.58144  -1.32749
O     1.31840   2.64657   0.27073
H     0.60884  -2.58716   2.07095
H    -0.71833  -1.42611   2.31875
H     0.92208  -1.02519   2.86634
H     2.66165  -0.12394   2.41381
H     4.94315   0.56833   1.79915
H     5.67451   0.52217  -0.58695
H     4.08320  -0.23609  -2.35326
H     1.78782  -0.93712  -1.74278
H    -2.04225   0.28519   1.85767
H     0.17942   1.10360   1.93403
