60
Generated by autodE on: 2022-06-09. E = -1920.031178 Ha
C    -0.52260  -3.46945  -0.95787
C     0.33089  -2.86590   0.10979
O     1.32876  -3.39860   0.56129
C    -0.06720  -1.47258   0.64381
C    -0.04947  -1.61140   2.19323
C    -1.26048  -2.24000   2.81680
O     0.92827  -1.27871   2.83283
O    -1.34875  -1.12049   0.16296
C    -1.46024   0.32046   0.07011
C    -1.98055   0.81630   1.42679
C    -3.32751   0.56743   1.74298
C    -3.83513   0.86827   3.00595
C    -3.00117   1.42630   3.98273
C    -1.66350   1.67995   3.67895
C    -1.15643   1.37820   2.40905
C    -2.43241   0.65587  -1.04858
C    -2.84531  -0.30575  -1.97621
C    -3.68937   0.05187  -3.03407
C    -4.11911   1.37277  -3.17895
C    -3.70398   2.33886  -2.25472
C    -2.87009   1.98090  -1.19474
C    -0.01732   0.80346  -0.24951
C     0.34297   0.94165  -1.76190
O     0.57461  -0.41229  -2.15359
C     1.61789  -0.67080  -1.20472
C     2.58981   0.49213  -1.43158
C     4.00939   0.42904  -1.09936
C     4.49019  -0.63922  -0.31180
C     5.83939  -0.71625   0.03638
C     6.73783   0.26130  -0.40172
C     6.27487   1.32037  -1.19094
C     4.92652   1.40805  -1.53514
C     1.76148   1.49557  -1.79178
Cl    2.05960   3.18247  -1.98773
C     0.90873  -0.38025   0.15426
H    -0.56863  -2.78233  -1.81696
H    -1.55410  -3.58489  -0.59050
H    -0.10919  -4.44023  -1.25888
H    -1.04261  -2.50945   3.85804
H    -2.10215  -1.53210   2.79057
H    -1.57274  -3.12827   2.24540
H    -3.98096   0.11986   0.99190
H    -4.88469   0.66514   3.23147
H    -3.39542   1.66179   4.97401
H    -1.00166   2.11371   4.43213
H    -0.10321   1.57384   2.21027
H    -2.50590  -1.33522  -1.87194
H    -4.00961  -0.70993  -3.74899
H    -4.77553   1.65075  -4.00692
H    -4.03400   3.37524  -2.35877
H    -2.55003   2.73790  -0.47532
H     0.20451   1.74124   0.26597
H    -0.39267   1.43901  -2.39914
H     2.03322  -1.67282  -1.34241
H     3.80344  -1.40936   0.04465
H     6.19024  -1.54708   0.65299
H     7.79465   0.19739  -0.13248
H     6.97142   2.08449  -1.54410
H     4.58232   2.23443  -2.15659
H     1.63252  -0.15245   0.94239
