37
Generated by autodE on: 2022-06-09. E = -921.615217 Ha
C    -1.94152  -1.04163  -2.77248
C    -2.57865  -0.07303  -1.79071
O    -3.60023   0.55948  -2.11975
C    -1.93343   0.06817  -0.51998
O    -0.82023  -0.79598  -0.36110
C     0.35917  -0.42719   0.02867
C     0.79130   0.96950   0.01939
C     0.47370   1.80307  -1.07439
C     0.94146   3.11156  -1.10410
C     1.69540   3.61636  -0.03515
C     2.00163   2.80053   1.05680
C     1.56329   1.47695   1.08252
C     1.22216  -1.51412   0.44528
C     2.62895  -1.37293   0.43721
C     3.43562  -2.43978   0.81989
C     2.85637  -3.65021   1.21825
C     1.46302  -3.80117   1.22693
C     0.64727  -2.74522   0.83999
C    -2.36063   0.86290   0.58999
C    -1.72470   0.65846   1.95628
O    -3.28463   1.69592   0.49510
H    -0.93880  -0.68967  -3.06752
H    -2.57717  -1.11154  -3.66514
H    -1.81206  -2.04144  -2.32912
H    -0.11108   1.41378  -1.90722
H     0.71562   3.74624  -1.96316
H     2.04417   4.65118  -0.05745
H     2.58412   3.19409   1.89198
H     1.78932   0.84303   1.94039
H     3.08367  -0.44185   0.10009
H     4.52160  -2.33130   0.80187
H     3.49421  -4.48255   1.52420
H     1.01673  -4.74504   1.54569
H    -0.43786  -2.84668   0.86330
H    -2.53545   0.70188   2.69852
H    -1.03659   1.49085   2.17339
H    -1.17879  -0.28618   2.08142
