23
Generated by autodE on: 2022-06-09. E = -998.312680 Ha
Cl   -0.84754  -2.31135   0.96009
C    -1.10432  -0.91040  -0.00841
C    -0.26372   0.07719  -0.37653
C     1.14913   0.33450  -0.13027
C     1.64925   1.64951  -0.23878
C     2.99331   1.92715   0.01461
C     3.87075   0.89845   0.36996
C     3.39079  -0.41277   0.47040
C     2.04775  -0.69470   0.22583
C    -1.23330   1.09708  -1.05155
C    -2.10453   1.71224   0.06549
C    -2.91402   0.72187   0.45216
C    -2.52025  -0.47650  -0.44383
O    -2.18163   0.20207  -1.66162
H     0.97816   2.46617  -0.51107
H     3.35690   2.95410  -0.06806
H     4.92373   1.11524   0.56399
H     4.07059  -1.22478   0.73943
H     1.69169  -1.72190   0.30016
H    -0.78740   1.77832  -1.78306
H    -1.99740   2.72250   0.45867
H    -3.65455   0.69092   1.25045
H    -3.25463  -1.27579  -0.58846
