60
Generated by autodE on: 2022-06-09. E = -1919.922097 Ha. Imaginary frequency = -238.7 cm-1
C    -0.86676  -3.23606  -1.64289
C    -0.28167  -3.01707  -0.26730
O     0.71577  -3.65482   0.09487
C    -0.91906  -2.03760   0.60905
C    -0.99406  -2.24715   2.05390
C     0.19881  -2.81530   2.77794
O    -2.03182  -1.98098   2.66838
O    -1.88891  -1.31345  -0.02039
C    -2.32733  -0.08172   0.14083
C    -2.67615   0.51424   1.46200
C    -4.03091   0.84052   1.67402
C    -4.45572   1.38282   2.88741
C    -3.53194   1.63177   3.90563
C    -2.18446   1.31751   3.70571
C    -1.76121   0.75629   2.50204
C    -2.93455   0.47563  -1.07725
C    -3.12805  -0.31989  -2.22351
C    -3.62142   0.24268  -3.39908
C    -3.92327   1.60770  -3.45775
C    -3.72908   2.40857  -2.32678
C    -3.24179   1.85099  -1.14675
C    -0.10572   0.93159  -0.12139
C     0.11979   1.06502  -1.63876
O     0.31809  -0.30323  -2.00445
C     1.37650  -0.55240  -1.06377
C     2.38601   0.56998  -1.44682
C     3.82626   0.45710  -1.25799
C     4.34717  -0.60646  -0.48965
C     5.72086  -0.72922  -0.27728
C     6.60622   0.19810  -0.83464
C     6.10428   1.25249  -1.60661
C     4.73259   1.38466  -1.81634
C     1.56539   1.57769  -1.81286
Cl    1.89406   3.22025  -2.20820
C     0.70712  -0.10508   0.24948
H    -0.34791  -4.08417  -2.10807
H    -0.73092  -2.33766  -2.25972
H    -1.94620  -3.44239  -1.58594
H     1.13091  -2.30880   2.49011
H     0.02507  -2.71461   3.85819
H     0.32397  -3.87942   2.52622
H    -4.76125   0.65080   0.88671
H    -5.51323   1.61412   3.03324
H    -3.86020   2.06799   4.85185
H    -1.45358   1.50543   4.49515
H    -0.70824   0.51521   2.37956
H    -2.89555  -1.38218  -2.18480
H    -3.77334  -0.38982  -4.27653
H    -4.30644   2.04638  -4.38180
H    -3.95174   3.47707  -2.36631
H    -3.06682   2.49024  -0.28109
H    -0.46953   1.74940   0.49339
H    -0.65266   1.55812  -2.23643
H     1.74855  -1.57719  -1.13079
H     3.67219  -1.33898  -0.04342
H     6.10114  -1.55659   0.32642
H     7.68186   0.09905  -0.67156
H     6.78902   1.97816  -2.05199
H     4.35907   2.20691  -2.42594
H     1.10156  -0.33606   1.23670
