39
Generated by autodE on: 2022-06-20. E = -1138.782456 Ha
C     3.89620   2.32893   1.43051
O     3.10648   1.36745   0.70540
C     1.86578   1.17351   1.12600
O     1.35411   1.74730   2.06386
C     1.09745   0.21376   0.25254
C     0.11060  -0.71091   1.00043
O    -0.36327  -0.65942   2.09982
O    -0.15960  -1.71479   0.11555
C     0.62885  -1.38229  -1.08294
C     0.84381  -2.60152  -1.85314
N     1.02549  -3.55387  -2.48638
C    -0.12648  -0.19975  -1.79612
C     0.28114   0.97022  -0.85532
C    -0.87869   1.82462  -0.35637
C    -2.09166   0.99235  -0.03440
C    -2.97800   1.21615   1.11912
N    -2.52742   2.06709   2.07985
O    -4.09078   0.66878   1.22727
C    -2.37881  -0.02969  -0.88240
N    -1.55755  -0.41061  -1.91197
C    -1.97821  -1.52882  -2.74739
N     1.83145  -0.75228  -0.58741
C     2.76959  -1.63806   0.11428
H     4.87328   2.34568   0.93586
H     4.00059   2.01805   2.47920
H     3.42207   3.31905   1.38200
H     0.30836  -0.08131  -2.79598
H     1.01599   1.59982  -1.36971
H    -0.53401   2.43905   0.48385
H    -1.13133   2.53456  -1.16355
H    -1.54334   2.30193   2.14550
H    -3.07196   2.12371   2.93474
H    -3.30365  -0.60009  -0.77293
H    -1.88048  -2.49952  -2.23043
H    -3.02895  -1.39682  -3.03761
H    -1.36906  -1.55466  -3.66142
H     2.31770  -2.17102   0.96910
H     3.15778  -2.37926  -0.59680
H     3.61178  -1.03817   0.47543
