27
Generated by autodE on: 2022-06-16. E = -590.589670 Ha. Imaginary frequency = -313.9 cm-1
C     3.26729  -1.10553   0.97157
N     2.17915  -0.23351   0.57873
C     1.49858  -0.44398  -0.56898
O     1.79098  -1.34725  -1.36734
N     0.41810   0.38183  -0.90340
O     0.14014   1.19855   0.14115
N    -0.96833   1.87523   0.08034
C    -1.36735   2.24355  -1.26831
C    -2.31925   0.14827   0.43129
C    -2.26218   0.13681   1.93198
C    -1.73130  -0.83785  -0.33931
C    -1.03371  -2.03288   0.22822
H     4.02628  -1.17081   0.17691
H     2.91731  -2.12877   1.18860
H     3.73958  -0.69825   1.87420
H     1.85165   0.47657   1.22349
H    -0.55863   2.86331  -1.69679
H    -1.54313   1.40534  -1.95280
H    -2.27510   2.85138  -1.17104
H    -3.10333   0.74714  -0.03781
H    -1.22380   0.04314   2.28906
H    -2.82381  -0.72009   2.34421
H    -2.68794   1.05706   2.35550
H    -1.96797  -0.86577  -1.40566
H    -0.46799  -1.79035   1.13983
H    -0.34895  -2.48896  -0.49919
H    -1.78004  -2.79983   0.50950
