51
Generated by autodE on: 2022-06-22. E = -1133.607220 Ha
C    -0.11650   3.39092  -0.40490
N    -0.72096   2.09170  -0.19816
C    -0.75806   1.46822   0.98171
O    -0.40624   1.95122   2.06342
C    -1.32064   0.02668   0.93855
C    -2.59199   0.04921   1.79883
O    -2.62975  -0.27945   2.96445
O    -3.62914   0.53657   1.12417
C    -4.87972   0.60484   1.82659
C    -0.30710  -1.01002   1.45283
C     0.23306  -1.69240   0.18362
C     0.69552  -3.12825   0.47121
C     1.38083  -0.94706  -0.46198
C     1.97526   0.17238  -0.00877
C     3.07184   0.84572  -0.68426
C     3.65399   2.00826  -0.30170
C     3.25065   2.80296   0.90968
C     4.77945   2.60507  -1.09938
C    -1.05037  -1.60074  -0.74255
C    -0.79309  -1.58742  -2.24200
C    -2.06716  -2.69613  -0.34894
C    -2.06855  -3.99465  -1.10339
O    -2.86823  -2.47714   0.54469
O    -1.62892  -0.33393  -0.39976
H    -0.77254   4.02500  -1.01933
H     0.03756   3.87459   0.56689
H     0.85548   3.29592  -0.91433
H    -0.97888   1.52267  -1.00067
H    -5.59983   1.03390   1.12065
H    -4.78784   1.24511   2.71550
H    -5.19797  -0.40302   2.13003
H    -0.82675  -1.74352   2.07928
H     0.47626  -0.55527   2.06824
H     1.56037  -3.10019   1.15067
H    -0.09035  -3.72752   0.95528
H     1.00917  -3.63884  -0.45176
H     1.76300  -1.40123  -1.38249
H     1.62873   0.62497   0.92085
H     3.44541   0.36161  -1.59446
H     4.10165   2.89062   1.60827
H     2.39838   2.38193   1.45722
H     2.98762   3.83399   0.61596
H     4.51082   3.61434  -1.45958
H     5.67893   2.73437  -0.47114
H     5.04756   1.98570  -1.96789
H    -0.22717  -2.47466  -2.55544
H    -0.21764  -0.69188  -2.50947
H    -1.74479  -1.56643  -2.79291
H    -2.59504  -3.83365  -2.05966
H    -2.61050  -4.75587  -0.52706
H    -1.05584  -4.33938  -1.34871
