23
Generated by autodE on: 2022-06-22. E = -351.521382 Ha
C     3.52899  -1.21478   0.60806
C     2.54237  -0.33154   0.33928
C     2.84000   1.12654   0.09947
C     1.15435  -0.78475   0.27570
C     0.07802  -0.00223   0.01097
C    -1.27984  -0.50450  -0.04147
C    -2.40545   0.20768  -0.30139
C    -2.43031   1.68258  -0.58627
C    -3.75104  -0.46081  -0.32045
H     3.30949  -2.27279   0.78172
H     4.57587  -0.90315   0.66088
H     2.49785   1.44305  -0.89991
H     2.31333   1.76468   0.82844
H     3.91719   1.33111   0.17620
H     0.99077  -1.85346   0.45981
H     0.23345   1.06412  -0.17431
H    -1.39479  -1.57807   0.15137
H    -2.88585   1.87301  -1.57412
H    -3.06885   2.20270   0.14959
H    -1.43864   2.15254  -0.57084
H    -4.24022  -0.32819  -1.30226
H    -3.68382  -1.53786  -0.10784
H    -4.42763   0.00030   0.42148
