28
Generated by autodE on: 2022-06-22. E = -781.993064 Ha
C    -2.09457   2.58960  -2.49650
N    -1.67149   1.99466  -1.24518
C    -0.69188   1.06234  -1.22052
O    -0.00174   0.79004  -2.21938
C    -0.51087   0.32679   0.03984
O     0.55865  -0.47166   0.20081
C     1.78918  -0.32315  -0.16480
C     2.34820   0.92607  -0.69494
C     2.63274  -1.50425   0.16106
C     1.96139  -2.69523   0.78339
O     3.82843  -1.46848  -0.10427
C    -1.56818   0.08388   1.00388
O    -2.62592   0.71071   1.03835
O    -1.26889  -0.87477   1.89764
C    -2.26373  -1.15494   2.88974
H    -1.23742   3.03472  -3.02236
H    -2.82521   3.38026  -2.28496
H    -2.55941   1.85237  -3.17433
H    -2.29899   2.01126  -0.44286
H     2.13279   1.04919  -1.76924
H     1.86438   1.77993  -0.18666
H     3.43245   0.93027  -0.53010
H     1.29407  -3.17134   0.04593
H     2.72562  -3.41448   1.10305
H     1.33225  -2.39398   1.63412
H    -3.19328  -1.50936   2.42045
H    -1.84020  -1.94067   3.52613
H    -2.47859  -0.25768   3.48840
