39
Generated by autodE on: 2022-10-21. E = -1158.854782 Ha
C     4.13402   0.17158   2.14695
N     3.23257   0.16799   1.01198
C     2.04899   0.79744   1.07330
O     1.61295   1.36411   2.08233
N     1.31444   0.84075  -0.14415
N     0.00003   1.40730  -0.00087
C    -0.94920   0.27753   0.01081
C    -1.17626  -0.33321   1.40960
O    -1.10690  -1.51901   1.64897
O    -1.40219   0.61344   2.30523
C    -1.48871   0.20940   3.68326
C    -2.29415   0.75829  -0.55931
O    -3.33548   0.71030   0.05566
O    -2.15728   1.21020  -1.79517
C    -3.35336   1.65841  -2.45987
C    -0.19593  -0.71278  -0.88368
O    -0.70713  -1.76763  -1.48236
C    -2.11429  -2.05827  -1.47766
C     1.11959  -0.34049  -0.94211
C     2.18420  -0.91375  -1.76145
C     1.86117  -2.07069  -2.66512
O     3.33265  -0.45662  -1.71335
H     4.53513   1.17777   2.35778
H     4.97358  -0.50151   1.93223
H     3.62187  -0.18585   3.05218
H     3.58076  -0.07076   0.08032
H    -0.01134   1.89011   0.90204
H    -0.52553  -0.21147   4.00476
H    -2.28646  -0.53462   3.81319
H    -1.71586   1.11982   4.24842
H    -3.03965   1.96603  -3.46325
H    -4.08132   0.83691  -2.51800
H    -3.79171   2.50657  -1.91596
H    -2.20173  -3.08471  -1.85150
H    -2.52231  -2.00514  -0.46082
H    -2.64440  -1.37699  -2.15766
H     1.03312  -1.82461  -3.34640
H     1.53426  -2.93694  -2.06889
H     2.76020  -2.33195  -3.23768
