26
Generated by autodE on: 2022-10-21. E = -814.119650 Ha
C     5.10301  -0.01167  -0.13153
N     3.74900  -0.50613  -0.00278
C     2.66056   0.26405  -0.12565
O     2.65380   1.47704  -0.36453
N     1.46578  -0.49166   0.05553
N     0.45778   0.28435  -0.06738
C    -0.85725   0.06823   0.01983
C    -1.61520   1.32242  -0.20141
O    -1.04801   2.38519  -0.41893
O    -2.93382   1.19449  -0.15253
C    -3.70369   2.38809  -0.36674
C    -1.47207  -1.24157   0.30437
O    -2.66485  -1.41796   0.47763
O    -0.57717  -2.23305   0.35293
C    -1.09018  -3.54209   0.63445
H     5.07162   1.06207  -0.34951
H     5.63168  -0.52589  -0.94913
H     5.66844  -0.16957   0.80016
H     3.59560  -1.49022   0.19858
H     0.69453   1.28814  -0.26974
H    -3.46440   3.14113   0.39756
H    -4.75301   2.08291  -0.28553
H    -3.50175   2.80072  -1.36553
H    -1.80026  -3.85480  -0.14485
H    -0.21957  -4.20799   0.64390
H    -1.59279  -3.55808   1.61237
