26
Generated by autodE on: 2022-10-26. E = -814.110441 Ha
C     3.86213  -1.10093   1.95626
N     3.21020  -1.09838   0.66385
C     2.15483  -0.30732   0.39944
O     1.63757   0.44733   1.23460
N     1.78476  -0.35663  -0.95349
N     0.58804   0.02195  -1.26203
C    -0.54833   0.14231  -0.57750
C    -0.71576  -0.47097   0.76585
O    -0.32978  -1.59432   1.02630
O    -1.38249   0.31024   1.60575
C    -1.62465  -0.22036   2.91927
C    -1.71198   0.68898  -1.29395
O    -2.84216   0.71514  -0.84405
O    -1.38295   1.13984  -2.51312
C    -2.45302   1.62007  -3.34100
H     4.50594  -0.21586   2.09786
H     4.48242  -2.00173   2.04320
H     3.11069  -1.10742   2.75842
H     3.62930  -1.60049  -0.11243
H     0.48597   0.27522  -2.25521
H    -0.66922  -0.42087   3.42467
H    -2.21225  -1.14723   2.85727
H    -2.18612   0.55243   3.45599
H    -1.98845   1.92203  -4.28631
H    -3.19039   0.82320  -3.51405
H    -2.94448   2.48048  -2.86516
