61
Generated by autodE on: 2022-06-30. E = -1642.495239 Ha
C    11.02291 -14.95251   3.28137
O    10.13764 -16.08336   3.36277
C     9.33989 -16.28799   2.32880
O     9.28666 -15.56401   1.35658
C     8.41244 -17.52679   2.48449
C     7.03087 -16.83067   2.40008
O     6.35448 -16.74159   1.40065
O     6.71570 -16.26597   3.56171
C     5.49569 -15.50543   3.60504
C     8.64020 -18.23597   3.84824
C     7.65746 -19.33230   4.28482
C     7.74704 -20.69611   3.56960
C     6.64305 -20.98036   2.55072
C     6.49146 -19.84473   1.50216
C     5.45094 -20.16024   0.51951
N     4.59061 -20.39159  -0.22392
C     7.80196 -19.43366   0.87409
C     8.62749 -18.46461   1.30282
C     9.88182 -18.43753   0.44598
C    11.18035 -18.55367   1.27470
C    11.55946 -19.91913   1.76648
O    11.85571 -17.56408   1.49573
N     9.72498 -19.58604  -0.41694
C    10.47464 -19.61447  -1.65329
C     8.38068 -20.11660  -0.36201
C     8.33652 -21.65089  -0.22322
O     7.32897 -22.30040  -0.41050
O     9.48756 -22.16549   0.18195
C     9.51155 -23.58238   0.42521
C     7.59223 -19.65095  -1.61563
O     7.07310 -18.55824  -1.69295
O     7.67260 -20.51420  -2.61971
C     7.08442 -20.11429  -3.86979
H    10.44184 -14.02205   3.21603
H    11.67230 -15.04997   2.40142
H    11.61593 -14.97128   4.20230
H     5.54253 -14.67406   2.88770
H     4.63846 -16.15107   3.36840
H     5.41685 -15.12482   4.62930
H     8.63586 -17.45472   4.61700
H     9.65962 -18.65017   3.83207
H     7.86802 -19.49320   5.35313
H     6.62272 -18.95012   4.25396
H     7.69519 -21.49946   4.32049
H     8.73171 -20.80090   3.08818
H     5.67173 -21.07308   3.06172
H     6.83378 -21.93744   2.04692
H     6.08206 -18.97834   2.03383
H     9.94397 -17.48111  -0.10576
H    10.67504 -20.49078   2.07723
H    12.02339 -20.47825   0.93734
H    12.28381 -19.82907   2.58669
H    10.12372 -18.87295  -2.39956
H    11.53318 -19.39989  -1.44134
H    10.42084 -20.61581  -2.10327
H     8.81810 -23.83735   1.23932
H     9.23150 -24.13090  -0.48480
H    10.54165 -23.81862   0.71393
H     7.24583 -20.95036  -4.55912
H     7.57488 -19.20537  -4.24570
H     6.00953 -19.92799  -3.73641
