28
Generated by autodE on: 2022-06-30. E = -782.000238 Ha
C    -3.59745  -1.45227   0.84321
O    -2.49160  -0.76893   0.24338
C    -1.27636  -1.30986   0.43357
O    -1.11823  -2.37517   1.01285
C    -0.20145  -0.48853  -0.13080
C    -0.40803   0.94589  -0.44125
O     0.01347   1.49148  -1.44594
O    -1.15864   1.57311   0.46715
C    -1.46074   2.94900   0.20528
N     0.95874  -1.08351  -0.51549
C     0.97086  -2.53232  -0.84092
C     2.13704  -0.45999  -0.65207
C     2.52568   0.75468   0.03841
C     3.96662   1.16144  -0.14319
O     1.76143   1.40347   0.76194
H    -4.48347  -0.84698   0.61843
H    -3.46026  -1.53310   1.93167
H    -3.70962  -2.45983   0.41650
H    -0.53459   3.53972   0.15501
H    -2.01307   3.05371  -0.73996
H    -2.08045   3.28669   1.04411
H     1.78167  -2.70711  -1.55610
H     1.15367  -3.10921   0.07218
H     0.01371  -2.82286  -1.28351
H     2.90679  -1.02297  -1.17555
H     4.09602   1.55388  -1.16687
H     4.22246   1.94956   0.57689
H     4.65103   0.30705  -0.03254
