33
Generated by autodE on: 2022-06-30. E = -860.387967 Ha
C    -1.63244  -2.12492   3.24367
O    -1.31976  -1.55703   1.95982
C    -0.91831  -0.28892   1.94287
O    -0.78348   0.40102   2.92588
C    -0.65282   0.17337   0.49838
C    -2.00674   0.09577  -0.22738
O    -3.02855   0.50648   0.28050
O    -1.92359  -0.40927  -1.44872
C    -3.14169  -0.46017  -2.21455
C     0.39918  -0.61339  -0.13665
C     1.39004  -0.83952  -0.79385
C     2.54100  -0.52641  -1.64278
C     3.78968  -0.56883  -0.86775
N     4.77954  -0.57525  -0.26254
C     2.28758   0.89980  -2.22824
C     1.87935   1.98106  -1.20792
C     0.37018   2.16800  -0.87985
C    -0.15934   1.65585   0.47456
H    -1.93785  -3.15888   3.04848
H    -2.45276  -1.56535   3.71509
H    -0.74716  -2.10339   3.89465
H    -3.54110   0.55369  -2.35656
H    -3.88562  -1.08392  -1.69971
H    -2.86965  -0.90403  -3.17849
H     2.65662  -1.24399  -2.47181
H     3.20945   1.20410  -2.74703
H     1.50630   0.79020  -2.99582
H     2.23267   2.93418  -1.62973
H     2.45256   1.84681  -0.27398
H    -0.24422   1.76775  -1.70348
H     0.17887   3.25172  -0.87602
H    -1.00594   2.27522   0.80580
H     0.62212   1.74642   1.24295
