49
Generated by autodE on: 2022-06-25. E = -1298.768558 Ha
C    -0.07148   4.34362  -1.17210
O    -0.13803   3.15488  -0.36434
C    -0.20807   1.99459  -1.00828
O    -0.24368   1.88025  -2.21261
C    -0.21265   0.82522  -0.00783
C    -1.46361   0.94456   0.87876
O    -1.44653   0.95468   2.08753
O    -2.55850   1.04711   0.13350
C    -3.82309   1.01397   0.81782
O     0.92971   0.92721   0.82355
C     1.76718  -0.23941   0.69106
C     2.91326   0.00635  -0.27449
C     3.13916   1.27075  -0.83392
C     4.20211   1.47539  -1.72021
C     5.05603   0.42060  -2.05141
C     4.84536  -0.84141  -1.48406
C     3.78290  -1.04580  -0.60136
C     0.79332  -1.34086   0.25780
C    -0.01656  -1.88839   1.44907
C    -1.44517  -2.22093   1.08980
C    -2.35959  -2.83362   2.06538
N    -1.82538  -3.18794   3.26022
O    -3.57613  -3.01338   1.84292
C    -1.96042  -1.91163  -0.13447
N    -1.28960  -1.24251  -1.10735
C    -1.95444  -0.86361  -2.34394
C    -0.07744  -0.56146  -0.73713
H    -0.96558   4.42173  -1.80636
H    -0.02550   5.18250  -0.46897
H     0.82926   4.32063  -1.80168
H    -3.94391   0.04272   1.31980
H    -3.88313   1.82795   1.55306
H    -4.58674   1.13912   0.04246
H     2.17245  -0.44433   1.69405
H     2.48775   2.10260  -0.56458
H     4.36179   2.46682  -2.15113
H     5.88507   0.57990  -2.74496
H     5.51180  -1.67142  -1.73096
H     3.62845  -2.03394  -0.16068
H     1.30551  -2.15542  -0.26794
H    -0.00264  -1.15834   2.27570
H     0.50446  -2.78441   1.82645
H    -0.84553  -3.06727   3.48172
H    -2.43630  -3.58761   3.96388
H    -2.98305  -2.20510  -0.37727
H    -1.23700  -0.88725  -3.17712
H    -2.75791  -1.58130  -2.55535
H    -2.38765   0.14768  -2.28719
H     0.49675  -0.36986  -1.65150
