29
Generated by autodE on: 2022-07-27. E = -840.970181 Ha
C     0.33743   1.92753  -3.43656
O     0.16509   1.24611  -2.19230
C    -1.08170   1.29110  -1.65473
O    -1.99944   1.88142  -2.21224
C    -1.16832   0.58289  -0.39637
O     0.01726   0.00848  -0.01989
C     0.37223  -0.68229   0.99460
C     1.72641  -1.14545   1.07236
C     2.67577  -0.86679   0.06123
C     3.97455  -1.34254   0.18772
C     4.34348  -2.09614   1.31314
C     3.40947  -2.37556   2.31748
C     2.10431  -1.90437   2.20182
C    -2.31854   0.43856   0.45267
O    -2.31359  -0.17483   1.52304
O    -3.43333   1.03731  -0.01504
C    -4.60297   0.91950   0.79957
H     0.11783   3.00081  -3.33226
H     1.38903   1.78721  -3.71484
H    -0.31568   1.50248  -4.21352
H    -0.36508  -0.90014   1.76903
H     2.37589  -0.28005  -0.80852
H     4.71031  -1.13017  -0.59064
H     5.36695  -2.46671   1.40493
H     3.70242  -2.96225   3.19042
H     1.36500  -2.11495   2.97776
H    -5.39473   1.46001   0.26682
H    -4.88977  -0.13506   0.92763
H    -4.44137   1.37118   1.78979
