49
Generated by autodE on: 2022-06-25. E = -1298.701272 Ha. Imaginary frequency = -221.8 cm-1
C     0.48548   3.53813  -3.41432
O     0.52054   2.78980  -2.19927
C    -0.64182   2.74744  -1.48657
O    -1.65504   3.31450  -1.89157
C    -0.52147   1.94582  -0.29806
C    -1.52528   1.72467   0.70101
O    -1.37644   1.02271   1.70685
O    -2.70054   2.35204   0.45991
C    -3.74377   2.12488   1.40891
O     0.75226   1.44607  -0.08969
C     1.02629   0.28280   0.44086
C     2.42451  -0.08658   0.52460
C     3.40429   0.54961  -0.26667
C     4.73348   0.15068  -0.17745
C     5.10335  -0.88449   0.69486
C     4.13818  -1.51846   1.48259
C     2.80210  -1.12339   1.40133
C     0.30361  -1.19324  -1.22113
C     0.36468  -2.50276  -0.47572
C    -0.83393  -2.61755   0.44481
C    -0.85036  -3.49872   1.63524
N     0.29770  -4.16066   1.91162
O    -1.85720  -3.63702   2.35146
C    -1.96586  -1.92090   0.17285
N    -2.06408  -1.02582  -0.87205
C    -3.34190  -0.40632  -1.20921
C    -0.91783  -0.62725  -1.50620
H     0.24676   4.59555  -3.22349
H     1.48932   3.45696  -3.84940
H    -0.25816   3.12548  -4.11291
H    -4.62685   2.64199   1.01389
H    -3.95552   1.05115   1.51758
H    -3.47854   2.53846   2.39372
H     0.30629  -0.15379   1.12920
H     3.10506   1.34881  -0.94680
H     5.49134   0.64339  -0.79052
H     6.14900  -1.19407   0.75895
H     4.42682  -2.32084   2.16480
H     2.04449  -1.60776   2.02050
H     1.14721  -0.90288  -1.84715
H     0.39699  -3.35368  -1.18635
H     1.31281  -2.56242   0.08080
H     0.32846  -4.75207   2.73551
H     1.14567  -4.03747   1.37293
H    -2.85803  -2.02970   0.78948
H    -3.85248  -0.96635  -2.00914
H    -3.17205   0.62357  -1.54633
H    -3.98836  -0.39031  -0.32295
H    -1.03990   0.14187  -2.26628
