51
Generated by autodE on: 2022-06-22. E = -1117.298587 Ha
C     1.17209  -1.98779   2.16569
C     1.54283  -1.67471   0.91618
C     2.76571  -2.25378   0.26331
C     0.78138  -0.65697   0.08864
C     0.99722   0.79972   0.56570
C     2.29367   1.41466   0.12088
C     3.40625   1.38068   0.97218
C     4.64096   1.87688   0.54418
C     4.77050   2.42252  -0.73682
C     3.66066   2.46527  -1.58801
C     2.42923   1.95958  -1.16417
O    -0.11475   1.50404   0.01011
C    -1.25172   0.68613   0.18301
C    -2.29847   1.02864  -0.89004
C    -1.78007   1.56283  -2.18841
O    -3.48079   0.85935  -0.65490
C    -1.89508   0.93740   1.56157
O    -2.44575   0.09404   2.23660
O    -1.79091   2.21519   1.91201
C    -2.38115   2.59303   3.16697
C    -0.75822  -0.80867   0.06115
C    -1.23974  -1.55421  -1.15712
C    -2.37662  -2.26601  -1.26371
C    -2.73665  -2.95566  -2.55175
C    -3.38485  -2.42060  -0.15894
H     0.28543  -1.54742   2.63217
H     1.74863  -2.69719   2.76675
H     2.49324  -2.78722  -0.66397
H     3.29832  -2.95050   0.92699
H     3.46110  -1.44957  -0.03313
H     1.14427  -0.70011  -0.94879
H     0.93253   0.82782   1.66838
H     3.30103   0.95815   1.97450
H     5.50232   1.84326   1.21559
H     5.73344   2.81627  -1.07077
H     3.75576   2.89299  -2.58907
H     1.56538   1.98729  -1.83112
H    -1.42579   2.59382  -2.02271
H    -0.91644   0.98138  -2.54067
H    -2.58429   1.56454  -2.93523
H    -1.91328   2.03572   3.99089
H    -3.46210   2.39333   3.15463
H    -2.19209   3.66672   3.27744
H    -1.10539  -1.32261   0.96165
H    -0.59213  -1.48704  -2.03822
H    -2.88198  -4.03818  -2.38915
H    -1.96581  -2.81936  -3.32455
H    -3.69478  -2.57098  -2.94363
H    -4.36274  -2.02843  -0.48828
H    -3.54172  -3.48857   0.07290
H    -3.10864  -1.89549   0.76300
