23
Generated by autodE on: 2022-06-22. E = -351.521382 Ha
C     3.16814  -1.33696   1.57338
C     2.33391  -0.94853   0.58391
C     2.74770  -1.02233  -0.86367
C     1.00062  -0.44541   0.90860
C     0.07273  -0.02777   0.01115
C    -1.23752   0.46255   0.38737
C    -2.21798   0.89523  -0.44522
C    -3.53329   1.37548   0.10000
C    -2.10270   0.93900  -1.94255
H     4.17074  -1.71725   1.35876
H     2.86478  -1.28223   2.62348
H     2.71006  -0.02799  -1.33890
H     2.06674  -1.67130  -1.43911
H     3.76882  -1.41580  -0.96643
H     0.74863  -0.41080   1.97539
H     0.31655  -0.05973  -1.05419
H    -1.44539   0.47933   1.46413
H    -3.57210   1.32497   1.19807
H    -4.36778   0.77650  -0.30711
H    -3.72791   2.41828  -0.20904
H    -1.13252   0.59335  -2.32194
H    -2.26806   1.96786  -2.30816
H    -2.89256   0.32045  -2.40440
