28
Generated by autodE on: 2022-06-22. E = -765.709376 Ha
C    -2.88358   2.81427   0.00690
O    -1.97777   1.70721  -0.02093
C    -2.51722   0.48623  -0.26639
O    -3.72022   0.34690  -0.45373
C    -1.53977  -0.57787  -0.27626
O    -0.19697  -0.36537  -0.07286
C     0.53971   0.65306   0.14951
C     1.95319   0.47825   0.30945
C     2.57953  -0.78755   0.22997
C     3.95535  -0.88564   0.39467
C     4.72174   0.26473   0.63895
C     4.10938   1.52072   0.71855
C     2.73125   1.63168   0.55514
C    -1.84787  -1.97194  -0.48830
C    -0.68767  -2.95176  -0.45825
O    -3.00000  -2.38466  -0.68815
H    -3.63927   2.68065   0.79487
H    -3.38973   2.92944  -0.96284
H    -2.27163   3.69910   0.21915
H     0.08117   1.64077   0.21267
H     1.97688  -1.67636   0.03925
H     4.44209  -1.86112   0.33350
H     5.80304   0.17819   0.76752
H     4.70983   2.41251   0.90875
H     2.24015   2.60555   0.61500
H    -1.08455  -3.96053  -0.63035
H    -0.16637  -2.92282   0.51090
H     0.05535  -2.71248  -1.23457
