28
Generated by autodE on: 2022-07-27. E = -765.711503 Ha
C    -3.66508  -1.35673   2.68341
O    -3.20795  -0.98436   1.38012
C    -1.89937  -0.67599   1.27469
O    -1.14694  -0.71731   2.25107
C    -1.48460  -0.30751  -0.05482
O    -0.16501   0.01951  -0.26477
C     0.85310   0.09233   0.50375
C     2.11884   0.47405  -0.05035
C     3.22343   0.55356   0.82633
C     4.47502   0.92030   0.33884
C     4.63618   1.20899  -1.02105
C     3.54336   1.13166  -1.89859
C     2.28986   0.76755  -1.42366
C    -2.26734  -0.22670  -1.26451
C    -1.53594   0.18568  -2.53085
O    -3.48118  -0.47298  -1.30641
H    -3.13924  -2.25309   3.04493
H    -4.73566  -1.56928   2.57573
H    -3.51590  -0.53779   3.40299
H     0.72938  -0.13816   1.56335
H     3.08353   0.32518   1.88535
H     5.32828   0.98179   1.01720
H     5.61845   1.49631  -1.40293
H     3.67865   1.35839  -2.95813
H     1.43545   0.70522  -2.09893
H    -1.08649   1.18491  -2.42350
H    -2.25857   0.19661  -3.35699
H    -0.71992  -0.51482  -2.76611
