51
Generated by autodE on: 2022-06-22. E = -1117.235039 Ha. Imaginary frequency = -271.3 cm-1
C     1.05678  -0.90239   2.73389
C     1.51516  -1.01711   1.47535
C     2.92406  -1.45238   1.16962
C     0.68859  -0.72353   0.26945
C     0.58090   1.42659   0.46881
C     1.85326   1.90844  -0.06085
C     2.94802   2.03115   0.81429
C     4.18931   2.44643   0.33107
C     4.34751   2.74547  -1.02605
C     3.25953   2.62742  -1.90184
C     2.01903   2.20860  -1.42677
O    -0.49205   1.75382  -0.22893
C    -1.75086   1.26795   0.01845
C    -2.55627   1.18240  -1.17670
C    -1.91310   1.64206  -2.46849
O    -3.69538   0.69478  -1.19667
C    -2.18211   1.08906   1.38846
O    -1.51794   1.39739   2.37932
O    -3.40383   0.53151   1.50770
C    -3.84968   0.25459   2.83723
C    -0.63951  -1.16052   0.15976
C    -1.23855  -1.53206  -1.08785
C    -2.46403  -2.10481  -1.25526
C    -2.96992  -2.41674  -2.63142
C    -3.39403  -2.46209  -0.13437
H     0.04208  -0.55685   2.94890
H     1.69414  -1.15095   3.58688
H     3.44429  -0.68785   0.56898
H     3.50287  -1.62922   2.08760
H     2.92495  -2.37793   0.56823
H     1.24612  -0.70078  -0.67209
H     0.46770   1.33594   1.54707
H     2.81542   1.79554   1.87224
H     5.03518   2.54030   1.01557
H     5.31915   3.07162  -1.40416
H     3.38443   2.86049  -2.96169
H     1.17228   2.10501  -2.10728
H    -1.50833   2.66142  -2.38745
H    -2.66525   1.59939  -3.26682
H    -1.07398   0.97705  -2.72825
H    -3.18145  -0.46751   3.33043
H    -4.85227  -0.17735   2.73280
H    -3.89727   1.17315   3.44025
H    -1.17082  -1.41112   1.08072
H    -0.64667  -1.32221  -1.98501
H    -3.24178  -3.48335  -2.72037
H    -3.89213  -1.84351  -2.83098
H    -2.23368  -2.17227  -3.41043
H    -3.01431  -2.19675   0.85941
H    -3.60264  -3.54632  -0.15159
H    -4.36269  -1.95587  -0.27631
