32
Generated by autodE on: 2022-06-16. E = -577.858172 Ha
C    -3.76956   0.24402  -1.30300
C    -2.59414   0.47143  -0.36427
C    -2.40874  -0.61682   0.70053
N    -1.06505  -0.39932   1.24723
C    -1.06361   0.55263   2.36282
N    -0.33253   0.14280   0.14098
C     1.03520   0.01755   0.10328
C     1.74210  -0.70719   1.09504
C     3.13321  -0.79853   1.05347
C     3.87281  -0.17782   0.04040
C     3.18197   0.54741  -0.93836
C     1.79229   0.65273  -0.91512
C    -1.18931   0.49805  -1.00548
C    -1.02399  -0.46960  -2.17929
H    -4.71626   0.29362  -0.74187
H    -3.72345  -0.74275  -1.78855
H    -3.80974   1.01088  -2.09271
H    -2.73924   1.43382   0.15239
H    -3.15366  -0.57199   1.50553
H    -2.46829  -1.61509   0.23448
H    -0.02876   0.74441   2.67976
H    -1.59733   0.10262   3.21247
H    -1.53706   1.52168   2.11567
H     1.18292  -1.20143   1.88761
H     3.64671  -1.37037   1.83163
H     4.96198  -0.25266   0.01607
H     3.73437   1.04909  -1.73777
H     1.28826   1.23935  -1.68319
H    -0.94859   1.51855  -1.34592
H    -1.62288  -0.13527  -3.03937
H     0.02429  -0.52121  -2.50487
H    -1.34355  -1.48684  -1.90582
