20
Generated by autodE on: 2022-06-16. E = -420.495878 Ha
C    -2.28251   0.84317   0.82529
N    -2.10269  -0.19680   0.04132
C    -3.29883  -0.84410  -0.53304
N    -0.99879  -0.83839  -0.31162
C     0.24762  -0.26521  -0.10279
C     0.57009   1.11524  -0.14906
C     1.89630   1.54290  -0.05564
C     2.94302   0.62921   0.10469
C     2.64150  -0.73830   0.14899
C     1.32418  -1.17603   0.04173
H    -3.30125   1.16903   1.02008
H    -1.43378   1.31862   1.30816
H    -4.20658  -0.35412  -0.16656
H    -3.28795  -1.90107  -0.24040
H    -3.23819  -0.77397  -1.62656
H    -0.20983   1.86325  -0.28997
H     2.11124   2.61383  -0.10797
H     3.97526   0.97543   0.19180
H     3.44314  -1.47228   0.26779
H     1.08991  -2.24291   0.06120
