48
Generated by autodE on: 2022-06-24. E = -1447.048344 Ha
C    -2.01518   4.70340   0.75265
N    -1.98177   3.34500   0.23936
C    -1.04004   2.48180   0.61923
O    -0.13358   2.72365   1.41645
C    -1.08464   1.10364  -0.02439
O    -2.40667   0.77966  -0.52758
C    -2.47381  -0.57328  -0.50293
O    -3.41155  -1.21449  -0.88815
C    -1.11433  -1.00499   0.06162
C    -1.02378  -2.32120   0.81999
O    -0.23989  -2.41840   1.76446
N    -1.79077  -3.31444   0.36233
C    -1.74433  -4.63929   0.95504
O    -0.83969   0.09860   0.91952
C    -0.07242  -0.78202  -1.13574
C    -0.51177  -1.46680  -2.42862
C     1.24715  -1.41931  -0.67060
O     1.50690  -2.57240  -0.98742
C     2.14351  -0.65659   0.20817
O     3.11389  -1.24429   0.92209
C     3.04924  -2.61821   1.33324
C     2.16619   0.71931   0.14627
O     3.15364   1.33594   0.80649
C     3.15797   2.74899   1.06128
C     1.28694   1.43084  -0.79513
O     1.59549   2.52998  -1.23268
C    -0.05824   0.79799  -1.18776
C    -0.50737   1.40849  -2.51477
H    -1.04657   5.19901   0.59070
H    -2.79761   5.26053   0.22492
H    -2.23215   4.71440   1.83217
H    -2.70796   3.02918  -0.39677
H    -2.46593  -3.11131  -0.37179
H    -2.42430  -5.29702   0.40139
H    -0.72491  -5.05044   0.90344
H    -2.05161  -4.61224   2.01202
H     0.24181  -1.30707  -3.21111
H    -1.47147  -1.08812  -2.79539
H    -0.60732  -2.54642  -2.26248
H     3.74327  -2.69704   2.18056
H     3.37411  -3.28578   0.52489
H     2.03544  -2.88544   1.65704
H     3.84591   2.88520   1.90613
H     2.15678   3.10365   1.33472
H     3.52847   3.30249   0.18885
H    -1.49285   1.04270  -2.81884
H    -0.55926   2.49962  -2.41832
H     0.21689   1.16894  -3.30443
