48
Generated by autodE on: 2022-06-24. E = -1447.002552 Ha. Imaginary frequency = -296.8 cm-1
C    -1.85468   4.89547   0.18817
N    -1.94004   3.46943  -0.07316
C    -1.15891   2.60273   0.57865
O    -0.34883   2.89417   1.45641
C    -1.29456   1.17087   0.15312
O    -2.40890   0.72604  -0.45776
C    -2.44047  -0.67970  -0.30383
O    -3.27159  -1.37237  -0.83889
C    -1.30799  -0.94383   0.53628
C    -0.88455  -2.18375   1.20892
O    -0.01214  -2.16009   2.08308
N    -1.49126  -3.29619   0.75712
C    -1.07517  -4.61905   1.18017
O    -0.82850   0.24026   0.98786
C     0.05468  -0.59020  -1.56674
C    -0.73364  -1.26981  -2.64094
C     1.07469  -1.45295  -0.89782
O     1.10305  -2.66205  -1.12240
C     2.05171  -0.81498   0.00895
O     2.94295  -1.50332   0.73581
C     2.95337  -2.92716   0.89153
C     2.12871   0.55665   0.09124
O     3.09859   1.07000   0.87059
C     2.97524   2.36740   1.47068
C     1.32569   1.41320  -0.80025
O     1.62170   2.59215  -0.97815
C     0.13451   0.81578  -1.48388
C    -0.47642   1.66290  -2.57263
H    -0.82311   5.25164   0.04558
H    -2.51840   5.42044  -0.50815
H    -2.16028   5.12648   1.22033
H    -2.57604   3.12737  -0.78812
H    -2.16653  -3.20616   0.00086
H    -0.17268  -4.94697   0.63813
H    -0.85350  -4.61812   2.25562
H    -1.88543  -5.33151   0.98121
H    -0.12707  -1.29043  -3.56442
H    -1.66449  -0.74169  -2.87630
H    -0.95957  -2.30724  -2.36809
H     3.72261  -3.11706   1.65204
H     3.22847  -3.43044  -0.04422
H     1.98470  -3.29632   1.24974
H     3.59217   2.33190   2.37918
H     1.93238   2.58136   1.73815
H     3.35506   3.14944   0.79986
H    -1.53103   1.40986  -2.73721
H    -0.39813   2.72788  -2.32802
H     0.05951   1.49083  -3.52050
