26
Generated by autodE on: 2022-06-23. E = -689.460842 Ha
C    -2.71461   1.51731  -0.93656
O    -1.95651   0.35493  -1.28736
C    -0.80191   0.16228  -0.58388
C    -0.65855  -0.80823   0.36229
O    -1.55206  -1.69008   0.80938
C    -2.90574  -1.72435   0.34551
C     0.67366  -1.00474   1.03636
O     0.78946  -1.89981   1.86229
C     1.80641  -0.10659   0.69582
C     3.10237  -0.31764   1.41590
C     1.65105   0.85919  -0.24344
C     2.76659   1.77931  -0.62677
C     0.34194   1.02726  -0.94411
O     0.20664   1.87329  -1.82649
H    -3.60475   1.51649  -1.57959
H    -2.13948   2.43878  -1.11063
H    -3.02727   1.47271   0.11998
H    -3.38089  -2.54099   0.90367
H    -3.42284  -0.77988   0.56652
H    -2.94887  -1.93470  -0.73095
H     3.91004  -0.55549   0.70399
H     3.02430  -1.13343   2.14410
H     3.40836   0.60069   1.94337
H     3.11261   2.35585   0.24724
H     2.45269   2.47824  -1.41069
H     3.63681   1.20653  -0.98793
