24
Generated by autodE on: 2022-06-23. E = -609.450609 Ha
C    -0.90174   3.74701   0.44551
C    -0.08381   2.52722   0.24937
N    -0.62518   1.35082   0.18166
C    -0.16482   0.04683   0.01320
C    -1.28574  -0.89931   0.01900
O    -2.45632  -0.46505   0.16070
N    -1.00905  -2.21190  -0.13023
C    -2.01656  -3.24744  -0.13731
C     1.20463  -0.32159  -0.13658
O     1.62471  -1.47917  -0.28534
O     2.06794   0.72626  -0.10386
C     3.45704   0.42133  -0.24482
H    -0.74090   4.44857  -0.39133
H    -1.97505   3.51836   0.52236
H    -0.57892   4.27456   1.35977
H     0.99928   2.59746   0.15791
H    -1.65685   1.29537   0.26825
H    -0.02198  -2.44647  -0.23284
H    -1.86976  -3.95791   0.69324
H    -3.00678  -2.78889  -0.03030
H    -1.99616  -3.81940  -1.07960
H     3.79999  -0.23818   0.56630
H     3.98369   1.38210  -0.19285
H     3.65805  -0.06421  -1.21142
