50
Generated by autodE on: 2022-06-23. E = -1298.896449 Ha. Imaginary frequency = -442.3 cm-1
C    -0.32687  -3.61664   2.12873
N    -0.69381  -2.22570   1.95136
C    -1.13526  -1.76398   0.75799
O    -1.30745  -2.53205  -0.19762
C    -1.42583  -0.30522   0.67261
C    -2.56506   0.13263  -0.13436
O    -3.13423  -0.52413  -0.99293
O    -2.91868   1.40345   0.15317
C    -4.03109   1.94799  -0.56411
N    -0.95920   0.57815   1.62140
C     0.35960   0.66356   1.95746
C     0.76439   1.69568   2.95853
C     1.24494   1.16223   0.19340
O     1.48371   2.50803   0.42373
C     2.26390   3.16237  -0.57720
C     2.41904   0.25727   0.36329
O     3.40857   0.64614   0.97779
C     2.32614  -1.12422  -0.17545
C     3.34806  -2.12021   0.28236
C     1.38480  -1.43169  -1.10589
C     1.34765  -2.78041  -1.75467
C     0.37741  -0.42486  -1.57505
O    -0.33868  -0.66888  -2.55221
C     0.32839   0.85414  -0.86490
O    -0.40348   1.90286  -1.25626
C    -1.02053   2.01678  -2.54609
H     0.01536  -3.76063   3.16082
H    -1.17825  -4.29006   1.93934
H     0.48823  -3.89968   1.44375
H    -0.67321  -1.61152   2.75701
H    -4.15053   2.97494  -0.19988
H    -4.94218   1.36582  -0.36206
H    -3.83411   1.95141  -1.64502
H    -1.47272   1.46101   1.64923
H     0.85184  -0.30362   2.06438
H     0.26372   2.65635   2.77276
H     1.85117   1.84361   2.92223
H     0.50373   1.34439   3.97094
H     3.27841   2.73632  -0.63346
H     1.78554   3.09849  -1.56767
H     2.33431   4.21768  -0.27989
H     4.02659  -1.67770   1.02168
H     2.85518  -2.99843   0.73161
H     3.94896  -2.49289  -0.56356
H     0.48236  -2.87854  -2.41855
H     2.26506  -2.94584  -2.34540
H     1.31057  -3.57730  -0.99678
H    -0.27265   1.89374  -3.34201
H    -1.42620   3.03589  -2.57446
H    -1.82430   1.28556  -2.67891
