58
Generated by autodE on: 2022-06-24. E = -1304.573258 Ha
C     3.71207   3.16629   1.02789
N     3.20314   1.89637   0.55048
C     1.90370   1.59209   0.63955
O     1.08547   2.35738   1.16232
C     1.38840   0.24946   0.02386
C     2.49288  -0.82956  -0.01078
O     3.66546  -0.61254  -0.26692
O     2.04054  -2.05390   0.22376
C     2.99174  -3.12619   0.13376
N     0.24726  -0.23070   0.76504
C     0.39056  -0.35946   2.20144
C    -1.02422   0.03341   0.10656
C    -1.56331   1.42419   0.55619
O    -1.78761   2.40907  -0.11663
O    -1.77906   1.41282   1.87765
C    -2.17407   2.64944   2.48122
C    -2.10483  -0.98894   0.47731
C    -3.45830  -0.67218   0.29091
C    -4.45772  -1.61458   0.54808
C    -4.11760  -2.89094   1.00491
C    -2.77082  -3.21449   1.19683
C    -1.77366  -2.27265   0.93241
C    -0.61776  -0.08858  -1.42260
C    -1.59362   0.58247  -2.39758
C    -0.59611  -1.57745  -1.82698
C     0.84647   0.52151  -1.47200
C     1.73370  -0.14140  -2.53942
C     0.84970   2.02096  -1.82588
H     4.79374   3.20581   0.85000
H     3.23375   4.00819   0.50167
H     3.52407   3.29378   2.10589
H     3.81981   1.20685   0.12502
H     3.41743  -3.17279  -0.87863
H     2.43135  -4.04123   0.35540
H     3.79859  -2.98354   0.86615
H    -0.47884  -0.87384   2.62655
H     0.50079   0.60351   2.72634
H     1.27860  -0.97380   2.42256
H    -3.12592   3.00184   2.05821
H    -1.39847   3.41314   2.32553
H    -2.28976   2.44057   3.55118
H    -3.74330   0.32092  -0.06380
H    -5.50564  -1.34709   0.39284
H    -4.89698  -3.62830   1.21123
H    -2.49165  -4.20966   1.55166
H    -0.72599  -2.54103   1.06278
H    -1.72204   1.65303  -2.22972
H    -2.58233   0.10508  -2.31587
H    -1.24213   0.42536  -3.42893
H     0.06918  -2.18156  -1.20067
H    -1.60511  -2.00498  -1.77381
H    -0.26579  -1.66949  -2.86941
H     1.89159  -1.21554  -2.38742
H     2.71938   0.34369  -2.56263
H     1.27274  -0.00804  -3.52907
H     0.50685   2.14676  -2.86183
H     0.21123   2.62313  -1.17684
H     1.87307   2.41723  -1.77588
