18
Generated by autodE on: 2022-06-24. E = -235.968092 Ha
C     1.50252  -1.18552  -0.47131
C     0.67685  -0.01575   0.00798
C     1.54441   1.11531   0.50571
C    -0.67680   0.01577  -0.00790
C    -1.54399  -1.10801  -0.52257
C    -1.50295   1.17821   0.48813
H     0.91404  -2.05548  -0.78657
H     2.19170  -1.51718   0.32577
H     2.14358  -0.88460  -1.31966
H     2.15319   0.78592   1.36712
H     0.98929   2.01100   0.80906
H     2.26452   1.41536  -0.27644
H    -0.98635  -1.95078  -0.94823
H    -2.23158  -0.73242  -1.30133
H    -2.18765  -1.50093   0.28521
H    -2.22370   0.83442   1.25147
H    -2.11027   1.59956  -0.33332
H    -0.91729   1.99509   0.92653
