23
Generated by autodE on: 2022-06-19. E = -351.521384 Ha
C     3.76687  -0.23963   0.22489
C     2.56700   0.09244  -0.30030
C     2.46249   0.83063  -1.61036
C     1.33772  -0.26442   0.40510
C     0.07671   0.00858  -0.01461
C    -1.10981  -0.37047   0.72512
C    -2.40017  -0.13934   0.37415
C    -3.52978  -0.59816   1.25244
C    -2.82466   0.57181  -0.87933
H     4.70215   0.01460  -0.28158
H     3.83929  -0.77553   1.17635
H     1.93504   1.79078  -1.48430
H     1.88547   0.24982  -2.34907
H     3.45639   1.03553  -2.03256
H     1.46840  -0.79943   1.35351
H    -0.06207   0.54168  -0.95910
H    -0.93016  -0.90146   1.66781
H    -3.17160  -1.11207   2.15653
H    -4.15737   0.25696   1.56181
H    -4.19928  -1.28397   0.70262
H    -3.47891  -0.07972  -1.48523
H    -1.98617   0.89500  -1.50946
H    -3.42858   1.46159  -0.62767
