20
Generated by autodE on: 2022-06-19. E = -532.597673 Ha
C     3.40628  -0.77234   0.96528
N     2.31989  -1.70668   0.96328
O     1.16747  -1.19647   0.58173
C     0.74460  -0.01210   0.19536
C     1.54154   1.16222   0.11225
N     2.04937   2.20619  -0.00433
C    -0.67227   0.05444  -0.16654
C    -1.49756  -1.08521  -0.05136
C    -2.84236  -1.01518  -0.40456
C    -3.39245   0.18251  -0.87874
C    -2.58146   1.31526  -0.99472
C    -1.23363   1.25732  -0.64198
H     3.59607  -0.34581  -0.03796
H     3.24618   0.06503   1.67031
H     4.29728  -1.32798   1.28302
H    -1.07863  -2.02213   0.31653
H    -3.46912  -1.90476  -0.30928
H    -4.44781   0.23080  -1.15568
H    -2.99920   2.25435  -1.36417
H    -0.61307   2.14956  -0.73898
