43
Generated by autodE on: 2022-06-19. E = -884.113412 Ha. Imaginary frequency = -337.3 cm-1
C    -6.07127  -1.19493  -1.01234
C    -4.64856  -1.13220  -0.53708
C    -3.97475  -2.46464  -0.37160
C    -4.05193   0.06280  -0.28535
C    -2.70376   0.26163   0.18992
C    -2.13566   1.48782   0.37217
C    -0.77611   1.73662   0.80055
C    -0.32822   3.17407   0.91296
C     0.04206   0.73489   1.31160
C     1.36492  -0.04758  -0.37012
C     0.55437  -1.19566  -0.67043
N    -0.04055  -2.18941  -0.78946
C     2.64106  -0.29907   0.33273
C     3.59031   0.73394   0.45745
C     4.77438   0.51644   1.15904
C     5.02989  -0.72552   1.75306
C     4.08869  -1.75194   1.63662
C     2.90256  -1.54464   0.93042
O     1.36104   1.06590  -1.09695
N     0.31955   1.67382  -1.70815
C    -0.61637   0.77429  -2.31306
H    -6.13244  -1.68918  -1.99858
H    -6.68395  -1.80773  -0.32680
H    -6.52853  -0.19792  -1.09212
H    -2.89782  -2.39603  -0.17136
H    -4.11392  -3.07342  -1.28159
H    -4.44520  -3.03272   0.45102
H    -4.63876   0.97232  -0.45986
H    -2.11499  -0.62907   0.42296
H    -2.73065   2.37295   0.12006
H    -0.76545   3.80494   0.12681
H     0.76704   3.25454   0.85990
H    -0.64379   3.59151   1.88651
H     0.94855   1.02576   1.84312
H    -0.36268  -0.24625   1.56339
H     3.39413   1.70511   0.00290
H     5.50415   1.32481   1.24534
H     5.95839  -0.89057   2.30413
H     4.27714  -2.72473   2.09628
H     2.17703  -2.35536   0.84654
H    -1.27396   1.39209  -2.94106
H    -0.10893   0.03475  -2.96089
H    -1.27315   0.22053  -1.61460
