47
Generated by autodE on: 2022-06-22. E = -1056.869328 Ha
C    -4.76769   0.51574   0.41097
O    -3.35319   0.41666   0.64680
C    -2.56391   0.51142  -0.41564
O    -2.96442   0.65546  -1.55256
C    -1.07145   0.38162  -0.06182
C    -0.66816  -1.07166  -0.30974
C    -0.20604  -1.87850   0.73573
C     0.19055  -3.19557   0.48536
C     0.12006  -3.72075  -0.80742
C    -0.34866  -2.91874  -1.85308
C    -0.74086  -1.60145  -1.60638
C    -0.24069   1.42500  -0.86262
C     0.64625   2.10833   0.19364
C     1.00522   3.55332  -0.16658
C     1.90125   1.33665   0.54115
C     2.37369   0.23564  -0.07118
C     3.57255  -0.47059   0.34793
C     4.06256  -1.61202  -0.19321
C     5.30584  -2.25299   0.35674
C     3.43928  -2.33788  -1.35200
C    -0.30220   1.99080   1.42521
C    -1.37683   3.00882   1.43322
N    -2.24496   3.77854   1.43018
O    -0.86683   0.69834   1.32101
H    -5.24399   0.40887   1.39198
H    -5.01047   1.49431  -0.02710
H    -5.09949  -0.28444  -0.26568
H    -0.13988  -1.46851   1.74249
H     0.56032  -3.81201   1.30812
H     0.43364  -4.74898  -1.00137
H    -0.40465  -3.31755  -2.86856
H    -1.10319  -0.97942  -2.42669
H     0.33160   0.96342  -1.67405
H    -0.90895   2.16880  -1.31495
H     1.56011   4.03438   0.65377
H     1.64412   3.56283  -1.06188
H     0.10677   4.15212  -0.37939
H     2.45491   1.74422   1.39623
H     1.82962  -0.17825  -0.92138
H     4.11200  -0.03468   1.19719
H     5.72687  -1.68822   1.20149
H     6.08039  -2.34059  -0.42612
H     5.09633  -3.28350   0.69542
H     3.17195  -3.36753  -1.05800
H     4.16700  -2.43228  -2.17724
H     2.53553  -1.85535  -1.74357
H     0.23567   2.06211   2.38140
