45
Generated by autodE on: 2022-06-21. E = -1018.550564 Ha
C    -1.60528  -2.56627   2.24750
C    -2.42852  -1.92814   1.17725
O    -3.59753  -2.18789   0.97005
C    -1.72584  -0.92428   0.23936
C    -2.70961   0.11282  -0.15675
N    -3.44578   0.95694  -0.45729
O    -0.60936  -0.32470   0.84898
C     0.34436   0.11684  -0.16056
C     0.25670   1.63997  -0.26017
C     0.51532   2.31893  -1.45897
C     0.46881   3.71571  -1.51021
C     0.15849   4.45246  -0.36428
C    -0.09913   3.78200   0.83580
C    -0.04467   2.38747   0.88758
C     1.73162  -0.32431   0.30659
C     2.88222   0.37874  -0.08000
C     4.15213  -0.06838   0.29451
C     4.29347  -1.22366   1.06837
C     3.15213  -1.92824   1.46122
C     1.88290  -1.48308   1.08164
C    -0.11574  -0.60335  -1.48075
C     0.98732  -1.18550  -2.35334
C    -1.13486  -1.64905  -1.00023
C    -2.13825  -2.10595  -2.04435
H    -2.23053  -3.25240   2.83198
H    -1.16399  -1.79363   2.89437
H    -0.77022  -3.11993   1.78994
H     0.76179   1.76285  -2.36465
H     0.67333   4.22780  -2.45347
H     0.11643   5.54343  -0.40585
H    -0.34413   4.34770   1.73807
H    -0.24700   1.86925   1.82541
H     2.79262   1.28473  -0.67993
H     5.03501   0.49465  -0.01759
H     5.28598  -1.57045   1.36564
H     3.24648  -2.83178   2.06845
H     1.00180  -2.03885   1.39376
H    -0.67439   0.13495  -2.07493
H     0.55230  -1.61483  -3.26863
H     1.53996  -1.97976  -1.83034
H     1.70898  -0.41207  -2.65459
H    -0.59119  -2.51791  -0.59539
H    -1.61948  -2.62797  -2.86170
H    -2.68165  -1.25145  -2.47722
H    -2.87326  -2.80123  -1.61233
