12
Generated by autodE on: 2022-06-21. E = -157.300304 Ha
C    -1.95961  -0.08143   0.10404
C    -0.49528  -0.26368   0.36575
C     0.49528   0.26359  -0.36580
C     1.95961   0.08149  -0.10400
H    -2.46557   0.38504   0.96807
H    -2.14080   0.54942  -0.78044
H    -2.46126  -1.05214  -0.05772
H    -0.23136  -0.88398   1.23383
H     0.23136   0.88384  -1.23393
H     2.46599  -0.38341  -0.96861
H     2.46082   1.05216   0.05943
H     2.14081  -0.55062   0.77958
