46
Generated by autodE on: 2022-10-07. E = -1105.755356 Ha
C    -2.46499   1.62690  -3.42944
N    -1.66382   1.33741  -2.25493
C    -1.53658   0.12018  -1.73209
O    -2.05686  -0.91809  -2.14550
C    -0.68564   0.05772  -0.43287
C    -1.60854   0.16467   0.76973
C    -2.55857  -0.83602   1.01280
C    -3.40942  -0.73271   2.11578
C    -3.32388   0.37228   2.96778
C    -2.38355   1.37566   2.71390
C    -1.52601   1.27524   1.61660
N     0.04677  -1.25097  -0.47004
C     1.43472  -0.95813  -1.05949
N     1.29641  -0.98673  -2.48275
N     2.32086  -1.95913  -0.54254
C     3.74822  -1.78119  -0.83119
C     1.64923   0.47087  -0.43100
C     2.55059   1.39439  -1.22091
C     2.13338   0.34021   1.02953
O     3.22914   0.67674   1.41776
O     1.18956  -0.17790   1.80440
C     1.47023  -0.33528   3.20444
O     0.32539   1.03344  -0.43155
H    -3.13133   2.47874  -3.23135
H    -3.06937   0.74597  -3.67519
H    -1.82547   1.87297  -4.29127
H    -1.10918   2.08264  -1.84166
H    -2.63875  -1.69477   0.34425
H    -4.14270  -1.51917   2.30658
H    -3.99085   0.45203   3.82918
H    -2.31305   2.24165   3.37576
H    -0.78433   2.04894   1.42193
H    -0.47724  -1.91679  -1.06360
H     0.15523  -1.62898   0.48157
H     0.92996  -0.11596  -2.86940
H     2.20541  -1.14949  -2.91446
H     2.02149  -2.85635  -0.92910
H     4.17157  -0.96735  -0.23016
H     3.97364  -1.58605  -1.89559
H     4.26468  -2.70688  -0.54556
H     2.58039   2.37653  -0.72969
H     2.16297   1.52015  -2.23913
H     3.57199   0.99933  -1.27057
H     0.54585  -0.71688   3.65143
H     2.29227  -1.05138   3.34340
H     1.73918   0.63421   3.64541
