33
Generated by autodE on: 2022-10-14. E = -860.421037 Ha
C    -2.83045  -0.18110  -3.65460
N    -2.13137  -0.09749  -2.38983
C    -0.78165  -0.00921  -2.33705
O    -0.08390   0.00827  -3.36363
C    -0.17391   0.07091  -0.98811
O     1.09773   0.38188  -1.08447
C     2.16138   0.53213  -0.32566
C     3.31179   1.20673  -0.99029
C     2.29018   0.03544   1.03111
O     3.19976   0.38225   1.78041
O     1.38634  -0.90041   1.35795
C     1.37927  -1.36410   2.71042
C    -0.91248   0.02654   0.27741
C    -1.80539  -1.02253   0.56449
C    -2.51685  -1.03645   1.76658
C    -2.35005  -0.00604   2.69520
C    -1.46870   1.04657   2.41416
C    -0.75408   1.06285   1.22008
H    -2.40926  -0.98262  -4.28035
H    -3.88834  -0.39962  -3.46303
H    -2.76271   0.76075  -4.22536
H    -2.67158  -0.01988  -1.53548
H     3.41999   2.25224  -0.64723
H     3.14563   1.22278  -2.07671
H     4.26105   0.69354  -0.77213
H     0.54297  -2.06911   2.78324
H     2.32498  -1.87010   2.95417
H     1.22516  -0.52460   3.40411
H    -1.92242  -1.84269  -0.14578
H    -3.19730  -1.86358   1.98109
H    -2.90322  -0.02073   3.63692
H    -1.33812   1.85799   3.13373
H    -0.06049   1.88170   1.01580
