33
Generated by autodE on: 2022-10-07. E = -860.421898 Ha
C    -1.19076  -2.60703   0.51490
N     0.07266  -2.17834   1.08500
C     0.68257  -0.99898   0.87918
O     1.87245  -0.79571   1.14886
C    -0.14690   0.17272   0.43291
O     0.35508   1.01311  -0.43574
C     1.30487   0.90487  -1.36604
C     1.75777   2.20474  -1.93693
C     1.64054  -0.38003  -1.90075
O     1.09235  -1.44852  -1.61606
O     2.60654  -0.29392  -2.84955
C     2.93871  -1.50699  -3.52775
C    -1.30936   0.66281   1.14856
C    -2.03192   1.77390   0.64898
C    -3.14313   2.26171   1.32968
C    -3.57221   1.65386   2.51648
C    -2.87054   0.55216   3.01847
C    -1.75287   0.05917   2.34910
H    -1.02554  -3.45056  -0.17340
H    -1.89656  -2.92440   1.29733
H    -1.64493  -1.79002  -0.05684
H     0.68471  -2.90241   1.45596
H     2.75923   2.49073  -1.56662
H     1.81595   2.16682  -3.03522
H     1.05636   2.99913  -1.64172
H     3.27946  -2.27387  -2.81588
H     3.74889  -1.25473  -4.22261
H     2.07393  -1.89567  -4.08693
H    -1.71854   2.23956  -0.28606
H    -3.68793   3.11842   0.92615
H    -4.44957   2.03465   3.04389
H    -3.19329   0.07397   3.94607
H    -1.21095  -0.78910   2.76625
