13
Generated by autodE on: 2022-10-07. E = -245.298490 Ha
C     1.86918   0.46903  -0.44745
N     0.85051  -0.40895   0.10168
C    -0.45361  -0.12262   0.11286
N    -0.90109   1.00747  -0.43843
N    -1.31673  -0.97515   0.67396
H     1.89909   1.43508   0.08183
H     2.84275  -0.01982  -0.33044
H     1.70323   0.65635  -1.52028
H     1.14085  -1.27376   0.54686
H    -1.88972   1.23225  -0.41045
H    -0.26653   1.67613  -0.85802
H    -2.30934  -0.76857   0.68575
H    -0.98781  -1.83168   1.10581
