45
Generated by autodE on: 2022-06-01. E = -1126.085123 Ha
C     4.08394  -0.06628   1.59840
N     2.90643  -0.34755   0.80302
C     2.34024   0.57398   0.01415
O     2.81597   1.69963  -0.17398
C     0.99027   0.18406  -0.60452
C     0.91496   0.51061  -2.12663
C     2.16842   0.76226  -2.90817
O    -0.17349   0.44114  -2.67418
N     0.70448  -1.24617  -0.46346
C     1.39342  -2.17970  -1.35138
C    -0.74531  -1.41018  -0.47816
C    -1.12245  -2.66729   0.18527
N    -1.41365  -3.67803   0.67435
C    -1.36557  -0.13041   0.15822
C    -2.64934   0.33761  -0.52583
C    -3.33593  -0.55230  -1.52635
O    -3.13663   1.41284  -0.21920
C    -1.59905  -0.35180   1.71797
C    -2.07298   0.93831   2.35860
C    -0.98834   1.71992   2.41608
C     0.11795   0.90785   1.76635
O    -0.23865  -0.42558   2.14952
C    -0.15885   0.90367   0.19464
C    -0.38292   2.32697  -0.31345
H     3.84629   0.57955   2.46109
H     4.50262  -1.01032   1.96904
H     4.84062   0.44546   0.98722
H     2.35730  -1.18595   0.97627
H     2.54343   1.76871  -2.66887
H     1.95049   0.68636  -3.98127
H     2.96134   0.05484  -2.62257
H     2.47276  -1.98403  -1.33981
H     1.23306  -3.20561  -0.98839
H     1.03160  -2.13002  -2.39654
H    -1.10142  -1.51035  -1.51715
H    -4.32792  -0.13929  -1.74832
H    -3.43224  -1.58360  -1.15315
H    -2.74589  -0.58946  -2.45581
H    -2.15234  -1.26495   1.95827
H    -3.09942   1.16025   2.64481
H    -0.90287   2.75171   2.75407
H     1.14232   1.15178   2.05996
H    -1.12908   2.85183   0.29057
H     0.56859   2.87479  -0.25051
H    -0.72501   2.34844  -1.35317
