21
Generated by autodE on: 2022-06-01. E = -499.581891 Ha
C     2.71384  -0.51412   0.78850
C     1.79429   0.53256   0.21131
O     2.16835   1.69800   0.06429
C     0.44802   0.08755  -0.15210
C    -0.64870   0.82600  -0.44906
C    -0.87856   2.28388  -0.54563
C    -1.78901  -0.21223  -0.57759
C    -2.06449  -0.74307   0.84642
C    -0.99038  -1.48005   1.14595
C    -0.07648  -1.37297  -0.09514
O    -1.06412  -1.31820  -1.14146
H     2.91731  -1.29090   0.03278
H     2.23397  -1.01971   1.64267
H     3.65847  -0.05389   1.10616
H     0.02968   2.85767  -0.33034
H    -1.24193   2.54448  -1.55528
H    -1.68215   2.57741   0.15327
H    -2.65018   0.08293  -1.18733
H    -2.93279  -0.48928   1.45330
H    -0.73831  -2.00358   2.06768
H     0.65048  -2.17452  -0.25825
