24
Generated by autodE on: 2022-07-27. E = -626.438064 Ha
C     3.19964   1.31978   1.74234
N     1.82927   1.11766   1.31125
C     1.52535   0.31421   0.27754
O     2.37303  -0.38363  -0.29299
C     0.08265   0.33610  -0.15960
C    -0.43597   1.49617  -0.84799
C     0.49231   2.67854  -1.03703
O    -1.59745   1.56364  -1.29216
N    -0.64350  -0.80796   0.01669
C     0.02918  -1.92521   0.72296
C    -1.90225  -0.98753  -0.39534
C    -2.60977  -2.18216  -0.17841
N    -3.27075  -3.13706  -0.04212
H     3.79918   1.80718   0.95561
H     3.20118   1.95613   2.63548
H     3.67596   0.35883   1.98712
H     1.09485   1.69878   1.70300
H     0.56869   3.25893  -0.10376
H     0.06850   3.32807  -1.81428
H     1.50832   2.37371  -1.32735
H     0.44716  -1.54960   1.66348
H     0.83353  -2.31017   0.08818
H    -0.69568  -2.71431   0.93663
H    -2.38087  -0.15877  -0.91376
