45
Generated by autodE on: 2022-06-01. E = -1126.017167 Ha. Imaginary frequency = -346.0 cm-1
C     4.25930   0.11790   1.30005
N     2.91292   0.10410   0.76420
C     2.68671   0.02328  -0.55574
O     3.59797   0.06851  -1.39204
C     1.24640  -0.14192  -0.99581
C     0.82421   0.63191  -2.16380
C     1.59936   1.88675  -2.49204
O    -0.12338   0.30317  -2.89387
N     0.63708  -1.33064  -0.65968
C     1.32495  -2.34797   0.15313
C    -0.72364  -1.41020  -0.80237
C    -1.39876  -2.60283  -0.40018
N    -2.02605  -3.51882  -0.05115
C    -1.40016   0.12490   0.43853
C    -2.83956   0.03008   0.08726
C    -3.35275   0.60117  -1.20558
O    -3.60111  -0.51912   0.88008
C    -1.04705  -0.28501   1.90122
C    -1.66057   0.80101   2.79757
C    -0.91842   1.89288   2.57603
C     0.15130   1.44951   1.56135
O     0.34447   0.08105   1.95851
C    -0.57022   1.26552   0.21558
C    -0.88538   2.48336  -0.58708
H     4.20947   0.29477   2.38164
H     4.77616  -0.84006   1.11874
H     4.85447   0.91693   0.83398
H     2.12259  -0.03526   1.39308
H     2.03500   2.37002  -1.60787
H     0.92995   2.58422  -3.01197
H     2.42423   1.62285  -3.17159
H     1.22691  -2.14410   1.22710
H     2.38270  -2.38499  -0.12594
H     0.88628  -3.32711  -0.07037
H    -1.11110  -0.95207  -1.71086
H    -2.61486   0.56705  -2.01667
H    -3.60649   1.66055  -1.03390
H    -4.27103   0.07238  -1.49463
H    -1.20778  -1.33154   2.17604
H    -2.55706   0.68046   3.40360
H    -1.04210   2.90786   2.95204
H     1.08787   2.01537   1.53888
H    -1.72708   3.02126  -0.11250
H    -0.02894   3.17149  -0.60168
H    -1.18171   2.26253  -1.61890
