36
Generated by autodE on: 2022-06-17. E = -692.387174 Ha
C     5.38346   0.22525  -1.19964
C     3.89933   0.24718  -1.43409
C     3.47768   0.86140  -2.73878
C     3.04593  -0.25873  -0.51088
C     1.59660  -0.29968  -0.59833
C     0.81261  -0.82925   0.36023
C    -0.68422  -0.96125   0.30845
C    -1.07693  -2.44282   0.28183
C    -1.41324  -0.14696  -0.77883
C    -2.74231   0.31463  -0.13369
C    -2.88606   1.83218  -0.12918
C    -3.97715  -0.36904  -0.69824
O    -2.64492  -0.14721   1.27215
N    -1.27831  -0.36694   1.55890
C    -0.68970   0.71249   2.10006
N    -0.19122   1.59658   2.67811
H     5.79674   1.24940  -1.22429
H     5.89713  -0.33082  -2.00407
H     5.64585  -0.23371  -0.23528
H     2.39218   0.86068  -2.90016
H     3.83428   1.90461  -2.80040
H     3.95102   0.32641  -3.58067
H     3.47762  -0.68240   0.40339
H     1.13119   0.11617  -1.49557
H     1.27771  -1.27110   1.24949
H    -2.16423  -2.56485   0.38541
H    -0.76313  -2.88478  -0.67439
H    -0.58304  -2.98517   1.10136
H    -1.58377  -0.74855  -1.68038
H    -0.81797   0.73092  -1.05880
H    -2.01920   2.31114   0.34999
H    -2.95192   2.20547  -1.16284
H    -3.79792   2.13169   0.40932
H    -4.15437  -0.02350  -1.72767
H    -3.85373  -1.46135  -0.71317
H    -4.86322  -0.11948  -0.09446
