23
Generated by autodE on: 2022-06-17. E = -351.521380 Ha
C     3.61834   0.46853  -0.99386
C     2.44561   0.74838  -0.38375
C     2.28197   1.97774   0.47294
C     1.30374  -0.14857  -0.55039
C     0.07535   0.02478  -0.00098
C    -1.02525  -0.89563  -0.20139
C    -2.28204  -0.78890   0.29940
C    -2.75558   0.33821   1.17263
C    -3.32048  -1.83243  -0.00143
H     4.48807   1.12281  -0.88717
H     3.73358  -0.42469  -1.61563
H     3.21272   2.56085   0.51453
H     1.48200   2.62958   0.08417
H     1.99516   1.70882   1.50318
H     1.47544  -1.03063  -1.17907
H    -0.10335   0.90241   0.62616
H    -0.80431  -1.76730  -0.82929
H    -3.62045   0.84348   0.70752
H    -1.98640   1.09472   1.37450
H    -3.11534  -0.05350   2.14055
H    -3.70366  -2.28374   0.93149
H    -4.19550  -1.38081  -0.50271
H    -2.92926  -2.63647  -0.64194
