13
Generated by autodE on: 2022-06-17. E = -340.808994 Ha
C    -1.55074  -1.56548   0.00147
C    -1.23578  -0.21984   0.50426
C    -2.15639   0.57008   1.34456
O    -0.12664   0.33719   0.22953
N     0.80443  -0.39616  -0.58774
C     1.85530   0.38278  -0.73156
N     2.85339   0.97565  -0.93920
H    -0.77854  -2.27034   0.35555
H    -1.47478  -1.56522  -1.09951
H    -2.54730  -1.88581   0.32455
H    -3.10695   0.70297   0.80006
H    -2.39374  -0.01035   2.25255
H    -1.72669   1.54323   1.61128
