60
Generated by autodE on: 2022-06-13. E = -1642.247311 Ha
C    -3.24428   2.54396  -1.82080
O    -2.21246   2.13576  -0.90679
C    -2.35410   0.94844  -0.34032
O    -3.33044   0.24593  -0.50242
C    -1.19025   0.59822   0.62113
C    -1.50835   1.24831   2.03247
C    -2.94073   1.49431   2.40518
O    -0.58491   1.69758   2.68013
N     0.06773   1.12951   0.10593
C     0.43108   2.53287   0.26006
C     1.10453   0.13007  -0.02765
C     1.83984   0.04006   1.33070
O     1.58514  -0.76907   2.20038
O     2.70039   1.03477   1.48335
C     3.28723   1.19211   2.78809
C     2.08842   0.36992  -1.17307
C     3.33348  -0.27575  -1.15494
C     4.20296  -0.17167  -2.24230
C     3.84037   0.58581  -3.36007
C     2.60310   1.23496  -3.38218
C     1.73000   1.12481  -2.29745
C     0.24540  -1.17138  -0.28036
C     1.05579  -2.36586  -0.07076
N     1.74731  -3.29304   0.00318
C    -0.20750  -1.12837  -1.80105
C     0.43420  -2.07719  -2.76612
O    -0.97988  -0.26476  -2.15452
C    -0.99921  -0.98307   0.66166
C    -0.88281  -1.55423   2.11395
C    -0.46318  -2.98440   2.33191
O    -1.33804  -0.90702   3.03430
C    -2.18809  -1.88071   0.13066
C    -3.40033  -2.10559   0.98948
O    -2.00013  -2.54660  -0.86862
H    -4.21330   2.59382  -1.30503
H    -2.94925   3.53591  -2.18022
H    -3.30406   1.83395  -2.65760
H    -3.27974   2.38803   1.85266
H    -3.00572   1.70404   3.48024
H    -3.60372   0.66783   2.12887
H    -0.47649   3.14310   0.24623
H     1.05265   2.84940  -0.58810
H     0.97850   2.74867   1.18832
H     2.49701   1.35528   3.53416
H     3.93930   2.06955   2.71893
H     3.87031   0.29885   3.05131
H     3.62979  -0.87570  -0.29233
H     5.16689  -0.68447  -2.21409
H     4.52081   0.66987  -4.21053
H     2.30980   1.82838  -4.25109
H     0.75495   1.60751  -2.33441
H     0.06348  -1.85863  -3.77490
H     0.19675  -3.11519  -2.49351
H     1.52917  -1.96927  -2.73735
H     0.61341  -3.01811   2.54123
H    -0.66418  -3.62982   1.46873
H    -1.00231  -3.35619   3.21299
H    -4.26419  -2.27661   0.33511
H    -3.22994  -3.02826   1.56906
H    -3.60211  -1.29072   1.68816
