38
Generated by autodE on: 2022-06-13. E = -1013.167528 Ha
C     4.54368   0.46544  -2.51263
O     3.72991   0.19871  -1.36896
C     2.44203   0.60363  -1.43687
O     2.01754   1.20084  -2.42705
C     1.64061   0.24669  -0.29054
C     1.97543  -0.62783   0.80027
C     3.40771  -1.04262   1.05462
O     1.09492  -1.05597   1.57947
N     0.33007   0.80023  -0.24730
C     0.23748   2.27243  -0.30103
C    -0.71110   0.06274   0.06192
C    -0.66648  -1.42302  -0.21707
O    -0.07767  -1.91987  -1.15240
O    -1.43675  -2.09300   0.62987
C    -1.49615  -3.51709   0.45397
C    -1.97581   0.62733   0.55682
C    -3.18964   0.25996  -0.05428
C    -4.39344   0.78545   0.41174
C    -4.40253   1.65668   1.50661
C    -3.20167   2.00468   2.13367
C    -1.99148   1.49999   1.65988
H     4.13699  -0.02561  -3.40934
H     5.53431   0.05629  -2.27938
H     4.61941   1.54699  -2.69966
H     3.44414  -1.54574   2.02995
H     4.10071  -0.19225   1.03660
H     3.73627  -1.74685   0.27512
H     0.52504   2.69461   0.67034
H    -0.78150   2.57592  -0.56081
H     0.93130   2.61992  -1.07072
H    -1.88521  -3.76372  -0.54393
H    -2.17362  -3.88722   1.23131
H    -0.49425  -3.95215   0.57922
H    -3.18630  -0.42371  -0.90558
H    -5.32959   0.50983  -0.07833
H    -5.34838   2.05879   1.87649
H    -3.20698   2.67096   2.99893
H    -1.05811   1.75906   2.16083
