60
Generated by autodE on: 2022-06-13. E = -1642.184131 Ha. Imaginary frequency = -198.6 cm-1
C    -3.91402   1.49085  -1.54876
O    -2.70151   1.05929  -0.92002
C    -2.43174   1.52360   0.29428
O    -3.19349   2.25216   0.90007
C    -1.10409   1.03075   0.82405
C    -0.93379   1.31316   2.29329
C    -2.09821   1.29392   3.25173
O     0.15947   1.67372   2.71319
N    -0.01138   1.38453  -0.02254
C    -0.26187   2.50283  -0.96957
C     1.19882   0.80369   0.03187
C     1.73334   0.34452   1.39663
O     1.45949  -0.66302   1.99876
O     2.66036   1.22132   1.77550
C     3.29171   0.97445   3.04218
C     2.21693   0.81219  -1.03185
C     3.44718   0.15159  -0.76501
C     4.41672  -0.00906  -1.74839
C     4.20086   0.47806  -3.03997
C     2.98854   1.10409  -3.33638
C     2.00942   1.26379  -2.35954
C     0.02449  -1.49684  -0.48563
C     1.12846  -2.30078  -0.08183
N     2.04344  -2.99080   0.13439
C     0.01724  -1.18352  -1.94616
C     0.96989  -1.95420  -2.82527
O    -0.68581  -0.29990  -2.41702
C    -1.08112  -1.27179   0.37970
C    -1.05255  -1.93486   1.76219
C    -0.95332  -3.44274   1.76807
O    -1.18986  -1.31895   2.79657
C    -2.49633  -1.47409  -0.19662
C    -3.67286  -1.28326   0.72128
O    -2.64844  -1.96131  -1.29965
H    -3.87914   2.57432  -1.73327
H    -3.96432   0.94141  -2.49543
H    -4.78037   1.25059  -0.91747
H    -2.43567   2.33275   3.38768
H    -1.72343   0.92444   4.21494
H    -2.95193   0.69422   2.92748
H    -0.70163   2.15888  -1.90836
H     0.67805   3.03220  -1.14396
H    -0.94476   3.20274  -0.47562
H     2.53930   0.99037   3.84266
H     4.01591   1.78521   3.17841
H     3.80283   0.00125   3.03035
H     3.65384  -0.27480   0.21395
H     5.34584  -0.52615  -1.50105
H     4.96416   0.35701  -3.81153
H     2.79030   1.46754  -4.34659
H     1.07556   1.71384  -2.66670
H     0.82066  -1.64650  -3.86743
H     0.80601  -3.03830  -2.72188
H     2.01213  -1.75491  -2.53241
H     0.08625  -3.71753   2.00582
H    -1.21739  -3.89645   0.80382
H    -1.59629  -3.83073   2.57057
H    -4.57094  -1.08864   0.12134
H    -3.82242  -2.23803   1.25495
H    -3.53843  -0.50823   1.48016
