59
Generated by autodE on: 2022-06-25. E = -1400.674768 Ha
C    -4.39247  -2.30239   2.99022
O    -3.76280  -1.88871   1.76806
C    -2.54220  -2.36776   1.52511
O    -1.97874  -3.17371   2.22992
C    -1.99334  -1.78271   0.20639
C    -2.71430  -2.58300  -0.89366
O    -2.86569  -3.78690  -0.81214
O    -3.12141  -1.85535  -1.92347
C    -3.75564  -2.56280  -3.00250
C    -0.46347  -1.99362   0.10258
C     0.13117  -0.62774  -0.31826
C     0.09758  -0.48710  -1.84447
C     1.51808  -0.48662   0.25149
C     2.62996  -0.12015  -0.41521
C     3.93534  -0.01253   0.21505
C     5.09278   0.37671  -0.37202
C     6.36979   0.44895   0.41767
C     5.22323   0.76777  -1.81740
C    -0.93882   0.37268   0.33024
C    -0.69006   0.48762   1.85339
O    -1.28947  -0.18731   2.66867
O     0.24172   1.36852   2.19485
C     0.57909   1.45947   3.58763
C    -0.96058   1.75462  -0.32567
C    -2.14104   2.24309  -0.90222
C    -2.17369   3.49734  -1.52114
C    -1.02105   4.28252  -1.58274
C     0.16505   3.80021  -1.01902
C     0.19507   2.55264  -0.39374
N    -2.18201  -0.34720   0.10409
H    -5.37389  -1.81519   3.00525
H    -3.79131  -1.97685   3.85140
H    -4.50765  -3.39530   3.01168
H    -3.05943  -3.29221  -3.44029
H    -4.65405  -3.08258  -2.64107
H    -4.02588  -1.80112  -3.74237
H    -0.19206  -2.78449  -0.60794
H    -0.08723  -2.29429   1.08760
H     0.69779  -1.28886  -2.29903
H    -0.93009  -0.57242  -2.21852
H     0.50207   0.47603  -2.18008
H     1.61505  -0.73318   1.31525
H     2.55972   0.12551  -1.47720
H     3.96850  -0.26964   1.28063
H     7.14140  -0.20653  -0.02461
H     6.78768   1.47143   0.39333
H     6.22602   0.15706   1.46840
H     5.60121   1.80213  -1.90027
H     4.28295   0.70229  -2.37983
H     5.97000   0.12837  -2.32034
H    -0.30138   1.75234   4.17652
H     1.35827   2.22676   3.65814
H     0.95942   0.49355   3.94961
H    -3.04189   1.63139  -0.88192
H    -3.10784   3.85653  -1.95989
H    -1.04357   5.26101  -2.06841
H     1.07782   4.39921  -1.06635
H     1.12892   2.19422   0.03374
H    -2.95287  -0.01170   0.67509
