23
Generated by autodE on: 2022-06-25. E = -351.521381 Ha
C    -3.64372   0.94639   0.35512
C    -2.56982   0.13173   0.26084
C    -2.71804  -1.36777   0.30266
C    -1.23200   0.70190   0.11473
C    -0.07793  -0.00390   0.01027
C     1.22471   0.61362  -0.13328
C     2.42059  -0.01752  -0.24804
C     3.69384   0.76807  -0.38754
C     2.59708  -1.50951  -0.24765
H    -3.53274   2.03470   0.32448
H    -4.65580   0.54691   0.46475
H    -3.77129  -1.66088   0.41555
H    -2.32608  -1.83181  -0.61767
H    -2.14629  -1.80034   1.14051
H    -1.17869   1.79704   0.08943
H    -0.12258  -1.09609   0.03520
H     1.22918   1.71028  -0.14884
H     4.39455   0.52611   0.43181
H     3.51559   1.85343  -0.38358
H     4.21710   0.50299  -1.32388
H     3.25919  -1.81571   0.58159
H     1.65558  -2.06627  -0.15681
H     3.10012  -1.83421  -1.17561
