36
Generated by autodE on: 2022-06-25. E = -1049.114390 Ha
C    -4.16364  -0.62663   2.91990
O    -3.43558  -0.09140   1.80866
C    -2.15113  -0.45162   1.70978
O    -1.61342  -1.20009   2.52930
C    -1.42184   0.08087   0.56845
N    -0.13065  -0.40740   0.54560
C     0.95327  -0.08158  -0.12157
C     1.01933   1.24615  -0.81671
O     0.69554   2.28199  -0.27464
O     1.56220   1.15607  -2.02292
C     1.70649   2.38546  -2.75339
C     2.13604  -0.93774  -0.04498
C     2.01162  -2.31640   0.22997
C     3.14544  -3.11824   0.34732
C     4.41972  -2.56573   0.18221
C     4.55420  -1.20242  -0.10347
C     3.42668  -0.39294  -0.21943
C    -1.93998   0.76857  -0.59539
O    -1.32548   0.86587  -1.65758
O    -3.16871   1.28709  -0.44209
C    -3.74470   1.91183  -1.59421
H    -3.70880  -0.31419   3.87138
H    -5.17841  -0.21983   2.83635
H    -4.19273  -1.72521   2.87543
H    -0.03056  -1.17406   1.22712
H     0.71978   2.84217  -2.91438
H     2.16410   2.11396  -3.71105
H     2.35337   3.08343  -2.20336
H     1.02403  -2.77396   0.31955
H     3.03182  -4.18479   0.55289
H     5.30633  -3.19792   0.26699
H     5.54643  -0.76494  -0.23277
H     3.55098   0.67069  -0.42763
H    -3.84814   1.19251  -2.41997
H    -4.73329   2.26671  -1.27943
H    -3.12772   2.75916  -1.92785
