14
Generated by autodE on: 2022-05-29. E = -416.085343 Ha
C    -3.47664  -0.35143   0.06980
N    -2.41459   0.20685   0.91515
N    -1.33923   0.37973   0.36120
C    -0.29028   0.68820  -0.13775
C     0.96930   0.02692  -0.44872
O     1.17678  -0.56594  -1.48841
O     1.87283   0.22298   0.51586
C     3.17551  -0.34448   0.29450
H    -3.46185   0.09345  -0.93759
H    -3.35206  -1.44218  -0.02566
H    -4.43934  -0.15030   0.55225
H     3.63872   0.09745  -0.59934
H     3.10580  -1.43464   0.17224
H     3.76268  -0.09999   1.18670
