30
Generated by autodE on: 2022-05-29. E = -2104.732572 Ha. Imaginary frequency = -415.7 cm-1
C     4.63496   2.11985  -0.59464
O     3.46842   1.31406  -0.84275
C     2.86505   0.80209   0.23361
O     3.21874   0.97563   1.37950
C     1.66264   0.05663  -0.14635
N     1.39227  -0.83825  -0.93300
N     0.57841  -1.74104  -1.16706
C     0.03151  -1.84893  -2.51073
C    -1.05013  -0.68131   0.44604
Cl   -1.55974  -2.25697   1.03862
C    -1.87675  -0.08042  -0.61647
C    -3.15131  -0.59574  -0.92743
C    -3.91787  -0.04577  -1.95546
C    -3.42964   1.02498  -2.70835
C    -2.16062   1.53846  -2.42108
C    -1.39308   0.99795  -1.39131
C    -0.07988   0.01367   1.17944
Cl   -0.22836   1.76381   1.42804
Cl    0.66248  -0.77007   2.56863
H     4.97969   2.45489  -1.57927
H     5.41379   1.52323  -0.09888
H     4.37486   2.98317   0.03445
H    -0.08499  -0.87024  -2.99959
H    -0.94525  -2.34251  -2.42506
H     0.68293  -2.48925  -3.12827
H    -3.54638  -1.43544  -0.35701
H    -4.90504  -0.46259  -2.16805
H    -4.02890   1.45287  -3.51511
H    -1.75746   2.36666  -3.00837
H    -0.40264   1.40912  -1.20689
