19
Generated by autodE on: 2022-05-26. E = -664.726234 Ha
N     4.42298  -0.56374   1.57920
C     3.44460  -0.29065   1.00760
C     2.27393   0.04468   0.31155
O     2.22605   0.77603  -0.77191
C     0.83399   0.89012  -1.17952
O     0.53437   1.52530  -2.16511
C     0.15549   0.13546  -0.18756
C    -1.24345  -0.14981   0.00642
C    -1.68430  -0.91499   1.10745
C    -3.04174  -1.17634   1.27700
C    -3.97917  -0.68473   0.36043
C    -3.54732   0.07419  -0.73302
C    -2.19243   0.34389  -0.91559
O     1.08585  -0.34886   0.68480
H    -0.95863  -1.29995   1.82561
H    -3.37233  -1.76887   2.13302
H    -5.04242  -0.89265   0.49869
H    -4.27310   0.46064  -1.45201
H    -1.85878   0.93545  -1.76837
