42
Generated by autodE on: 2022-06-19. E = -995.516078 Ha
C    -3.93825   3.18685  -0.66514
N    -2.79777   2.31610  -0.47173
C    -2.92566   0.98344  -0.40137
O    -4.00680   0.39429  -0.52084
C    -1.63455   0.23463  -0.16804
N    -0.57984   0.86755   0.17600
C     0.52325  -0.07403   0.39770
C     0.75484  -0.19861   1.92002
C     0.68973   1.05753   2.73329
O     0.99905  -1.28646   2.40974
C     1.83004   0.42771  -0.21609
C     1.81944   1.46373  -1.15989
C     3.00958   1.88981  -1.75562
C     4.22412   1.28842  -1.41277
C     4.24038   0.25634  -0.47011
C     3.05197  -0.17131   0.12702
C     0.02926  -1.40863  -0.26432
C     0.62153  -2.68513   0.28013
O     1.68329  -3.13077  -0.11856
C    -1.52164  -1.28139  -0.26656
C    -2.21943  -1.91212   0.95582
C    -2.10384  -1.85544  -1.56448
H    -3.58311   4.21451  -0.80695
H    -4.61804   3.16216   0.20256
H    -4.51368   2.88223  -1.55263
H    -1.87351   2.70551  -0.31040
H     1.18432   1.89146   2.21545
H    -0.36926   1.33601   2.85956
H     1.13842   0.88697   3.72035
H     0.87493   1.93632  -1.43077
H     2.98566   2.69740  -2.49126
H     5.15436   1.62348  -1.87743
H     5.18397  -0.21989  -0.19365
H     3.08166  -0.97777   0.86030
H     0.36992  -1.35086  -1.30782
H     0.02265  -3.25020   1.02336
H    -2.18872  -3.00985   0.89423
H    -1.75286  -1.60391   1.90280
H    -3.27334  -1.60336   0.97549
H    -1.82377  -2.91728  -1.65123
H    -3.19897  -1.78245  -1.57619
H    -1.70819  -1.32505  -2.44443
