14
Generated by autodE on: 2022-06-19. E = -270.687346 Ha
C    -1.58813  -1.03397  -0.46890
C    -0.94812   0.14965   0.19260
C    -1.90429   1.08244   0.87178
C     0.38625   0.40751   0.20859
C     1.41599  -0.41073  -0.40711
O     2.61379  -0.14048  -0.36164
H    -0.88408  -1.71168  -0.96496
H    -2.15935  -1.60784   0.28053
H    -2.32376  -0.68460  -1.21317
H    -2.64288   1.46310   0.14518
H    -2.48173   0.53949   1.64001
H    -1.39488   1.93410   1.34310
H     0.75375   1.30190   0.72289
H     1.08133  -1.32692  -0.94336
