28
Generated by autodE on: 2022-06-19. E = -724.752209 Ha
C     4.21724  -0.83864  -0.47649
N     3.92179  -0.19785   0.79406
C     2.81531   0.50370   1.07496
O     2.56829   1.07478   2.14012
C     1.83084   0.62521  -0.01819
N     0.76313   0.17867  -0.30141
C    -0.38828  -0.29735  -0.69563
C    -0.27840  -1.38115  -1.69383
C    -1.50869  -2.14940  -2.09943
O     0.82300  -1.67227  -2.16794
C    -1.59922   0.24454  -0.04236
C    -2.83686   0.34016  -0.70633
C    -3.95059   0.87693  -0.05674
C    -3.85186   1.34027   1.25826
C    -2.62158   1.26960   1.92082
C    -1.50825   0.72667   1.28082
H     3.28834  -1.05895  -1.02023
H     4.73227  -1.79135  -0.29358
H     4.85832  -0.20819  -1.11337
H     4.62143  -0.22516   1.53297
H    -2.04358  -1.60364  -2.89405
H    -1.19145  -3.11886  -2.50657
H    -2.20746  -2.29660  -1.26474
H    -2.93118   0.02228  -1.74357
H    -4.90123   0.94357  -0.59111
H    -4.72584   1.75951   1.76188
H    -2.52881   1.63346   2.94684
H    -0.55349   0.67365   1.80943
