42
Generated by autodE on: 2022-06-19. E = -995.444149 Ha. Imaginary frequency = -287.1 cm-1
C    -4.04406   2.76917  -1.42883
N    -2.84601   1.99774  -1.14308
C    -2.72158   1.29630  -0.01056
O    -3.55837   1.23811   0.89194
C    -1.47227   0.49362   0.11116
N    -0.38760   0.75260   0.58834
C     0.84223   0.34989   0.83610
C     1.10353  -0.10045   2.23240
C    -0.03754   0.01090   3.21106
O     2.19280  -0.55342   2.56474
C     1.86193   0.56387  -0.20408
C     1.54474   1.34851  -1.33453
C     2.46495   1.51644  -2.36592
C     3.72373   0.90762  -2.29484
C     4.04871   0.13298  -1.17860
C     3.13459  -0.03947  -0.13706
C    -0.17013  -1.90548  -0.43512
C     0.52043  -2.55339   0.63761
O     1.69336  -2.95715   0.57712
C    -1.53006  -1.56197  -0.46824
C    -2.49133  -2.04897   0.59722
C    -2.15551  -1.36111  -1.83403
H    -4.17130   3.58713  -0.70313
H    -4.93854   2.12882  -1.38814
H    -3.95406   3.19599  -2.43438
H    -2.10294   1.94492  -1.83515
H    -0.29884   1.06992   3.36790
H    -0.94062  -0.48985   2.83180
H     0.26562  -0.43965   4.16411
H     0.57100   1.83709  -1.40148
H     2.19986   2.13091  -3.22941
H     4.44584   1.04030  -3.10366
H     5.02700  -0.34926  -1.11400
H     3.39207  -0.65313   0.72033
H     0.42925  -1.71803  -1.33155
H    -0.05905  -2.71314   1.57494
H    -2.79534  -3.08371   0.36235
H    -2.05337  -2.04350   1.60327
H    -3.40220  -1.43456   0.61419
H    -2.38253  -2.34994  -2.26909
H    -3.10414  -0.80926  -1.77491
H    -1.47576  -0.83597  -2.52095
