34
Generated by autodE on: 2022-06-18. E = -907.918102 Ha
C    -3.01852  -0.63578  -0.73026
N    -1.99003   0.24923  -0.21002
C    -2.30389   1.20852   0.74148
C    -1.38494   1.93130   1.41013
C     0.09019   1.68994   1.25862
C     0.43324   0.92593  -0.04785
C     0.59138   1.91134  -1.21440
N    -0.45959   2.70829  -1.45730
O     1.63217   1.96437  -1.87546
C    -0.63689  -0.16097  -0.35175
C    -0.16783  -1.38041   0.60381
C    -0.24785  -2.64814  -0.14755
N    -0.27997  -3.63725  -0.75220
C    -1.04015  -1.49567   1.79054
N    -1.71501  -1.57826   2.72873
N     1.18710  -1.02534   1.00441
C     1.70510   0.04610   0.14458
C     2.90633   0.73759   0.78947
C     2.15034  -0.55099  -1.14603
N     2.51409  -1.15830  -2.06634
H    -3.17724  -1.52487  -0.09197
H    -3.96954  -0.09066  -0.80339
H    -2.73578  -0.98071  -1.73613
H    -3.37437   1.37780   0.87566
H    -1.72047   2.70065   2.10677
H     0.46165   1.10944   2.11774
H     0.64581   2.64003   1.27342
H    -0.37374   3.41541  -2.18174
H    -1.26856   2.72572  -0.84232
H    -0.49035  -0.52538  -1.37813
H     1.81595  -1.82111   1.09994
H     2.63083   1.14028   1.77153
H     3.26149   1.55037   0.14340
H     3.72114   0.01174   0.92574
