34
Generated by autodE on: 2022-06-18. E = -907.874153 Ha. Imaginary frequency = -266.0 cm-1
C    -3.05346  -0.95672  -0.50643
N    -2.15246   0.12067  -0.10544
C    -2.55891   0.99959   0.91630
C    -1.69241   1.84827   1.48381
C    -0.22724   1.81561   1.15477
C     0.03837   1.18391  -0.20742
C     0.55723   1.99638  -1.35999
N     1.20567   3.14398  -1.06839
O     0.39587   1.62870  -2.53279
C    -0.93155   0.21001  -0.62815
C     0.21992  -1.75319   0.95254
C     0.17698  -2.68555  -0.09849
N     0.08694  -3.45756  -0.97596
C    -0.76926  -1.80408   1.94673
N    -1.61331  -1.81873   2.75944
N     1.31107  -0.88285   1.15331
C     1.78288  -0.02397   0.20674
C     2.87838   0.90986   0.65940
C     1.99005  -0.56421  -1.11955
N     2.20549  -0.94086  -2.19666
H    -3.06228  -1.74489   0.26075
H    -4.07090  -0.56040  -0.62570
H    -2.71087  -1.38403  -1.45646
H    -3.61759   0.94675   1.16987
H    -2.04966   2.54870   2.24126
H     0.28310   1.23285   1.94897
H     0.19352   2.82677   1.22951
H     1.58034   3.68974  -1.83776
H     1.43667   3.42105  -0.12289
H    -0.76278  -0.36736  -1.53802
H     1.45573  -0.58180   2.11452
H     2.58371   1.41461   1.59079
H     3.09559   1.65769  -0.11102
H     3.79720   0.33273   0.84940
