30
Generated by autodE on: 2022-10-06. E = -987.808249 Ha
C    -2.60814   2.93197   0.84880
C    -2.75342   1.46331   0.53860
O    -3.85708   0.91051   0.51147
C    -1.55277   0.68337   0.26345
N    -0.36863   1.22278   0.23812
N     0.54029   0.29565  -0.04584
C     1.90263   0.58500  -0.08288
C     2.82850  -0.44418  -0.34490
C     4.19379  -0.15586  -0.39462
C     4.66128   1.14522  -0.19006
C     3.73759   2.16589   0.06855
C     2.37146   1.89785   0.12330
C    -0.02753  -1.06353  -0.16159
C     0.45778  -1.98696   0.98776
O     0.66902  -3.18637   0.68041
O     0.55956  -1.45959   2.12112
C    -1.55195  -0.79159  -0.05624
C    -2.30548  -1.07816  -1.38584
O    -3.20679  -1.94978  -1.36116
O    -1.92882  -0.40785  -2.38294
H    -3.59982   3.36686   1.02939
H    -2.12023   3.45466   0.01169
H    -1.97117   3.07790   1.73489
H     2.49029  -1.46792  -0.50250
H     4.89841  -0.96636  -0.59643
H     5.73061   1.36290  -0.23049
H     4.08489   3.18934   0.23109
H     1.65677   2.69454   0.32460
H     0.24571  -1.49716  -1.13294
H    -2.01868  -1.37674   0.74795
