20
Generated by autodE on: 2022-10-06. E = -532.657956 Ha
C     4.52888  -0.05276  -0.06606
C     3.20470   0.16257  -0.73895
O     3.06620   0.50787  -1.90920
C     2.03785  -0.05537   0.07304
N     1.02834  -0.21435   0.65804
N     0.00876  -0.40212   1.34421
C    -1.23264  -0.19094   0.71067
C    -2.38256  -0.40773   1.48916
C    -3.64745  -0.21927   0.93400
C    -3.78219   0.18618  -0.39924
C    -2.63653   0.40217  -1.17386
C    -1.36507   0.21679  -0.63001
H     4.58374  -1.07338   0.34565
H     5.33642   0.10640  -0.79303
H     4.63762   0.64905   0.77705
H    -2.26335  -0.72357   2.52738
H    -4.53560  -0.39053   1.54685
H    -4.77401   0.33310  -0.83222
H    -2.73223   0.71896  -2.21525
H    -0.47781   0.38867  -1.24334
