10
Generated by autodE on: 2022-10-06. E = -455.051698 Ha
O    -2.25300   1.20059  -0.10651
C    -1.96834  -0.02813  -0.14115
O    -2.79816  -0.97647  -0.22569
C    -0.50930  -0.42983  -0.07026
C     0.50931   0.42982   0.07025
C     1.96833   0.02813   0.14116
O     2.25301  -1.20059   0.10642
O     2.79815   0.97647   0.22578
H    -0.29762  -1.50270  -0.13232
H     0.29763   1.50270   0.13232
