30
Generated by autodE on: 2022-10-06. E = -987.707030 Ha. Imaginary frequency = -314.7 cm-1
C    -2.73157   2.89052   0.54066
C    -2.59487   1.46569   0.99554
O    -3.48601   0.83633   1.55081
C    -1.34563   0.80863   0.63502
N    -0.14926   0.80251   0.82388
N     0.86428   0.06121   0.78780
C     2.06790   0.56363   0.28399
C     3.12342  -0.35971   0.16131
C     4.35026   0.05148  -0.35602
C     4.54504   1.38282  -0.74519
C     3.49528   2.30095  -0.61975
C     2.25887   1.90084  -0.11297
C    -0.44004  -1.74317  -0.39282
C    -0.04938  -2.68248   0.72177
O     1.04473  -3.30337   0.57871
O    -0.82773  -2.78841   1.70896
C    -1.65747  -1.12786  -0.47851
C    -2.10764  -0.35443  -1.70753
O    -3.30554   0.04910  -1.71013
O    -1.26102  -0.14882  -2.61751
H    -3.56101   3.37255   1.07578
H    -2.96236   2.86566  -0.53861
H    -1.79492   3.45141   0.67331
H     2.94378  -1.39582   0.45374
H     5.16253  -0.67249  -0.45584
H     5.50990   1.70355  -1.14402
H     3.64058   3.34122  -0.92135
H     1.44010   2.61647  -0.01391
H     0.26109  -1.64628  -1.22540
H    -2.42108  -1.36930   0.26810
