47
Generated by autodE on: 2022-06-24. E = -1214.831362 Ha. Imaginary frequency = -355.6 cm-1
C    -0.05494   5.04611  -0.98362
N    -0.45821   3.65456  -0.87888
C     0.18848   2.79682  -0.08334
O     1.16848   3.06309   0.61408
C    -0.30680   1.39235  -0.11069
N    -0.84909   0.67150   0.68697
C    -1.36234  -0.56346   0.89193
C    -0.56940  -1.41531   1.78671
O     0.55457  -1.05221   2.19985
N    -1.09425  -2.61710   2.11891
C    -0.27744  -3.64506   2.72484
C    -2.66752  -0.90541   0.33204
O    -3.15958  -2.05506   0.45050
N    -3.35673   0.06674  -0.32088
C    -4.55942  -0.24235  -1.06703
C    -0.20638  -0.82610  -1.88226
C     0.18891   0.49726  -1.99531
C     1.68320   0.76560  -1.96691
C     2.25798  -0.09573  -0.86405
C     3.26320   0.46345   0.06211
N     3.24841  -0.04668   1.31969
O     4.05659   1.35040  -0.29238
C     1.76957  -1.35129  -0.70907
N     0.66411  -1.78838  -1.41820
C     0.14797  -3.13630  -1.20471
H    -0.25154   5.59169  -0.04721
H    -0.62206   5.51670  -1.79503
H     1.02008   5.11841  -1.20567
H    -1.25215   3.31698  -1.41694
H    -1.95935  -2.85610   1.62721
H    -0.91453  -4.49731   2.99457
H     0.21309  -3.27287   3.63612
H     0.51259  -4.00253   2.03934
H    -2.90697   0.95673  -0.49854
H    -4.99827   0.69392  -1.43440
H    -5.29783  -0.74807  -0.42768
H    -4.35659  -0.89845  -1.93170
H    -1.19619  -1.17828  -2.17323
H    -0.46611   1.17077  -2.55373
H     1.91006   1.82537  -1.79013
H     2.13143   0.51683  -2.94900
H     2.39215  -0.47855   1.67320
H     3.88725   0.36420   1.99409
H     2.18270  -2.06686   0.00184
H     0.95181  -3.78029  -0.82971
H    -0.22272  -3.55065  -2.15265
H    -0.67992  -3.12053  -0.48038
