44
Generated by autodE on: 2022-06-23. E = -1179.349888 Ha
C     4.61525  -0.67959  -0.20862
N     3.26517  -0.34917   0.20393
C     2.37602   0.15965  -0.65610
O     2.63827   0.42501  -1.83297
C     0.97285   0.36464  -0.08354
C     0.87667   1.15094   1.25195
O     1.69762   1.40721   2.09164
O    -0.39511   1.60790   1.30108
C    -1.02882   1.15203   0.04506
C    -2.23848   2.03884  -0.24151
C    -2.88860   1.88915  -1.58143
O    -2.63526   2.79797   0.62031
C    -1.29487  -0.37212   0.32041
N    -2.39693  -0.99475  -0.36798
C    -3.67303  -0.90133   0.32941
C    -2.19118  -2.09434  -1.18510
C    -0.98825  -2.50925  -1.62371
C     0.25369  -1.74746  -1.28776
C     0.13411  -0.96297   0.04679
C     0.53709  -1.85425   1.22296
N    -0.14996  -3.00055   1.32799
O     1.41639  -1.52921   2.03031
N     0.04469   1.16329  -0.91671
C     0.52773   2.49779  -1.29885
H     4.62604  -1.50991  -0.93420
H     5.19410  -0.97408   0.67523
H     5.10010   0.18824  -0.67967
H     2.91507  -0.65443   1.11367
H    -3.04775   0.82520  -1.80935
H    -2.22398   2.28476  -2.36603
H    -3.83597   2.44257  -1.59341
H    -1.50116  -0.42463   1.39984
H    -3.87812   0.13830   0.62186
H    -4.48254  -1.23085  -0.33557
H    -3.68827  -1.52094   1.24574
H    -3.10836  -2.62075  -1.45981
H    -0.92679  -3.37423  -2.28507
H     0.47836  -1.02420  -2.08535
H     1.12648  -2.41535  -1.22610
H    -0.81391  -3.28671   0.61104
H     0.09041  -3.64923   2.07228
H     0.86253   3.10709  -0.44031
H     1.36241   2.38161  -1.99615
H    -0.27547   3.04111  -1.81190
