20
Generated by autodE on: 2022-06-23. E = -457.715330 Ha
C    -3.11902  -0.45629   0.39476
N    -1.81856   0.14727   0.15499
C    -1.69674   1.54233   0.14441
C    -0.51465   2.16581   0.01782
C     0.79494   1.42987  -0.12284
C     0.56840  -0.07229  -0.06644
C     1.69091  -1.01966  -0.16150
N     2.92542  -0.47069  -0.28590
O     1.54976  -2.25933  -0.13355
C    -0.68158  -0.59882   0.06749
H    -3.05096  -1.53988   0.23676
H    -3.86793  -0.04825  -0.30125
H    -3.46738  -0.27228   1.42537
H    -2.63777   2.08625   0.24424
H    -0.50176   3.25814   0.01205
H     1.29534   1.71919  -1.07013
H     1.49938   1.75459   0.67008
H     3.72740  -1.08833  -0.34651
H     3.08263   0.52884  -0.29898
H    -0.81562  -1.68104   0.10587
