24
Generated by autodE on: 2022-06-23. E = -721.631887 Ha
C     4.37717   0.10310  -0.54237
N     2.96218   0.40804  -0.52398
C     2.06451  -0.46180  -0.01380
O     2.40590  -1.55711   0.46307
C     0.67117   0.00780  -0.07832
C     0.22975   1.24879  -0.61837
O     0.79060   2.20335  -1.13510
O    -1.17059   1.23622  -0.45423
C    -1.52944   0.08620   0.13228
C    -2.93841  -0.20583   0.42787
C    -3.92238   0.85883   0.04057
O    -3.25449  -1.26336   0.96023
N    -0.45370  -0.66053   0.36581
C    -0.48625  -1.98783   0.99789
H     4.58615  -0.80736  -1.12709
H     4.76835  -0.05583   0.47553
H     4.91326   0.94456  -0.99777
H     2.62316   1.29008  -0.90409
H    -3.69018   1.79870   0.56708
H    -3.85371   1.06756  -1.03906
H    -4.93511   0.52466   0.29719
H    -1.10481  -2.65760   0.38960
H    -0.92841  -1.89640   1.99651
H     0.54221  -2.34745   1.05549
