22
Generated by autodE on: 2022-07-26. E = -571.067061 Ha
C     2.14542   2.69599   1.09971
C     1.34390   1.43978   0.91528
O     0.84622   0.83500   1.85945
C     1.22864   0.90373  -0.46366
C     2.15545   1.36915  -1.53903
N     0.37431  -0.05282  -0.75632
C    -0.69226  -0.68041  -0.16793
C    -1.39179  -0.22051   0.96305
N    -2.08675   0.09837   1.84702
C    -1.20355  -1.78746  -0.96920
C    -2.42192  -2.52141  -0.48298
O    -0.63333  -2.08687  -2.02819
H     1.76518   3.49788   0.44705
H     2.09620   3.00785   2.15056
H     3.19673   2.52358   0.81766
H     2.02009   0.78037  -2.45689
H     3.20552   1.29309  -1.21638
H     1.96608   2.42904  -1.77628
H     0.49732  -0.48611  -1.68973
H    -2.28418  -2.86490   0.55404
H    -3.29505  -1.84881  -0.48762
H    -2.61954  -3.37940  -1.13770
