22
Generated by autodE on: 2022-05-29. E = -571.076101 Ha
C    -3.80547  -0.68954  -0.25250
C    -2.38346  -0.54110  -0.70000
O    -2.04201  -0.70007  -1.87042
C    -1.34943  -0.18394   0.31457
C    -1.61583   0.03069   1.76097
N    -0.15190  -0.07140  -0.20959
C     1.09046   0.23374   0.25323
C     1.37661   0.54857   1.59735
N     1.69596   0.82107   2.68772
C     2.13047   0.21819  -0.77279
C     3.53809   0.54275  -0.35679
O     1.83120  -0.05766  -1.94048
H    -4.43585  -0.94150  -1.11403
H    -3.88478  -1.47915   0.51240
H    -4.16059   0.24498   0.21146
H    -1.34953   1.05799   2.05907
H    -2.67163  -0.13342   1.99916
H    -1.01174  -0.65713   2.37449
H    -0.12893  -0.25834  -1.23193
H     3.88274  -0.16354   0.41541
H     3.58522   1.55133   0.08422
H     4.20169   0.48976  -1.22887
