13
Generated by autodE on: 2022-05-29. E = -642.534031 Ha
C    -4.17391   0.07789   0.24989
O    -2.75112   0.13559   0.47048
C    -1.97989  -0.15363  -0.56942
O    -2.36906  -0.45892  -1.67568
C    -0.56685  -0.06135  -0.22608
C     0.61925  -0.00155  -0.00223
C     2.05691   0.07518   0.28603
F     2.39224   1.29189   0.73626
F     2.40717  -0.81971   1.21999
F     2.78921  -0.17048  -0.80903
H    -4.63389   0.33855   1.20920
H    -4.46527   0.79920  -0.52649
H    -4.46781  -0.93602  -0.05621
