23
Generated by autodE on: 2022-06-17. E = -517.892647 Ha
C     4.81112  -0.06294  -0.12069
C     3.33543  -0.34295  -0.28281
O     2.95577  -1.34463  -0.94925
C     2.41660   0.54136   0.32713
N     1.09494   0.24793   0.15279
C     0.01663   0.86105   0.57995
C    -1.33439   0.42417   0.30723
C    -1.64852  -0.72422  -0.45621
C    -2.97579  -1.08185  -0.67788
C    -4.01968  -0.31096  -0.14878
C    -3.72253   0.82719   0.60868
C    -2.39670   1.19196   0.83502
H     5.29757  -0.93121   0.35414
H     5.27150   0.05676  -1.11556
H     5.01280   0.83551   0.47940
H     2.68313   1.41977   0.91164
H     0.99163  -0.60589  -0.41651
H     0.17245   1.76129   1.17910
H    -0.85720  -1.34648  -0.88073
H    -3.20083  -1.97210  -1.26974
H    -5.05839  -0.59791  -0.32700
H    -4.52953   1.43429   1.02544
H    -2.16587   2.08147   1.42620
