18
Generated by autodE on: 2022-06-17. E = -235.968070 Ha
C    -1.35177   1.43183   0.09065
C    -0.66933   0.09189  -0.04555
C    -1.66214  -1.01799  -0.29491
C     0.66933  -0.09189   0.04541
C     1.35179  -1.43182  -0.09058
C     1.66211   1.01799   0.29491
H    -2.09025   1.40435   0.91200
H    -1.92562   1.66495  -0.82431
H    -0.67023   2.26948   0.28090
H    -1.21151  -2.01090  -0.41079
H    -2.39174  -1.07317   0.53302
H    -2.25254  -0.80707  -1.20465
H     0.67033  -2.26948  -0.28108
H     2.09064  -1.40435  -0.91159
H     1.92527  -1.66498   0.82462
H     2.39264   1.07229  -0.53226
H     2.25151   0.80773   1.20546
H     1.21157   2.01110   0.40945
