41
Generated by autodE on: 2022-06-17. E = -753.835951 Ha. Imaginary frequency = -424.3 cm-1
C    -3.59230   1.92772  -0.20382
C    -2.57299   1.48009   0.81342
O    -2.87944   1.39802   2.02048
C    -1.26902   1.10194   0.34416
N    -0.32714   0.83790   1.29908
C     0.77809   0.07540   1.07708
C     1.82062   0.37936   0.09319
C     3.05265  -0.29619   0.24004
C     4.09824  -0.10513  -0.66045
C     3.94931   0.78084  -1.73369
C     2.74529   1.47598  -1.88154
C     1.69268   1.28026  -0.98456
C    -0.26810  -1.69473   0.17279
C     0.71943  -2.19715  -0.85889
C    -0.28110  -2.51744   1.44773
C    -1.50154  -1.16045  -0.29110
C    -1.70497  -0.93860  -1.77032
C    -2.75588  -1.46988   0.49057
H    -3.77737   3.00723  -0.06933
H    -4.54653   1.40888  -0.02410
H    -3.26379   1.75803  -1.23781
H    -0.96124   1.35572  -0.66290
H    -0.76910   0.69364   2.20894
H     1.17261  -0.36317   1.99600
H     3.18046  -0.98215   1.08099
H     5.03779  -0.64549  -0.52124
H     4.76654   0.93411  -2.44219
H     2.62039   2.18324  -2.70519
H     0.77848   1.85276  -1.12735
H     0.93219  -1.46651  -1.65007
H     0.32067  -3.10466  -1.35132
H     1.67774  -2.47292  -0.39705
H    -0.78410  -2.00080   2.27819
H    -0.81310  -3.47621   1.29546
H     0.74194  -2.76076   1.77265
H    -2.60355  -0.33494  -1.96451
H    -0.84970  -0.43817  -2.24577
H    -1.84233  -1.90588  -2.29259
H    -2.68838  -1.16579   1.54566
H    -2.95453  -2.55898   0.48668
H    -3.63552  -0.97398   0.05630
