44
Generated by autodE on: 2022-06-02. E = -1282.465317 Ha
C     3.90074   2.38173  -0.92804
N     2.93468   1.36395  -0.55429
C     1.75144   1.68408  -0.03570
O     1.38340   2.84843   0.16905
C     0.84549   0.51541   0.31279
O     1.46386  -0.73742  -0.01610
C     0.48148  -1.56974   0.51410
C     0.83096  -3.05691   0.52376
C     1.89009  -3.50131  -0.42864
O     0.21878  -3.77761   1.28243
O     0.32962  -1.08077   1.87346
C     0.59655   0.25399   1.81457
O     0.58947   0.98664   2.76000
C    -0.81060  -1.15254  -0.24767
F    -1.86797  -1.59401   0.50841
C    -0.94171  -1.59127  -1.71352
C    -2.30000  -1.04132  -2.22011
C    -2.01726   0.47625  -2.43520
C    -0.57706   0.63769  -1.90165
C     0.04705  -0.66554  -2.44557
C    -0.59186   0.42146  -0.35118
C    -1.67531   1.28367   0.32841
O    -2.82669   0.86658   0.49002
N    -1.31112   2.52935   0.65734
C    -2.24637   3.43783   1.28999
H     4.76461   1.89240  -1.39196
H     3.45962   3.09062  -1.64440
H     4.23810   2.94843  -0.04649
H     3.16602   0.38171  -0.66772
H     2.84702  -3.03533  -0.13968
H     1.97808  -4.59445  -0.40848
H     1.66099  -3.14559  -1.44585
H    -0.81091  -2.67283  -1.84647
H    -2.56997  -1.54154  -3.16011
H    -3.10687  -1.22025  -1.49878
H    -2.01932   0.73148  -3.50434
H    -2.75023   1.12244  -1.93903
H    -0.09181   1.58090  -2.18287
H     1.10026  -0.81807  -2.19879
H    -0.07443  -0.73661  -3.53595
H    -0.33196   2.81702   0.53053
H    -1.74890   4.40289   1.44795
H    -2.58663   3.05045   2.26431
H    -3.13675   3.59526   0.66115
