24
Generated by autodE on: 2022-06-02. E = -580.266507 Ha
C     3.74565   0.10944   0.41325
N     2.39401   0.03067  -0.10098
C     1.34208   0.51636   0.59541
O     1.48829   1.06985   1.69869
C     0.00475   0.36753  -0.00566
C    -0.42165  -0.39265  -1.03358
F     0.32765  -1.16795  -1.82558
C    -1.92345  -0.42401  -1.07745
C    -2.35559  -1.25972   0.17754
C    -1.91790  -0.35797   1.36838
C    -1.27648   0.87230   0.65307
C    -2.20525   1.00880  -0.57334
H     4.04281   1.15384   0.59992
H     3.85232  -0.44299   1.36131
H     4.43176  -0.32408  -0.32465
H     2.22961  -0.43641  -0.98540
H    -2.36276  -0.74635  -2.02901
H    -1.88127  -2.25111   0.18572
H    -3.44535  -1.40563   0.15936
H    -1.19936  -0.84869   2.03985
H    -2.78349  -0.04232   1.96953
H    -1.14132   1.75479   1.28900
H    -3.26059   1.16623  -0.30492
H    -1.87648   1.78496  -1.27941
