20
Generated by autodE on: 2022-06-02. E = -702.138850 Ha
C    -4.13096   1.04114   0.97083
N    -2.93366   0.41842   0.44710
C    -1.68610   0.86272   0.72099
O    -1.42549   1.83536   1.44022
C    -0.61990   0.08630   0.08688
O     0.68486   0.46291   0.31527
C     1.46903  -0.34149  -0.32562
C     2.95879  -0.22375  -0.29363
C     3.51979   0.88175   0.53896
O     3.59948  -1.03015  -0.93896
O     0.82633  -1.25018  -0.98500
C    -0.62528  -1.03370  -0.75721
O    -1.43978  -1.76296  -1.27132
H    -4.73087   0.31818   1.54553
H    -4.75830   1.44300   0.15908
H    -3.84248   1.86546   1.63310
H    -3.03442  -0.38882  -0.16312
H     4.61404   0.87060   0.46851
H     3.20382   0.75664   1.58766
H     3.12342   1.85078   0.19499
