44
Generated by autodE on: 2022-06-02. E = -1282.404049 Ha. Imaginary frequency = -323.0 cm-1
C     1.98622   4.03845  -0.08504
N     1.81414   2.73594   0.52808
C     1.94254   1.60390  -0.19262
O     2.38937   1.55603  -1.34396
C     1.42505   0.40202   0.47631
O     1.63896  -0.81589  -0.06946
C     0.86550  -1.66642   0.60612
C     0.97795  -3.12902   0.35225
C     0.33329  -4.02318   1.35999
O     1.52879  -3.49718  -0.67030
O     0.60756  -1.16794   1.83389
C     0.91490   0.20821   1.80467
O     0.72101   0.94382   2.74417
C    -1.11236  -1.15739  -0.26779
F    -1.85954  -1.63834   0.74340
C    -1.21260  -1.82516  -1.62672
C    -2.53996  -1.27910  -2.24189
C    -2.20892   0.21614  -2.51729
C    -0.74279   0.35954  -1.97854
C    -0.17071  -1.00797  -2.40829
C    -0.90865   0.21818  -0.47007
C    -1.42906   1.29788   0.40883
O    -1.93772   1.06813   1.51375
N    -1.29259   2.55477  -0.07079
C    -1.56460   3.70819   0.76423
H     1.81254   4.81041   0.67363
H     1.27436   4.18486  -0.91472
H     3.00454   4.15403  -0.48483
H     1.35515   2.67908   1.43541
H     0.81960  -3.88882   2.33988
H    -0.72354  -3.73746   1.48426
H     0.41279  -5.06711   1.03358
H    -1.11248  -2.91649  -1.61725
H    -3.38854  -1.41220  -1.55641
H    -2.76346  -1.82344  -3.17018
H    -2.21431   0.44013  -3.59388
H    -2.90313   0.90952  -2.02430
H    -0.20435   1.24913  -2.32545
H    -0.26259  -1.15892  -3.49290
H     0.86557  -1.18261  -2.11021
H    -0.76202   2.69703  -0.92356
H    -2.61619   3.72213   1.08803
H    -0.93115   3.70512   1.66697
H    -1.35995   4.61866   0.18841
