29
Generated by autodE on: 2022-12-31. E = -800.720600 Ha
N    -0.05320   4.17656   2.17302
C     0.25650   3.24340   1.53547
C     0.64890   2.13107   0.78139
C     1.89944   2.05455   0.16230
N     2.95452   2.04225  -0.34822
O    -0.35747   1.20664   0.58442
C    -0.33843   0.01668   0.07479
C     0.91216  -0.70811  -0.16591
C     1.14969  -1.32337  -1.40901
C     2.33117  -2.03277  -1.61793
C     3.26562  -2.15866  -0.58472
C     3.02425  -1.56474   0.65930
C     1.86037  -0.82997   0.86931
C    -1.64942  -0.53917  -0.20617
C    -2.78356   0.30491  -0.25301
C    -4.04081  -0.22893  -0.50954
C    -4.19072  -1.60585  -0.72409
C    -3.07586  -2.44996  -0.67731
C    -1.81165  -1.92655  -0.41982
H     0.41701  -1.22366  -2.21130
H     2.52200  -2.49247  -2.58979
H     4.18672  -2.72221  -0.74931
H     3.74994  -1.67084   1.46814
H     1.67389  -0.36274   1.83808
H    -2.66155   1.37792  -0.10236
H    -4.91099   0.42928  -0.55155
H    -5.18032  -2.02057  -0.92864
H    -3.19417  -3.52368  -0.83575
H    -0.95103  -2.59267  -0.36120
