49
Generated by autodE on: 2022-06-23. E = -1162.653582 Ha
C     3.26477   1.68004   2.30715
N     2.45062   1.42476   1.13947
C     2.72421   0.43257   0.28146
O     3.76947  -0.22859   0.32980
C     1.67463   0.18896  -0.82528
C     2.39814   0.23499  -2.17613
N     0.59019   1.17847  -0.73873
C    -0.72900   0.54800  -0.77675
C    -1.09781   0.34346  -2.20641
N    -1.27142   0.36517  -3.35513
C    -1.82068   1.40905  -0.12785
C    -3.16678   1.02611  -0.23204
C    -4.16479   1.77701   0.39179
C    -3.83224   2.92361   1.12094
C    -2.49477   3.31406   1.21710
C    -1.49301   2.56179   0.59469
C    -0.44907  -0.79237  -0.01771
C    -1.47662  -1.89251  -0.30971
N    -1.50134  -2.91363   0.55895
O    -2.21286  -1.85754  -1.30122
C    -0.31510  -0.51625   1.50085
C     0.66509  -1.44172   2.16577
C     1.52915  -2.20723   1.46196
N     1.58850  -2.23490   0.08700
C     2.58927  -3.03741  -0.59093
C     0.92445  -1.19123  -0.63992
H     2.94410   2.61945   2.77472
H     4.32567   1.76457   2.02914
H     3.17083   0.86554   3.04630
H     1.53732   1.85797   1.03116
H     1.68199   0.06522  -2.99288
H     3.17812  -0.53623  -2.22507
H     2.87256   1.21805  -2.32350
H     0.67876   1.93715  -1.41144
H    -3.43202   0.13345  -0.79924
H    -5.20808   1.46439   0.30594
H    -4.61376   3.51153   1.60795
H    -2.22356   4.21097   1.77894
H    -0.45237   2.87397   0.67445
H    -0.86671  -2.95462   1.35322
H    -2.13257  -3.68896   0.38110
H    -1.31026  -0.60295   1.96482
H    -0.02144   0.53116   1.65608
H     0.67432  -1.49786   3.25532
H     2.21742  -2.88945   1.96686
H     2.72108  -3.99138  -0.05967
H     3.56756  -2.53241  -0.65231
H     2.24869  -3.26176  -1.61282
H     0.73402  -1.56916  -1.65475
