20
Generated by autodE on: 2022-06-23. E = -457.715339 Ha
C    -3.06618  -0.80368   0.21071
N    -1.83006  -0.05843   0.03711
C    -1.87194   1.23030  -0.51016
C    -0.76429   1.93302  -0.79537
C     0.62994   1.40639  -0.56033
C     0.57620   0.00011   0.01373
C     1.80628  -0.74270   0.33114
N     2.97305  -0.10215   0.06795
O     1.81078  -1.89302   0.81508
C    -0.61038  -0.62312   0.26101
H    -2.85968  -1.72463   0.77051
H    -3.79921  -0.20788   0.77592
H    -3.51535  -1.07517  -0.75987
H    -2.87558   1.62307  -0.68293
H    -0.87855   2.93624  -1.21236
H     1.20897   1.42643  -1.50637
H     1.18540   2.08830   0.11597
H     3.00960   0.82720  -0.33073
H     3.84485  -0.58064   0.26601
H    -0.61959  -1.63515   0.66894
