29
Generated by autodE on: 2022-07-27. E = -704.905886 Ha
C     4.97697  -1.24319   0.96886
N     3.86580  -1.26922   0.03895
C     2.67781  -0.72260   0.35145
O     2.47428  -0.16498   1.45088
C     1.58860  -0.79852  -0.64922
C     1.65112  -1.48830  -1.96501
N     0.49550  -0.19300  -0.20977
C    -0.73212   0.06980  -0.72571
C    -0.99382  -0.09880  -2.10227
N    -1.28185  -0.17797  -3.23370
C    -1.78373   0.59724   0.14986
C    -2.95716   1.15830  -0.40105
C    -3.95933   1.67352   0.41932
C    -3.82226   1.65044   1.81174
C    -2.66900   1.09083   2.37124
C    -1.66690   0.56159   1.55758
H     4.73275  -1.78102   1.89885
H     5.84274  -1.72492   0.49921
H     5.24751  -0.20980   1.23834
H     4.00022  -1.69223  -0.87170
H     1.70292  -0.77659  -2.80621
H     2.52230  -2.15184  -2.03228
H     0.75145  -2.10677  -2.11360
H     0.65869   0.15352   0.75050
H    -3.07835   1.19704  -1.48539
H    -4.85487   2.10337  -0.03603
H    -4.60778   2.05616   2.45293
H    -2.55066   1.04982   3.45675
H    -0.80268   0.09681   2.03723
