29
Generated by autodE on: 2022-06-23. E = -704.905819 Ha
C    -4.94040  -1.39221  -0.93516
N    -4.03224  -0.44894  -0.31402
C    -2.69901  -0.59646  -0.40743
O    -2.18122  -1.54696  -1.03186
C    -1.83414   0.40456   0.25880
C    -2.29273   1.54348   1.09764
N    -0.55347   0.14436   0.04237
C     0.62013   0.74426   0.36430
C     0.64829   2.04826   0.90385
N     0.76305   3.13459   1.32322
C     1.88238   0.04841   0.09368
C     1.91817  -1.32343  -0.24266
C     3.12815  -1.96038  -0.51853
C     4.33646  -1.25901  -0.45043
C     4.31637   0.09569  -0.10073
C     3.11055   0.74228   0.16554
H    -4.80255  -2.40653  -0.52807
H    -5.97074  -1.07084  -0.74197
H    -4.78129  -1.44178  -2.02424
H    -4.41883   0.34894   0.17622
H    -3.35094   1.44460   1.36922
H    -2.16368   2.51281   0.58729
H    -1.71390   1.58617   2.03394
H    -0.47187  -0.72462  -0.51183
H     1.00216  -1.91793  -0.27144
H     3.12438  -3.02223  -0.77622
H     5.28205  -1.76367  -0.66008
H     5.25028   0.65973  -0.03924
H     3.11632   1.80265   0.42535
