54
Generated by autodE on: 2022-06-07. E = -1468.447185 Ha
C    -3.36728  -3.52074  -0.39052
N    -2.36653  -2.52085  -0.70015
C    -2.67552  -1.25238  -0.99529
O    -3.83027  -0.82513  -1.11650
C    -1.50107  -0.28889  -1.14174
N    -0.21855  -0.93473  -1.36244
C    -0.03846  -1.48080  -2.70079
C     0.84302  -0.05460  -0.89372
C     1.07977   1.02768  -1.89719
N     1.18969   1.84805  -2.70995
C     2.14466  -0.81986  -0.64522
C     2.07737  -2.13866  -0.17442
C     3.24795  -2.85102   0.09407
C     4.49681  -2.25524  -0.10785
C     4.56738  -0.94359  -0.58475
C     3.39694  -0.22990  -0.85473
C     0.20902   0.63371   0.38156
C     0.83074   1.99399   0.65354
O     0.25608   3.06000   0.61807
O     2.11488   1.85310   0.96470
C     2.87186   3.05009   1.20904
C     0.29615  -0.24442   1.70245
C    -0.18881   0.65109   2.83144
C    -1.51334   0.73123   2.66185
C    -1.81955  -0.12996   1.44545
O    -0.80129  -1.13705   1.53489
C    -1.34522   0.60546   0.13009
C    -2.01464   1.94817  -0.15685
O    -1.97538   2.50263  -1.23533
O    -2.70197   2.41404   0.87956
C    -3.32698   3.69587   0.72001
H    -4.22787  -3.41074  -1.06447
H    -2.93601  -4.52163  -0.52177
H    -3.72884  -3.42602   0.64795
H    -1.38459  -2.70857  -0.51149
H    -1.76349   0.37206  -1.98521
H    -0.08745  -0.70086  -3.48568
H    -0.82582  -2.21824  -2.90306
H     0.93226  -1.99011  -2.76986
H     1.10321  -2.60321  -0.02215
H     3.18232  -3.87791   0.46070
H     5.41225  -2.81366   0.10099
H     5.53759  -0.47054  -0.75221
H     3.46601   0.79331  -1.22678
H     3.89599   2.71875   1.41262
H     2.46125   3.58760   2.07516
H     2.84669   3.69853   0.32219
H     1.24360  -0.77073   1.83601
H     0.45135   1.16830   3.54502
H    -2.24302   1.31607   3.21659
H    -2.82172  -0.56336   1.38485
H    -2.56282   4.46351   0.53159
H    -4.04213   3.67316  -0.11417
H    -3.84593   3.89737   1.66391
