25
Generated by autodE on: 2022-06-07. E = -763.485495 Ha
C     2.47655   2.33484  -1.48744
O     1.71530   1.54007  -0.56290
C     1.47060   0.28350  -0.91773
O     1.89159  -0.24008  -1.93352
C     0.66052  -0.47587   0.05280
C    -0.52493  -0.25269   0.65096
C    -1.48300   0.86297   0.60793
O    -2.51742   0.86357   1.25348
O    -1.12328   1.85015  -0.21286
C    -2.00868   2.97562  -0.29913
C    -0.87654  -1.60016   1.32906
C    -1.20005  -2.59395   0.19178
C    -0.02934  -2.81535  -0.41210
C     0.98683  -1.96018   0.37648
O     0.44165  -2.03782   1.69849
H     3.46195   1.88038  -1.66340
H     1.93848   2.42710  -2.44170
H     2.58814   3.31779  -1.01636
H    -1.53916   3.67344  -1.00170
H    -2.12676   3.44838   0.68662
H    -2.99367   2.66166  -0.67391
H    -1.56272  -1.54972   2.17950
H    -2.19771  -2.95197  -0.05873
H     0.20736  -3.40309  -1.29777
H     2.04263  -2.24489   0.33159
