31
Generated by autodE on: 2022-06-17. E = -859.202932 Ha
C    -3.33411  -0.19942   0.62019
C    -2.22612   0.60539  -0.04996
C    -2.79752   1.61855  -1.02991
C    -1.08717  -0.26221  -0.71186
C    -1.31531  -1.74795  -0.75365
O    -0.56670  -2.57614  -0.28045
C     0.14675   0.21966   0.07668
C     1.50974   0.01657  -0.49810
C     2.37044  -0.96321   0.00975
C     3.63141  -1.14167  -0.56500
C     4.03375  -0.34594  -1.64148
C     3.17062   0.63161  -2.14792
C     1.90824   0.81260  -1.58082
O     0.03127  -0.30063   1.43290
C    -0.96855   0.41706   1.98541
O    -1.41087   0.25707   3.08531
N    -1.41793   1.38078   0.99751
O    -0.16738   1.58724   0.29725
H    -3.94944   0.45751   1.25191
H    -2.95347  -1.02374   1.24032
H    -3.98075  -0.63320  -0.15501
H    -3.55147   2.24734  -0.53390
H    -3.27591   1.08687  -1.86571
H    -2.00390   2.26160  -1.43517
H    -0.96639   0.04925  -1.76163
H    -2.23518  -2.05474  -1.30245
H     2.05300  -1.58649   0.84561
H     4.30203  -1.90680  -0.16766
H     5.02078  -0.48771  -2.08772
H     3.48119   1.25620  -2.98839
H     1.23201   1.57382  -1.97511
