14
Generated by autodE on: 2022-06-17. E = -270.683217 Ha
C    -0.70216   1.35482   0.44023
C    -0.86449  -0.03045  -0.11698
C    -2.26244  -0.45107  -0.44400
C     0.17710  -0.88216  -0.32405
C     1.57699  -0.59784  -0.04710
O     2.03678   0.44112   0.42141
H    -0.25985   1.32114   1.44892
H    -0.00682   1.94895  -0.17303
H    -1.66798   1.87625   0.49459
H    -2.70145   0.24567  -1.17973
H    -2.89643  -0.37824   0.45723
H    -2.31624  -1.47436  -0.84036
H    -0.02609  -1.87535  -0.73510
H     2.27011  -1.43655  -0.30029
