17
Generated by autodE on: 2022-06-17. E = -588.501825 Ha
O     3.69801  -1.00964   0.24009
C     2.75201  -0.29544   0.01668
N     2.61233   0.94626  -0.42313
O     1.20318   1.18455  -0.45847
C     0.56624   0.12682  -0.05770
C    -0.87180   0.06194   0.01074
C    -1.64368   1.17928  -0.36717
C    -3.03055   1.10078  -0.30175
C    -3.64626  -0.07888   0.13635
C    -2.87822  -1.18754   0.51242
C    -1.48958  -1.12478   0.45220
O     1.36779  -0.82935   0.25703
H    -1.15157   2.09146  -0.70740
H    -3.63725   1.96012  -0.59282
H    -4.73599  -0.13419   0.18510
H    -3.36617  -2.10249   0.85303
H    -0.87808  -1.98065   0.74089
