31
Generated by autodE on: 2022-06-17. E = -859.162941 Ha. Imaginary frequency = -480.0 cm-1
C    -3.36455  -0.39383   0.57828
C    -2.38616   0.30435  -0.30664
C    -2.87537   1.51076  -1.03683
C    -1.19852  -0.31823  -0.79682
C    -0.99604  -1.77648  -0.67396
O    -0.28813  -2.40491  -1.44230
C     0.25915   0.38391   0.34810
C     1.53208   0.06573  -0.31295
C     2.25181  -1.07755   0.06270
C     3.44861  -1.38142  -0.58766
C     3.92118  -0.55390  -1.61040
C     3.19600   0.58293  -1.98793
C     1.99883   0.89350  -1.34654
O    -0.01984  -0.17829   1.55218
C    -1.04256   0.62464   2.09983
O    -1.63415   0.29952   3.10534
N    -1.22702   1.69699   1.28827
O    -0.13338   1.67023   0.40273
H    -3.94630   0.33090   1.16350
H    -2.91293  -1.12859   1.25443
H    -4.07460  -0.93237  -0.07668
H    -3.56335   2.11105  -0.42790
H    -3.42884   1.15516  -1.92651
H    -2.04253   2.13075  -1.39675
H    -0.81453   0.08729  -1.73772
H    -1.49360  -2.28532   0.17920
H     1.87655  -1.71961   0.86037
H     4.01284  -2.26913  -0.29466
H     4.85744  -0.79566  -2.11853
H     3.56546   1.22835  -2.78746
H     1.42525   1.77430  -1.64007
