42
Generated by autodE on: 2022-12-31. E = -957.543917 Ha
C    -0.21909  -4.11423   2.45583
N    -0.48897  -2.70212   2.27201
C     0.01037  -2.02055   1.23496
O     0.72544  -2.53347   0.36929
C    -0.42757  -0.53093   1.12368
C    -0.54487   0.14667   2.50173
O    -1.30919  -0.31048   3.36449
N     0.18286   1.25022   2.69796
C     0.11341   2.00029   3.93831
C     0.44422   0.16256   0.18558
C     0.85949   0.66804  -0.83397
C     0.75696   1.05512  -2.25877
O     0.39879   2.42527  -2.25691
C     0.07888   2.99005  -3.52370
O     1.93425   0.83424  -2.99553
C     3.07221   1.55340  -2.54109
C    -0.32315   0.13252  -2.86301
C    -1.68033   0.13684  -2.13350
C    -1.92938  -0.92172  -1.02251
C    -1.85454  -0.47656   0.45063
H     0.85956  -4.30451   2.57583
H    -0.74109  -4.46055   3.35615
H    -0.57094  -4.70159   1.59302
H    -1.04419  -2.17852   2.94968
H     0.77037   1.59106   1.94266
H     0.35449   1.35750   4.79845
H     0.83662   2.82317   3.89434
H    -0.89347   2.41827   4.09602
H     0.11216   4.08118  -3.39746
H    -0.93248   2.70309  -3.85672
H     0.80951   2.69863  -4.29456
H     3.92748   1.21156  -3.13932
H     2.94866   2.64050  -2.67235
H     3.27183   1.34653  -1.47433
H     0.10283  -0.88172  -2.88238
H    -0.45584   0.43661  -3.91211
H    -2.44491  -0.02852  -2.90756
H    -1.87749   1.14781  -1.73913
H    -1.27650  -1.79500  -1.18354
H    -2.95611  -1.29427  -1.16042
H    -2.51467  -1.10371   1.06603
H    -2.21617   0.55964   0.54350
