24
Generated by autodE on: 2022-12-31. E = -816.694998 Ha
C     4.89382   0.53796   0.18673
O     3.45687   0.67510   0.14402
C     2.75923  -0.44703   0.10925
O     3.18203  -1.58273   0.11079
C     1.33824  -0.17646   0.06421
N     0.17692  -0.07086   0.01536
C    -1.14003   0.05439  -0.03875
C    -1.95122  -1.16352  -0.09908
O    -3.16730  -1.19780  -0.15829
O    -1.18113  -2.26723  -0.08388
C    -1.86390  -3.52487  -0.14526
C    -1.71307   1.40205  -0.04029
O    -2.90265   1.66110  -0.07948
O    -0.75352   2.34434   0.00849
C    -1.19538   3.70689   0.01071
H     5.19091  -0.01283   1.08984
H     5.24647   0.00842  -0.70907
H     5.28514   1.56028   0.21099
H    -1.08246  -4.29340  -0.12001
H    -2.44455  -3.60633  -1.07589
H    -2.53852  -3.64284   0.71542
H    -1.82294   3.91038   0.89081
H    -0.28616   4.31833   0.04688
H    -1.76586   3.93151  -0.90245
