66
Generated by autodE on: 2022-12-31. E = -1774.248837 Ha. Imaginary frequency = -336.6 cm-1
C   -15.44347   2.30432 -15.16655
N   -15.57761   3.52181 -15.94198
C   -16.14901   4.61444 -15.42825
O   -16.69105   4.63735 -14.31769
C   -16.18127   5.89253 -16.31477
C   -14.98103   6.01016 -17.28830
O   -14.63849   5.03623 -17.97536
N   -14.39027   7.20923 -17.37348
C   -13.17113   7.43905 -18.12277
C   -17.48767   5.79082 -17.16975
C   -17.87300   7.03151 -17.99373
C   -18.88393   8.02323 -17.37954
C   -18.36152   9.26337 -16.64222
C   -17.94449   9.08653 -15.17267
O   -19.07579   8.59007 -14.48929
C   -18.88612   8.27212 -13.11608
O   -17.49412  10.29769 -14.60793
C   -18.39941  11.38732 -14.54851
C   -16.81882   8.12190 -15.08551
C   -16.27238   7.06341 -15.41879
C   -14.42567   6.87294 -14.18419
C   -13.56846   5.66526 -14.21502
O   -13.61333   4.82452 -13.34655
O   -12.84836   5.63093 -15.31981
C   -12.07113   4.44387 -15.57609
N   -14.42217   7.92521 -13.60287
C   -15.01855   9.09150 -13.44546
C   -14.61537  10.20664 -14.33937
O   -14.81258  11.38411 -14.12384
O   -13.99628   9.74894 -15.43737
C   -13.58612  10.73470 -16.39629
C   -15.76412   9.32723 -12.18784
O   -16.22105  10.39366 -11.82626
O   -15.89256   8.18943 -11.49284
C   -16.61623   8.26272 -10.25724
H   -14.88562   2.49035 -14.23491
H   -16.42904   1.89370 -14.89696
H   -14.90175   1.56123 -15.76444
H   -15.09731   3.63892 -16.83702
H   -14.69582   7.94640 -16.74127
H   -12.95862   6.56011 -18.74203
H   -13.27708   8.31812 -18.77494
H   -12.32579   7.60654 -17.43698
H   -18.30553   5.52685 -16.48214
H   -17.34027   4.93356 -17.84226
H   -18.33150   6.64616 -18.91736
H   -16.96980   7.57171 -18.32134
H   -19.58538   7.48166 -16.72468
H   -19.49435   8.40892 -18.21103
H   -19.16211  10.01860 -16.64089
H   -17.50254   9.70111 -17.17457
H   -19.84986   7.90093 -12.74237
H   -18.12458   7.48458 -12.99120
H   -18.59265   9.15937 -12.53508
H   -17.98505  12.08848 -13.81044
H   -18.49023  11.90604 -15.51764
H   -19.39954  11.06868 -14.21493
H   -11.61437   4.60309 -16.55829
H   -12.73022   3.56566 -15.59388
H   -11.30063   4.32417 -14.80244
H   -14.46587  11.24400 -16.81556
H   -13.05307  10.18823 -17.18132
H   -12.92169  11.47405 -15.92747
H   -16.13978   8.98067  -9.57435
H   -16.58254   7.25362  -9.83108
H   -17.65835   8.56316 -10.43690
