50
Generated by autodE on: 2022-06-10. E = -6239.584575 Ha
C     1.60719  -5.86455   0.28373
N     0.95208  -4.63755  -0.12272
C     1.08437  -3.49811   0.57551
O     1.82039  -3.39985   1.56865
C     0.24624  -2.35636   0.11609
N    -0.96053  -2.61212  -0.38950
N    -1.56465  -1.43818  -0.53597
C    -2.91463  -1.45649  -1.08534
C    -0.77322  -0.38942  -0.10617
C     0.46244  -0.95995   0.26589
C     1.75215  -0.31827   0.75660
C     2.97424  -1.25046   0.45244
C     4.12042  -1.25253   1.42381
O     3.03713  -1.85297  -0.60552
C     2.20031   0.88807  -0.10134
C     1.96073   0.87723  -1.48599
C     2.38493   1.93107  -2.29463
C     3.07945   3.01037  -1.73890
C     3.35719   3.01294  -0.37000
C     2.92946   1.95681   0.44032
C     1.60397  -0.03890   2.27485
C     0.27139   0.56304   2.72978
C    -0.14275   1.92774   2.17296
C    -0.45401   2.07971   0.67363
C    -1.29814   1.01147  -0.01084
Br   -1.63616   1.70668  -1.88007
Br   -3.06607   1.00787   0.95877
H     1.17739  -6.26935   1.21534
H     1.49180  -6.61097  -0.51146
H     2.67934  -5.68832   0.45405
H     0.27387  -4.65764  -0.87735
H    -2.95017  -2.25875  -1.83227
H    -3.65455  -1.65815  -0.29926
H    -3.14667  -0.50580  -1.57187
H     3.81800  -1.73240   2.36484
H     4.96175  -1.80378   0.98493
H     4.43036  -0.22482   1.66359
H     1.42119   0.04247  -1.93314
H     2.16596   1.91073  -3.36465
H     3.40710   3.83971  -2.37002
H     3.90776   3.84369   0.07753
H     3.15156   1.99143   1.50609
H     2.43503   0.58174   2.63346
H     1.70363  -1.00981   2.77960
H     0.33230   0.67037   3.82509
H    -0.53785  -0.16374   2.55692
H     0.64418   2.66820   2.39312
H    -1.03193   2.25119   2.73558
H     0.46325   2.17828   0.09032
H    -0.98951   3.02947   0.54065
