35
Generated by autodE on: 2022-06-10. E = -5843.194143 Ha
C     3.73866   0.76436   0.73820
C     2.82516   0.39658   1.87049
O     3.22905  -0.04616   2.92794
C     1.30904   0.62887   1.64517
C     1.05820   2.12951   1.88517
C     1.43902   2.69558   3.11197
C     1.20623   4.04748   3.37172
C     0.59103   4.85384   2.40842
C     0.21355   4.29715   1.18408
C     0.44790   2.94338   0.92251
C     0.88816   0.20489   0.31453
C     0.20776  -0.30044  -0.55309
C    -0.93760  -0.98730  -1.07544
Br   -0.43814  -2.88117  -1.49358
Br   -1.57918  -0.14463  -2.76446
C    -2.06119  -0.95758  -0.02472
C    -1.64538  -1.35719   1.40658
C    -1.06248  -0.26446   2.34719
C     0.45667  -0.25223   2.61519
H     3.41209   1.69438   0.24990
H     3.68813  -0.03528  -0.02031
H     4.77232   0.85275   1.09687
H     1.92335   2.07767   3.87033
H     1.50867   4.47229   4.33175
H     0.40836   5.91154   2.61181
H    -0.26802   4.91691   0.42401
H     0.14687   2.51802  -0.03596
H    -2.87228  -1.60808  -0.38299
H    -2.45304   0.07207  -0.01476
H    -2.56859  -1.72836   1.87669
H    -0.96805  -2.22624   1.36812
H    -1.39253   0.73387   2.01332
H    -1.53810  -0.41313   3.32840
H     0.85118  -1.27923   2.57178
H     0.64758   0.11430   3.63318
