15
Generated by autodE on: 2022-06-10. E = -396.224870 Ha
C    -2.64800   1.70873   0.33785
N    -2.40385   0.26994   0.19391
N    -1.26000  -0.02943  -0.13366
C    -0.19404  -0.38255  -0.55563
C     1.05650  -0.92970  -0.00311
O     1.10306  -2.10474   0.37292
N     2.10864  -0.08926  -0.00904
C     2.05131   1.32005  -0.35060
H    -2.40481   2.24544  -0.59441
H    -2.04074   2.13472   1.15333
H    -3.70846   1.85553   0.57101
H     2.96140  -0.46100   0.40306
H     1.37240   1.47768  -1.20136
H     1.70252   1.94109   0.49104
H     3.05310   1.65963  -0.64396
