20
Generated by autodE on: 2022-06-05. E = -614.916198 Ha
C    -3.75861   0.10103   0.56028
N    -2.39727   0.29937   0.10930
C    -1.41569  -0.60789   0.28936
O    -1.59680  -1.70409   0.82042
C    -0.07758  -0.23126  -0.18545
C     0.48318   0.93556  -0.53282
F    -0.06641   2.13628  -0.63448
C     1.99316   0.69513  -0.68920
C     2.54245   0.41934   0.73215
C     2.01657  -0.76017   1.07408
C     1.14608  -1.17863  -0.13334
O     1.93871  -0.64008  -1.21632
H    -3.98698   0.71250   1.44938
H    -4.46951   0.36965  -0.23525
H    -3.89847  -0.95499   0.81955
H    -2.15791   1.19182  -0.31036
H     2.53909   1.39486  -1.33084
H     3.17337   1.10112   1.30058
H     2.09978  -1.31775   2.00613
H     0.92975  -2.24352  -0.26168
