50
Generated by autodE on: 2022-06-05. E = -1452.308006 Ha. Imaginary frequency = -264.8 cm-1
C     6.03321  -0.71860   1.06785
N     4.93990  -0.03618   0.40561
C     3.75021  -0.63938   0.20017
O     3.53077  -1.81021   0.55550
C     2.70411   0.14641  -0.46769
C     2.57075   1.43892  -0.80315
F     3.43356   2.43526  -0.67024
C     1.12424   1.64391  -1.28732
O     0.92726   0.37144  -1.91543
C     1.30229  -0.41988  -0.76811
C     0.33509   0.15148   0.29358
C     0.24009   1.49076  -0.03693
C    -2.11547   1.42933  -0.91711
C    -2.31244   2.04663   0.39001
O    -2.33673   1.53000   1.49760
O    -2.45675   3.38123   0.22152
C    -2.56143   4.16268   1.41520
N    -2.05818   0.12327  -1.24441
C    -2.08071  -0.13802  -2.70241
C    -1.69945  -0.84072  -0.32793
C    -1.10829  -2.14029  -0.78204
O    -0.83646  -2.38794  -1.96421
N    -0.80398  -3.01936   0.20495
C     0.05778  -4.15748  -0.04733
C    -2.54211  -0.89025   0.91480
O    -3.74794  -0.74788   0.88909
O    -1.87234  -1.24462   2.01875
C    -2.64649  -1.40937   3.21563
H     5.76741  -1.00055   2.09963
H     6.31365  -1.63810   0.52990
H     6.90176  -0.04973   1.09834
H     5.06568   0.92640   0.11158
H     0.94511   2.49124  -1.95715
H     1.27715  -1.48816  -0.98879
H     0.23344  -0.27663   1.28747
H     0.05850   2.31653   0.64605
H    -2.27805   2.10513  -1.75411
H    -2.66134   5.20419   1.08730
H    -1.66055   4.04826   2.03668
H    -3.44396   3.86575   2.00088
H    -2.63362  -1.05978  -2.89996
H    -1.06275  -0.22511  -3.09105
H    -2.59291   0.70553  -3.17639
H    -0.90724  -2.70840   1.16604
H    -0.19842  -4.62441  -1.00669
H    -0.07537  -4.89541   0.75485
H     1.12186  -3.86170  -0.07632
H    -3.12088  -0.45572   3.48609
H    -3.41752  -2.17989   3.07440
H    -1.93697  -1.71652   3.99217
