30
Generated by autodE on: 2022-06-17. E = -763.114146 Ha
C     3.18914   0.44875  -0.77092
C     2.22966   0.61719   0.36994
O     2.55538   1.10596   1.43631
C     0.77384   0.25526   0.13816
C    -0.06047  -0.14363   1.36927
O     0.09699   0.02523   2.54738
O    -1.16721  -0.75427   0.85657
C    -0.98419  -0.70323  -0.61043
C    -1.81024  -1.75247  -1.20148
N    -2.48428  -2.55851  -1.68851
C    -1.29201   0.74195  -1.05760
C    -2.64693   1.25894  -0.59889
C    -0.01716   1.46570  -0.50091
C    -0.24489   2.64149   0.43682
N     0.44370  -0.83190  -0.80893
C     0.99703  -2.15335  -0.48795
H     4.08650   1.05147  -0.58070
H     3.48582  -0.61003  -0.84746
H     2.72722   0.73016  -1.72795
H    -1.25391   0.74293  -2.15480
H    -3.45219   0.63885  -1.02286
H    -2.74622   1.24891   0.49457
H    -2.79724   2.28959  -0.94977
H     0.58985   1.79839  -1.35298
H    -0.76008   3.45247  -0.09767
H    -0.85382   2.37557   1.31250
H     0.71604   3.03542   0.79945
H     0.56260  -2.89617  -1.17046
H     2.07984  -2.14539  -0.65504
H     0.80371  -2.47535   0.55061
