18
Generated by autodE on: 2022-06-17. E = -605.782378 Ha
C    -3.23000  -0.31121  -0.16953
C    -2.00454   0.44196  -0.61859
O    -2.07974   1.39291  -1.39899
C    -0.73261  -0.01331  -0.08306
C    -0.49697  -1.09327   0.82176
O    -1.17636  -1.91360   1.39546
O     0.92834  -1.09552   1.00875
C     1.44114  -0.10987   0.27722
C     2.82960   0.14409   0.25069
N     3.97602   0.34254   0.23785
N     0.50127   0.55013  -0.37919
C     0.75640   1.68662  -1.26637
H    -3.15449  -1.37370  -0.44962
H    -4.11489   0.13774  -0.63851
H    -3.32653  -0.27794   0.92689
H     0.22189   2.56403  -0.88637
H     1.83524   1.87703  -1.28497
H     0.39325   1.44525  -2.27112
