30
Generated by autodE on: 2022-06-17. E = -763.065319 Ha. Imaginary frequency = -450.6 cm-1
C     2.91374   1.29696   1.24393
C     2.41405   0.19801   0.34609
O     3.15756  -0.37320  -0.44951
C     0.99470  -0.15198   0.44646
C     0.05519   0.33052   1.43229
O     0.12981   1.09969   2.36630
O    -1.15578  -0.30549   1.12640
C    -0.97058  -0.92479  -0.09189
C    -1.94470  -1.92907  -0.42141
N    -2.76464  -2.68883  -0.73449
C    -1.27423   0.60996  -1.34609
C    -2.69535   1.03904  -1.05627
C    -0.19592   1.47235  -1.04882
C    -0.34574   2.76275  -0.31274
N     0.37603  -1.18260  -0.23671
C     0.88500  -1.83261  -1.43596
H     3.96959   1.48991   1.01529
H     2.80375   1.00360   2.29963
H     2.32277   2.21544   1.10859
H    -1.14751   0.01756  -2.25983
H    -2.97807   1.87994  -1.71114
H    -2.81756   1.37343  -0.01638
H    -3.40623   0.22032  -1.24105
H     0.71767   1.34751  -1.63457
H    -0.79963   3.51654  -0.98438
H     0.62607   3.15859   0.01305
H    -1.00672   2.68379   0.56310
H     1.82335  -2.34637  -1.20984
H     1.06038  -1.09223  -2.23202
H     0.14183  -2.56469  -1.77553
