28
Generated by autodE on: 2022-07-27. E = -781.990860 Ha
C     2.10915   3.36935   1.70797
N     1.53021   2.16049   1.15762
C     2.28186   1.07897   0.90521
O     3.49179   0.99330   1.13422
C     1.55729  -0.09176   0.29658
C     2.30166  -1.26439  -0.17632
O     0.30291   0.09198   0.15916
C    -0.70864  -0.67820  -0.35973
C    -0.85027  -2.08831  -0.06141
C    -0.09578  -2.67223   1.11809
O    -1.66046  -2.80247  -0.66611
C    -1.72860   0.21260  -0.89792
O    -1.63655   1.43650  -0.88565
O    -2.79079  -0.42431  -1.41693
C    -3.82875   0.40530  -1.94958
H     2.83541   3.81874   1.01106
H     1.30676   4.09082   1.90061
H     2.63374   3.15396   2.65136
H     0.55084   2.14830   0.88539
H     3.28239  -0.92400  -0.53724
H     2.49466  -1.98291   0.63837
H     1.74090  -1.78381  -0.96776
H     0.35830  -1.92786   1.78474
H     0.68534  -3.36488   0.76818
H    -0.82417  -3.26574   1.69037
H    -4.25999   1.04553  -1.16571
H    -4.59205  -0.28051  -2.33625
H    -3.44494   1.03901  -2.76278
