60
Generated by autodE on: 2022-06-14. E = -1996.509306 Ha. Imaginary frequency = -231.4 cm-1
C    -8.45464  -4.29516  13.98321
N    -8.90951  -5.57312  13.48035
C    -8.08500  -6.60453  13.23652
O    -6.88653  -6.65273  13.52022
C    -8.74263  -7.80060  12.58011
C    -7.95681  -9.04354  12.42609
O   -10.03368  -7.71584  12.59965
C   -11.00363  -8.42161  11.95456
C   -11.28168  -9.81433  12.29058
C   -10.53887 -10.46383  13.43720
O   -12.16592 -10.44592  11.70497
C   -12.02706  -7.45515  11.51671
O   -11.88103  -6.24313  11.60964
O   -13.11914  -8.01205  10.98336
C   -14.12646  -7.11110  10.50444
C    -9.58047  -8.26766   9.78946
C    -8.81865  -7.35102  10.11411
C    -8.01560  -6.29726   9.43714
C    -6.53475  -6.74625   9.37508
F    -6.02513  -7.01185  10.58717
F    -6.40524  -7.86344   8.64709
F    -5.76285  -5.80207   8.81271
C    -8.10336  -4.90828  10.12916
F    -7.79624  -3.91702   9.28061
F    -7.26475  -4.79188  11.17235
F    -9.34243  -4.67361  10.58390
C    -8.56055  -6.19121   7.97568
C   -10.08667  -5.97062   7.83025
C   -10.85809  -7.12958   7.16546
C   -11.35235  -8.28471   8.04701
C   -10.25194  -9.08191   8.76774
C   -10.67108 -10.48621   9.18026
O   -11.64747 -11.06318   8.75629
O    -9.76109 -11.05105   9.97631
C    -9.98489 -12.41807  10.35761
H    -8.59110  -3.50955  13.22395
H    -9.01658  -4.00868  14.88560
H    -7.39018  -4.36688  14.23546
H    -9.85756  -5.64170  13.11671
H    -6.96545  -8.78729  12.03420
H    -7.80980  -9.49657  13.42263
H    -8.44839  -9.76524  11.76740
H   -10.08537  -9.74961  14.13439
H    -9.75446 -11.12902  13.04538
H   -11.26257 -11.09236  13.97545
H   -14.51232  -6.48997  11.32550
H   -14.92435  -7.74438  10.09980
H   -13.72120  -6.46215   9.71446
H    -8.28179  -7.13168   7.48383
H    -8.00371  -5.39546   7.46371
H   -10.22774  -5.07750   7.20392
H   -10.55150  -5.73070   8.79756
H   -11.75555  -6.70420   6.68818
H   -10.24482  -7.53949   6.34395
H   -11.89796  -8.99703   7.41081
H   -12.07024  -7.91784   8.79156
H    -9.44757  -9.28805   8.03236
H    -9.12610 -12.70157  10.97614
H   -10.91637 -12.49984  10.93273
H   -10.03892 -13.05724   9.46485
