42
Generated by autodE on: 2022-06-10. E = -995.439215 Ha
C     6.01729   0.63527   0.25958
N     4.59726   0.91965   0.19361
C     3.72311   0.03857  -0.33531
O     4.09153  -1.05130  -0.80739
C     2.29416   0.40024  -0.35017
C     1.51590   1.08026   0.52104
C     1.79824   1.78926   1.79447
C     0.08908   0.82390   0.03816
O     0.26094   0.69894  -1.38223
C     1.32461  -0.26636  -1.32127
C     0.64152  -1.42402  -0.54651
O    -0.26738  -2.17048  -1.36733
N    -1.56995  -1.57320  -1.27550
C    -1.66526  -1.16008   0.14312
C    -1.96319  -2.40122   0.99619
C    -2.76310  -0.12918   0.33157
C    -2.83487   0.58906   1.53713
C    -3.84967   1.52192   1.75476
C    -4.81672   1.75229   0.76943
C    -4.75853   1.03880  -0.42932
C    -3.74138   0.10186  -0.64591
C    -0.23543  -0.64118   0.46936
H     6.52006   1.45842   0.78164
H     6.45638   0.53384  -0.74651
H     6.20877  -0.30132   0.80587
H     4.25860   1.82142   0.50929
H     1.57023   2.86443   1.69466
H     1.13506   1.40247   2.58708
H     2.83916   1.67949   2.12524
H    -0.65924   1.58259   0.28584
H     1.69620  -0.53075  -2.31683
H     1.36619  -2.13090  -0.12475
H    -1.48996  -0.70966  -1.82318
H    -1.18384  -3.16423   0.85224
H    -1.99766  -2.13655   2.06252
H    -2.93365  -2.83112   0.70737
H    -2.08304   0.42111   2.31161
H    -3.88490   2.07355   2.69732
H    -5.61075   2.48361   0.93779
H    -5.51018   1.20611  -1.20460
H    -3.72037  -0.45549  -1.58324
H     0.02712  -0.81727   1.51831
