42
Generated by autodE on: 2022-06-10. E = -995.369022 Ha. Imaginary frequency = -381.2 cm-1
C     6.08062   0.97602  -0.00711
N     4.64173   1.14887   0.01259
C     3.80335   0.15250  -0.34608
O     4.22583  -0.95563  -0.72255
C     2.35477   0.40289  -0.28627
C     1.57450   1.11913   0.55288
C     1.86044   2.01387   1.70124
C     0.13453   0.67778   0.20309
O     0.26209   0.44053  -1.20985
C     1.37244  -0.46988  -1.09742
C     0.78658  -1.50697  -0.12491
O    -0.62440  -2.41008  -1.45729
N    -1.62004  -1.59910  -1.25304
C    -2.06534  -1.40534   0.00406
C    -2.18812  -2.61440   0.88925
C    -2.95919  -0.24422   0.23019
C    -3.19031   0.20836   1.54291
C    -3.97963   1.33361   1.78273
C    -4.56214   2.02796   0.71750
C    -4.34910   1.58248  -0.59028
C    -3.55818   0.45790  -0.83327
C    -0.02875  -0.76791   0.72151
H     6.55231   1.87589   0.40642
H     6.45822   0.81847  -1.03125
H     6.38175   0.10775   0.59889
H     4.25812   2.06184   0.22767
H     1.48532   3.03250   1.50110
H     1.31709   1.65278   2.59201
H     2.92950   2.07492   1.94396
H    -0.66488   1.39240   0.42947
H     1.71499  -0.82780  -2.07314
H     1.27733  -2.45422   0.08861
H    -1.59493  -0.75660  -1.83593
H    -1.38267  -3.32837   0.68420
H    -2.16331  -2.34458   1.95164
H    -3.15571  -3.10857   0.69044
H    -2.72953  -0.31148   2.38399
H    -4.13832   1.67138   2.80954
H    -5.18158   2.90775   0.90599
H    -4.80902   2.10751  -1.43074
H    -3.42870   0.11753  -1.86225
H    -0.22948  -0.99447   1.76746
