48
Generated by autodE on: 2022-06-29. E = -1864.195111 Ha
C    -1.44083   2.23969   4.33777
O    -0.42205   1.92313   3.37887
C    -0.82740   1.65664   2.14152
O    -1.98363   1.75511   1.77794
C     0.31235   1.32475   1.16872
C     1.67814   1.16714   1.84376
N     0.33748   2.44540   0.21302
C     0.67903   1.86525  -1.08963
C     0.12866   2.74732  -2.20222
C     0.22808   0.39362  -1.01339
C    -0.00637   0.08891   0.28468
C    -0.27452  -1.26927   0.89410
Cl   -0.66858  -1.14376   2.69933
Cl   -1.85076  -1.96245   0.22762
C     0.90073  -2.28076   0.81697
C     1.95083  -2.10939  -0.28279
C     1.56500  -2.55428  -1.68956
C     0.27931  -1.96080  -2.25614
C     0.11621  -0.40701  -2.31651
C    -1.29226  -0.14092  -2.89997
C     1.24975   0.00551  -3.27535
C     0.97090   0.04484  -4.75368
O     2.37569   0.20892  -2.84520
H    -2.13371   1.39228   4.44652
H    -2.00086   3.13277   4.02579
H    -0.91907   2.42777   5.28306
H     1.69430   0.31363   2.53378
H     2.44472   1.00376   1.07251
H     1.93359   2.07687   2.40360
H    -0.63242   2.75652   0.12169
H     1.77598   1.83720  -1.19542
H    -0.96937   2.81182  -2.15121
H     0.53673   3.76257  -2.08348
H     0.41173   2.39891  -3.20353
H     0.47595  -3.29585   0.81342
H     1.43119  -2.17069   1.77142
H     2.82011  -2.70723   0.03617
H     2.29707  -1.06587  -0.29652
H     1.43768  -3.65069  -1.69462
H     2.41209  -2.34428  -2.36191
H    -0.58180  -2.36110  -1.71378
H     0.16005  -2.32199  -3.28969
H    -1.45675   0.91714  -3.13389
H    -1.45213  -0.72630  -3.81616
H    -2.04721  -0.45095  -2.16555
H     0.25361   0.84757  -4.98396
H     0.51179  -0.89753  -5.08851
H     1.90809   0.21889  -5.29754
