28
Generated by autodE on: 2022-06-29. E = -1423.456400 Ha
C    -2.21779   0.23517  -2.46697
C    -0.85407   0.55412  -3.00555
O    -0.64600   0.74155  -4.19065
C     0.32313   0.59287  -2.00885
C     1.35459   1.64837  -2.43422
C    -0.09248   0.78244  -0.62436
C    -0.19387   0.64788   0.57681
C     0.01141  -0.06023   1.81736
Cl    0.22345   1.07140   3.23105
Cl   -1.46826  -1.09432   2.15680
C     1.25209  -0.95950   1.68646
C     1.30475  -1.83244   0.41722
C     1.90446  -1.21576  -0.87809
C     0.94324  -0.85802  -2.03056
H    -2.90799   0.00538  -3.28889
H    -2.58782   1.11391  -1.91175
H    -2.17487  -0.59600  -1.74708
H     2.24396   1.59773  -1.79080
H     1.65480   1.46630  -3.47472
H     0.92947   2.66036  -2.36250
H     1.29142  -1.58850   2.58812
H     2.12671  -0.29082   1.71517
H     1.92943  -2.69742   0.68647
H     0.30340  -2.24688   0.21542
H     2.59704  -1.96267  -1.29547
H     2.53402  -0.34681  -0.62531
H     1.46670  -0.94584  -2.99487
H     0.12050  -1.59128  -2.04681
