20
Generated by autodE on: 2022-06-29. E = -440.653713 Ha
C     3.72952   0.44937  -0.39032
C     2.55597  -0.32979   0.07790
N     1.33022   0.09169  -0.09757
C     0.12939  -0.47667   0.25219
C     0.13359  -1.79133   0.94943
C    -0.99739   0.29983  -0.11685
O    -0.95342   1.40179  -0.69696
O    -2.19637  -0.26708   0.22173
C    -3.36331   0.46906  -0.13022
H     4.33041  -0.13699  -1.10787
H     3.42253   1.38781  -0.87715
H     4.40078   0.69474   0.45156
H     2.69296  -1.28701   0.58476
H     1.20558   0.99361  -0.57455
H     0.62525  -2.57784   0.34425
H     0.68618  -1.74764   1.90824
H    -0.89060  -2.11844   1.16345
H    -3.38063   1.45460   0.36113
H    -4.21800  -0.12788   0.21346
H    -3.43160   0.61763  -1.21941
