30
Generated by autodE on: 2022-06-02. E = -850.650925 Ha
C     5.10287   0.16355  -0.14119
N     3.79225  -0.27325   0.30024
C     2.66935   0.23023  -0.23717
O     2.67258   1.09104  -1.13357
C     1.37358  -0.27610   0.27633
C     1.28323  -1.31174   1.22381
N     1.28040  -2.18600   1.99941
N     0.31265   0.28238  -0.33904
C    -1.00292   0.20391  -0.28945
C    -1.66134   0.98251  -1.37880
O    -0.97153   1.72210  -2.10030
N    -2.98658   0.83485  -1.51263
C    -3.72285   1.51212  -2.56027
C    -1.77483  -0.54827   0.73723
O    -2.76989  -1.21733   0.41788
N    -1.37234  -0.40496   2.01028
C    -1.93323  -1.20532   3.08267
H     5.24381   1.24235   0.03155
H     5.86549  -0.38688   0.42223
H     5.24635  -0.03045  -1.21572
H     3.72830  -0.96926   1.03625
H     0.63376   0.93889  -1.08593
H    -3.43018   0.10155  -0.96086
H    -3.50250   2.58959  -2.55277
H    -4.79655   1.36719  -2.39021
H    -3.46591   1.12001  -3.55872
H    -0.56632   0.17613   2.21767
H    -1.53504  -0.84431   4.03814
H    -3.02952  -1.12235   3.09542
H    -1.66665  -2.26819   2.96331
