30
Generated by autodE on: 2022-07-27. E = -850.650933 Ha
C     1.35076  -2.21732   2.82560
N     1.16007  -1.15252   1.85873
C     1.37191  -1.34195   0.54647
O     1.92151  -2.35752   0.09250
C     0.97616  -0.22506  -0.35558
C     1.85536   0.27179  -1.45381
O     1.54005   1.30665  -2.06459
N     2.95603  -0.44616  -1.71833
C     3.85434  -0.09017  -2.79767
N    -0.16339   0.43481  -0.28387
C    -1.32999   0.34615   0.38492
C    -1.66324  -0.70844   1.25411
N    -2.01087  -1.56264   1.97195
C    -2.28917   1.41463   0.01481
O    -1.95056   2.27342  -0.81737
N    -3.49499   1.40116   0.60590
C    -4.49902   2.40147   0.29821
H     2.34584  -2.66967   2.70940
H     1.26251  -1.79857   3.83501
H     0.59215  -3.00715   2.69926
H     0.72694  -0.29115   2.17576
H     3.04230  -1.34982  -1.25476
H     3.38714  -0.24456  -3.78499
H     4.75351  -0.71464  -2.73201
H     4.14736   0.96714  -2.72319
H    -0.19219   1.23308  -0.95706
H    -3.71932   0.67014   1.27347
H    -5.38746   2.20854   0.91098
H    -4.13005   3.41568   0.51729
H    -4.78684   2.36653  -0.76457
