27
Generated by autodE on: 2022-06-16. E = -611.547065 Ha
C     2.36577  -1.26357   0.11202
N     1.24478  -0.61891   0.77763
O     0.09871  -1.52914   0.69538
C    -0.91755  -0.92830  -0.09919
C    -2.26068  -1.52554   0.30480
C    -0.67035  -1.26059  -1.52984
N    -0.47497  -1.56132  -2.63349
C    -0.72801   0.60325   0.15033
C    -1.29108   0.99421   1.52397
C    -1.32333   1.49497  -0.93370
C     0.82872   0.62700   0.13125
C     1.38915   1.83484   0.84395
O     1.54386   2.90473   0.29507
H     3.23281  -0.59135   0.19643
H     2.17675  -1.46548  -0.95823
H     2.60936  -2.20406   0.62497
H    -2.41202  -1.40404   1.38412
H    -2.28160  -2.59731   0.06255
H    -3.07311  -1.02354  -0.23952
H    -2.38758   0.92517   1.52301
H    -1.03192   2.03883   1.75137
H    -0.90060   0.35643   2.32859
H    -2.41960   1.39807  -0.94731
H    -0.93549   1.24720  -1.93221
H    -1.07684   2.54669  -0.72650
H     1.16186   0.68089  -0.92070
H     1.63662   1.68766   1.92044
