14
Generated by autodE on: 2022-06-16. E = -270.687343 Ha
C    -1.61050   0.82252  -0.73204
C    -0.27337   0.93809  -0.06337
C     0.15219   2.33941   0.25379
C     0.53141  -0.10997   0.25464
C     0.24016  -1.50994   0.00080
O     0.99828  -2.42646   0.30908
H    -1.60276   1.40136  -1.67122
H    -1.91530  -0.20581  -0.95734
H    -2.38131   1.28556  -0.09278
H     1.13664   2.37819   0.73998
H    -0.59217   2.82185   0.91079
H     0.18329   2.94393  -0.66925
H     1.49173   0.08049   0.74555
H    -0.72538  -1.74279  -0.50176
