13
Generated by autodE on: 2022-07-27. E = -340.773174 Ha
C     2.34120  -0.06334   1.46701
N     1.45711   0.04966   0.33034
O     0.22691  -0.11592   0.78667
C    -0.83456  -0.06826   0.03067
C    -2.15605  -0.28237   0.67972
C    -0.67668   0.17734  -1.35208
N    -0.60070   0.37813  -2.50013
H     3.36618   0.04406   1.08893
H     2.16510   0.72677   2.22124
H     2.25665  -1.04181   1.97559
H    -2.00642  -0.43856   1.75681
H    -2.66675  -1.16393   0.25726
H    -2.81568   0.58861   0.53073
