13
Generated by autodE on: 2022-06-16. E = -340.767931 Ha
C     1.98216  -0.23127   0.64276
N     1.01391  -1.17599   1.11653
O    -0.20584  -0.95997   0.66176
C    -0.75745  -0.07452  -0.12901
C    -2.22417  -0.25507  -0.35631
C    -0.10676   1.01044  -0.76890
N     0.24289   1.94864  -1.37181
H     2.08210  -0.24223  -0.45972
H     2.94589  -0.51979   1.08104
H     1.75362   0.80595   0.95473
H    -2.43896  -0.39846  -1.42825
H    -2.78497   0.63271  -0.02002
H    -2.57346  -1.13449   0.20156
