27
Generated by autodE on: 2022-06-16. E = -611.464094 Ha. Imaginary frequency = -244.2 cm-1
C     2.35180  -1.38595   1.01627
N     1.40479  -1.06253  -0.02630
O     0.19398  -1.34951   0.45623
C    -0.85389  -1.06833  -0.30847
C    -2.17500  -1.48540   0.24995
C    -0.65331  -1.08576  -1.72409
N    -0.55709  -1.10026  -2.88428
C    -0.73697   1.26049  -0.06278
C    -1.33600   1.34245   1.31724
C    -1.64916   1.67545  -1.18947
C     0.64201   1.31740  -0.26674
C     1.66700   1.46260   0.74448
O     1.50995   1.50688   1.96699
H     3.34219  -1.06257   0.67087
H     2.12279  -0.88886   1.97582
H     2.37960  -2.47732   1.18656
H    -2.15831  -1.39857   1.34380
H    -2.39484  -2.53168  -0.02263
H    -2.97925  -0.85543  -0.15423
H    -2.41641   1.14482   1.28821
H    -0.85348   0.65687   2.02369
H    -1.19407   2.36298   1.71310
H    -2.59325   1.10979  -1.18721
H    -1.17099   1.57945  -2.17323
H    -1.91636   2.73696  -1.04336
H     1.00354   1.39190  -1.29492
H     2.69357   1.56373   0.31991
