27
Generated by autodE on: 2022-06-22. E = -757.116762 Ha
C     5.00680   0.16316   0.44308
N     3.71979  -0.12407  -0.16693
C     2.72747   0.77232  -0.15380
O     2.78755   1.91159   0.31343
C     1.46795   0.36060  -0.80577
N     0.37178   0.06853  -0.46168
C    -0.85847  -0.24329  -0.18258
C    -1.18339  -1.69860  -0.23465
O    -0.30432  -2.52901  -0.50872
N    -2.45877  -2.02912   0.02712
C    -2.90615  -3.40445  -0.01527
C    -1.80841   0.84537   0.16200
O    -3.02167   0.62116   0.32465
N    -1.29503   2.08762   0.27722
C    -2.12808   3.20980   0.66431
H     5.69544  -0.65673   0.20863
H     4.92255   0.25523   1.53757
H     5.42063   1.10294   0.04859
H     3.55007  -1.03745  -0.57945
H    -3.10429  -1.25585   0.19989
H    -3.98021  -3.43533   0.20540
H    -2.73656  -3.85496  -1.00699
H    -2.37656  -4.02356   0.72706
H    -0.28830   2.21531   0.28809
H    -2.46277   3.13103   1.71249
H    -3.02171   3.26519   0.02632
H    -1.55109   4.13521   0.54720
