40
Generated by autodE on: 2022-10-14. E = -973.432420 Ha
C     3.75973  -2.33493   0.67838
N     2.61163  -1.64009   0.13300
C     2.44842  -0.29839   0.30902
O     3.30770   0.34005   0.96471
C     1.24456   0.31405  -0.23794
C     0.73241   1.62434   0.18905
O    -0.27542   2.14883  -0.32801
N     1.43377   2.26353   1.15920
C     1.15210   3.64198   1.49056
N     0.49550  -0.35054  -1.21229
C     1.19628  -0.75879  -2.45002
C    -0.82463  -0.45968  -1.09475
C    -1.67905  -0.70721  -2.30443
C    -2.88219  -1.59378  -2.13095
O    -1.39830  -0.20085  -3.38194
C    -1.48099  -0.39793   0.22527
C    -0.98343  -1.15950   1.29927
C    -1.63758  -1.14873   2.52945
C    -2.78866  -0.37121   2.71025
C    -3.28606   0.38962   1.64921
C    -2.63704   0.37648   0.41284
H     4.69801  -1.87493   0.33324
H     3.73429  -3.37832   0.33900
H     3.76622  -2.32351   1.78189
H     1.84034  -2.19663  -0.21697
H     2.33910   1.84800   1.38784
H     0.08322   3.77807   1.71227
H     1.73233   3.92233   2.37958
H     1.41242   4.33815   0.67253
H     0.76078  -1.67938  -2.85486
H     2.24933  -0.92097  -2.20895
H     1.11688   0.05107  -3.18420
H    -3.73057  -1.00124  -1.75262
H    -3.15845  -2.00717  -3.11034
H    -2.69423  -2.39883  -1.40624
H    -0.09138  -1.77181   1.16356
H    -1.25086  -1.75562   3.35122
H    -3.29716  -0.36288   3.67707
H    -4.18162   1.00035   1.78333
H    -3.01757   0.98468  -0.40951
