40
Generated by autodE on: 2022-10-08. E = -973.434423 Ha
C    -3.03649  -3.15439  -1.76896
N    -2.07348  -2.25089  -1.17475
C    -2.45723  -1.29237  -0.28120
O    -3.66723  -1.20397   0.04820
C    -1.43063  -0.39321   0.20830
C    -1.71679   0.93606   0.74143
O    -0.81152   1.78106   0.95889
N    -3.00746   1.21848   1.02661
C    -3.40176   2.46899   1.63190
N    -0.07332  -0.74320   0.12715
C     0.33788  -2.02449   0.74079
C     0.83308   0.13057  -0.27041
C     0.43499   1.25288  -1.20767
C     1.19298   2.54619  -1.10033
O    -0.38961   1.05418  -2.08515
C     2.25350   0.01004   0.09968
C     2.64004  -0.03840   1.45159
C     3.99053  -0.11379   1.79137
C     4.96743  -0.14527   0.79016
C     4.59008  -0.08875  -0.55559
C     3.24137  -0.00164  -0.90160
H    -3.63091  -3.65528  -0.99076
H    -3.73879  -2.63608  -2.44574
H    -2.49835  -3.91892  -2.34443
H    -1.17310  -2.15334  -1.63022
H    -3.66841   0.45022   0.89521
H    -2.88616   3.31235   1.14888
H    -3.16844   2.51067   2.71103
H    -4.48526   2.60145   1.51121
H    -0.47142  -2.74620   0.60406
H     1.25165  -2.39473   0.26262
H     0.50581  -1.88064   1.81545
H     2.05420   2.51192  -1.78817
H     0.53642   3.36699  -1.41957
H     1.56975   2.72431  -0.08610
H     1.87835   0.00753   2.23190
H     4.28243  -0.14287   2.84348
H     6.02427  -0.20786   1.05929
H     5.34964  -0.11136  -1.34013
H     2.94732   0.04125  -1.95256
