50
Generated by autodE on: 2022-10-08. E = -1428.464551 Ha. Imaginary frequency = -309.8 cm-1
C     4.87824   0.12683  -0.05488
N     3.44617  -0.06992   0.05719
C     2.60692   0.59503  -0.74354
O     2.99128   1.33159  -1.66561
C     1.12243   0.48526  -0.38971
C     0.83790   1.70941   0.48257
O     0.35966   2.72751  -0.03019
N     1.28693   1.68027   1.74528
C     1.12327   2.82473   2.61631
C     0.75792  -1.58803   0.68124
C     1.02913  -1.26099   2.11652
O     0.10878  -1.31106   2.96551
O     2.23591  -0.92107   2.40329
C    -0.49631  -2.00181   0.23343
C    -0.65248  -3.12380  -0.77382
O     0.35398  -3.49392  -1.44469
O    -1.79663  -3.65333  -0.84097
C    -1.08160  -0.13903  -1.04081
C    -2.01715  -0.83829  -1.95878
C    -3.42532  -1.04939  -1.43609
O    -1.73255  -1.28091  -3.07166
C    -1.78176   0.79596  -0.08353
C    -1.81274   0.67659   1.31063
C    -2.48043   1.63016   2.08884
C    -3.13809   2.70559   1.49021
C    -3.12543   2.82669   0.09611
C    -2.45272   1.88272  -0.67686
N     0.23119   0.14421  -1.38131
C     0.79343  -0.48607  -2.59520
H     5.16118   1.17683   0.13149
H     5.38108  -0.51118   0.68302
H     5.23746  -0.14353  -1.05958
H     3.06486  -0.52317   0.91205
H     1.70895   0.82203   2.11534
H     1.60062   3.72359   2.19456
H     0.05586   3.05238   2.77588
H     1.58461   2.59917   3.58601
H     1.61788  -1.95644   0.12029
H    -1.33780  -1.91923   0.92103
H    -4.04787  -0.18295  -1.71197
H    -3.83409  -1.94329  -1.92385
H    -3.47164  -1.15819  -0.34625
H    -1.29581  -0.13493   1.81593
H    -2.48132   1.52328   3.17631
H    -3.65801   3.44585   2.10313
H    -3.63575   3.66221  -0.38913
H    -2.43020   1.99324  -1.76373
H     0.20852  -0.17433  -3.46278
H     1.81955  -0.14811  -2.72831
H     0.75448  -1.57646  -2.50337
