48
Generated by autodE on: 2022-06-03. E = -1355.732541 Ha
C    -4.11009   1.68627   1.72235
N    -2.74048   1.30350   1.44260
C    -2.13012   1.61317   0.29257
O    -2.57885   2.38279  -0.55888
C    -0.72022   0.96369   0.12834
C     0.29795   1.97323   0.70451
C     0.38087   3.32734   0.06388
O     1.00046   1.64704   1.64169
O    -0.61893  -0.22585   0.89411
C    -0.89010  -1.38072   0.11320
C     0.02974  -2.52797   0.60078
C     0.71995  -2.32251   1.91118
O     0.11181  -3.54620  -0.06014
C    -2.32072  -1.91328   0.43128
C    -2.94125  -2.87481  -0.53422
O    -2.86222  -1.56795   1.46250
C    -0.68612  -0.97826  -1.36619
C     0.61884  -1.43159  -2.11984
C     1.80720  -1.24438  -1.19550
C     1.98796   0.08499  -1.12171
C     3.00806   0.83135  -0.36915
O     3.30456   1.99159  -0.59442
O     3.58240   0.09673   0.58896
C     4.55905   0.76028   1.40443
C     0.91709   0.69364  -2.01898
O     0.77664  -0.32396  -3.02359
C    -0.49160   0.56202  -1.34094
H    -4.82435   0.95523   1.30739
H    -4.26093   1.74401   2.80864
H    -4.31730   2.66841   1.27915
H    -2.36364   0.49641   1.93657
H     0.49129   4.08936   0.84907
H     1.29982   3.34587  -0.54379
H    -0.47907   3.54927  -0.57696
H     1.30320  -3.21560   2.16764
H     1.36546  -1.43348   1.85742
H    -0.03488  -2.11666   2.68738
H    -3.43719  -2.29229  -1.32919
H    -2.18655  -3.51394  -1.01116
H    -3.70065  -3.47649  -0.01795
H    -1.54278  -1.26061  -1.98372
H     0.53875  -2.38159  -2.65476
H     2.36616  -2.02640  -0.68658
H     4.91416   0.01016   2.12003
H     4.09295   1.60356   1.93452
H     5.39346   1.12721   0.78989
H     1.13317   1.67152  -2.45871
H    -1.21311   1.08019  -1.97882
