29
Generated by autodE on: 2022-07-27. E = -820.104151 Ha
C    -2.82390   2.77888  -0.53238
N    -1.63218   2.29201   0.13823
C    -0.82291   1.40520  -0.44661
O    -0.94618   1.00318  -1.60779
C     0.38990   0.95132   0.31594
O     0.78251  -0.27574   0.25071
C     0.22152  -1.43333  -0.09814
C     1.22533  -2.48703  -0.28758
C     2.67355  -2.09566  -0.11623
O     0.90271  -3.62972  -0.61031
C    -1.22523  -1.60279   0.00555
C    -1.84857  -2.91449  -0.37762
O    -1.90901  -0.68364   0.46681
C     1.46326   1.84326   0.85471
C     1.28692   3.32859   0.74377
O     2.45031   1.33073   1.36541
H    -3.53473   1.95707  -0.71678
H    -3.30374   3.53324   0.10219
H    -2.56591   3.23519  -1.49944
H    -1.49069   2.50752   1.12090
H     2.83503  -1.52268   0.80805
H     2.98111  -1.44503  -0.95165
H     3.28801  -3.00478  -0.12100
H    -1.60676  -3.16554  -1.42107
H    -2.93560  -2.83054  -0.24772
H    -1.45550  -3.73186   0.24433
H     0.98731   3.62063  -0.27412
H     0.49624   3.66905   1.43221
H     2.23028   3.81812   1.01684
