19
Generated by autodE on: 2022-06-03. E = -535.502985 Ha
C    -3.25151  -0.75611  -1.19627
O    -1.92769  -0.74795  -0.64733
C    -1.42307   0.44944  -0.30635
O    -2.03657   1.49497  -0.44038
C    -0.06614   0.33062   0.23057
C     0.79098   1.32360   0.51597
C     2.09401   0.61101   0.92687
C     2.66670  -0.04421  -0.35340
C     1.82085  -1.03834  -0.63706
C     0.74124  -0.97012   0.46751
O     1.54463  -0.54737   1.58603
H    -3.97210  -0.34919  -0.47177
H    -3.48373  -1.80532  -1.41266
H    -3.29014  -0.16019  -2.11993
H     0.64875   2.39939   0.41969
H     2.78808   1.16586   1.56669
H     3.54058   0.30983  -0.89897
H     1.81218  -1.72960  -1.47903
H     0.17030  -1.87825   0.68234
