48
Generated by autodE on: 2022-06-03. E = -1355.612684 Ha. Imaginary frequency = -217.0 cm-1
C    -4.23169   1.92841   1.79030
N    -2.85412   1.48132   1.69054
C    -2.19792   1.53080   0.51567
O    -2.58975   2.17002  -0.46004
C    -0.80116   0.92679   0.59926
C     0.30294   1.86082   1.00798
C     0.24071   3.27223   0.50780
O     1.20184   1.44397   1.72331
O    -0.54696  -0.29642   0.97862
C    -0.98062  -1.50985   0.63893
C    -0.01691  -2.55618   1.03679
C     1.11139  -2.14753   1.95095
O    -0.14408  -3.71618   0.65305
C    -2.34903  -1.73478   0.17048
C    -2.79406  -3.13179  -0.16685
O    -3.12167  -0.78302   0.03748
C    -0.64435  -0.77030  -1.97869
C     0.68069  -1.34569  -2.51694
C     1.72255  -1.27995  -1.39547
C     1.98347   0.02964  -1.24577
C     2.95459   0.72819  -0.40033
O     3.19265   1.92084  -0.49595
O     3.57136  -0.07925   0.47083
C     4.50803   0.53694   1.36462
C     1.07055   0.73764  -2.25626
O     1.10910  -0.22824  -3.33412
C    -0.40538   0.56213  -1.80314
H    -4.91001   1.25775   1.23638
H    -4.52674   1.94373   2.84660
H    -4.33157   2.94103   1.37688
H    -2.52054   0.81577   2.38237
H    -0.59187   3.80208   0.99974
H     1.18349   3.78008   0.74426
H     0.04954   3.30027  -0.57436
H     1.76406  -3.01454   2.11327
H     1.68981  -1.31086   1.53910
H     0.69979  -1.80716   2.91509
H    -2.17272  -3.55416  -0.96947
H    -2.68952  -3.79938   0.70089
H    -3.84325  -3.08635  -0.48678
H    -1.59835  -1.28118  -2.05236
H     0.61490  -2.27854  -3.08467
H     2.13308  -2.13377  -0.86041
H     4.89264  -0.26866   2.00053
H     4.00243   1.29751   1.97647
H     5.32998   1.00357   0.80282
H     1.36880   1.73889  -2.57835
H    -1.13645   1.36753  -1.75995
