38
Generated by autodE on: 2022-10-06. E = -1067.709169 Ha
C    -0.78196   3.04882   1.89353
N    -0.76529   1.83994   1.09799
C     0.30165   1.53282   0.34844
O     1.25911   2.31747   0.22793
C     0.21917   0.24452  -0.51692
C     1.61936  -0.15594  -0.99290
C     1.84977  -0.52808  -2.32427
C     3.10943  -0.97026  -2.74445
C     4.16570  -1.05530  -1.83511
C     3.94561  -0.69552  -0.50075
C     2.68892  -0.25049  -0.08611
C    -0.46987  -0.98402   0.15233
C    -0.20286  -1.28706   1.64311
O     0.60880  -0.57805   2.29250
O    -0.80792  -2.29824   2.09019
C    -1.97272  -0.94912  -0.27666
C    -2.98482  -0.83218   0.87627
O    -3.91407  -1.66977   0.93093
O    -2.83213   0.13585   1.68714
C    -2.05330   0.24957  -1.23864
N    -0.68209   0.50451  -1.65993
C    -0.50837   1.75518  -2.37078
H    -1.77324   3.15475   2.35502
H    -0.58244   3.93887   1.27643
H    -0.02372   3.02409   2.69671
H    -1.50580   1.13724   1.29716
H     1.02816  -0.47667  -3.03765
H     3.26101  -1.25112  -3.79002
H     5.15027  -1.40100  -2.15985
H     4.75984  -0.76315   0.22557
H     2.52344   0.00730   0.95818
H    -0.04228  -1.85857  -0.35854
H    -2.21190  -1.87343  -0.81605
H    -2.49408   1.12786  -0.72629
H    -2.68533   0.04354  -2.11766
H    -1.09532   1.73283  -3.30302
H     0.54723   1.90567  -2.63630
H    -0.84302   2.64213  -1.79235
