10
Generated by autodE on: 2022-10-06. E = -455.046527 Ha
O     2.23759  -0.56099   0.11359
C     1.49304   0.36576  -0.29831
O     1.51352   0.89490  -1.43980
C     0.55075   0.98347   0.71828
C    -0.72851   0.64850   0.95543
C    -1.49531  -0.43458   0.23493
O    -2.71108  -0.56786   0.55484
O    -0.88607  -1.12758  -0.62839
H     0.99734   1.79549   1.30889
H    -1.29600   1.18993   1.72115
