28
Generated by autodE on: 2022-10-13. E = -612.582987 Ha
C    -3.05207   0.81629  -0.69535
N    -1.83037   0.37370  -0.92789
C    -1.54345  -0.02611  -2.32589
C    -0.78777   0.22318  -0.02845
C    -0.97208   0.48931   1.37663
O    -2.05785   0.84184   1.90580
N     0.14105   0.36113   2.17613
C     0.02717   0.41214   3.61602
C     0.54406  -0.21711  -0.53550
C     0.98578  -1.53804  -0.33127
C     2.24952  -1.95019  -0.76297
C     3.09548  -1.04764  -1.41512
C     2.67402   0.26968  -1.62371
C     1.41458   0.68089  -1.18034
H    -3.31352   1.12862   0.30920
H    -3.75179   0.83948  -1.52776
H    -0.79630   0.64808  -2.75926
H    -1.15030  -1.04888  -2.34184
H    -2.46882   0.02611  -2.90681
H     0.96841  -0.06959   1.78191
H     1.03186   0.34967   4.05472
H    -0.43461   1.35598   3.94418
H    -0.58263  -0.41299   4.02849
H     0.32271  -2.24562   0.17254
H     2.57208  -2.98073  -0.59535
H     4.08248  -1.36885  -1.75670
H     3.33278   0.98234  -2.12606
H     1.09439   1.71475  -1.33133
