38
Generated by autodE on: 2022-10-06. E = -1067.629171 Ha. Imaginary frequency = -261.0 cm-1
C     1.13183   1.27511   3.05857
N     1.29781   1.01178   1.64287
C     0.26900   1.26725   0.76907
O    -0.69251   1.97193   1.14017
C     0.43300   0.71477  -0.57728
C     1.81225   0.33327  -1.01493
C     2.33984  -0.94323  -0.75418
C     3.64453  -1.26944  -1.14036
C     4.44215  -0.33024  -1.79903
C     3.93303   0.94755  -2.05609
C     2.63547   1.27623  -1.65961
C    -1.09544  -1.40407   0.06128
C    -0.68509  -1.47173   1.49654
O    -1.41136  -0.91877   2.37400
O     0.39269  -2.09636   1.75443
C    -2.29755  -0.95550  -0.45913
C    -3.56994  -0.65186   0.33899
O    -3.71943   0.44770   0.93095
O    -4.42678  -1.57872   0.29668
C    -1.82839   1.06232  -1.26571
N    -0.52348   0.92143  -1.54815
C    -0.21524   0.44756  -2.90616
H     0.85777   2.32641   3.22619
H     2.08444   1.08160   3.57004
H     0.35053   0.64246   3.51301
H     1.90065   0.23136   1.40703
H     1.73210  -1.67093  -0.21375
H     4.03718  -2.26641  -0.92521
H     5.45922  -0.58814  -2.10419
H     4.55228   1.69406  -2.55969
H     2.24811   2.28040  -1.84885
H    -0.42286  -1.92718  -0.62322
H    -2.52730  -1.32208  -1.46609
H    -2.10889   1.47762  -0.30881
H    -2.49860   1.16689  -2.11832
H    -0.00897  -0.63301  -2.88408
H     0.65927   0.96397  -3.31506
H    -1.08012   0.63985  -3.54932
