38
Generated by autodE on: 2022-05-31. E = -1410.273965 Ha
C    -5.36099   1.72507  -0.63087
O    -4.24899   0.83586  -0.43378
C    -3.08693   1.39807  -0.12834
O    -2.91027   2.59501  -0.00518
C    -1.97437   0.41266   0.05995
N    -2.13958  -0.84841  -0.05741
C    -0.87943  -1.53063   0.23958
C    -1.05772  -2.37464   1.53540
C    -2.33239  -3.15374   1.65629
O    -0.18662  -2.39567   2.37823
C    -0.49132  -2.55446  -0.85753
C    -1.15343  -2.43345  -2.19116
O     0.35687  -3.38733  -0.59797
C     0.21569  -0.43759   0.42439
C     1.19792  -0.19965  -0.76339
O     0.38756   0.55416  -1.68437
C     0.09312   1.63873  -0.80418
C     1.48769   1.99469  -0.31975
F     1.81070   3.20235   0.09596
C     2.19540   0.85970  -0.29440
C     3.53841   0.58320   0.26241
F     3.46265  -0.16213   1.38931
F     4.30812  -0.11383  -0.59780
F     4.20079   1.70864   0.57372
C    -0.59013   0.89254   0.39340
H    -5.56120   2.29431   0.28823
H    -6.21618   1.08651  -0.87846
H    -5.15058   2.42109  -1.45549
H    -3.16501  -2.45239   1.82454
H    -2.26433  -3.85414   2.49841
H    -2.55460  -3.69212   0.72188
H    -1.01971  -1.40918  -2.57249
H    -2.23733  -2.59270  -2.07949
H    -0.72876  -3.16623  -2.88894
H     0.76371  -0.62258   1.35209
H     1.62992  -1.08509  -1.23823
H    -0.49011   2.43107  -1.28269
H    -0.57037   1.49369   1.31187
