16
Generated by autodE on: 2022-05-31. E = -743.987479 Ha
F     0.04633   2.15840   0.87933
C    -0.47086   1.12221   0.25085
C     0.11365   0.02673  -0.24053
C     1.51356  -0.43357  -0.17895
F     1.98628  -0.79652  -1.39074
F     1.63930  -1.52380   0.61303
F     2.34102   0.50821   0.30566
C    -1.09145  -0.83020  -0.70932
C    -1.85099  -1.29362   0.55569
C    -2.41074  -0.18550   1.04856
C    -1.98949   0.93593   0.06900
O    -1.97205   0.21315  -1.17199
H    -0.88047  -1.57463  -1.48379
H    -1.85041  -2.31033   0.94618
H    -2.99335  -0.03412   1.95606
H    -2.59206   1.84931   0.03169
