38
Generated by autodE on: 2022-05-31. E = -1410.163238 Ha. Imaginary frequency = -305.4 cm-1
C    -5.02008   2.25599   0.21683
O    -4.01473   1.23424   0.38827
C    -3.37913   0.83911  -0.70134
O    -3.53813   1.24765  -1.83013
C    -2.33669  -0.13892  -0.37175
N    -2.04073  -1.29465  -0.45355
C    -1.17331  -2.25179  -0.13456
C    -1.22895  -2.79481   1.24259
C    -2.28805  -2.23081   2.15920
O    -0.44798  -3.66098   1.62091
C    -0.34437  -2.81947  -1.21962
C    -0.68891  -2.39919  -2.62571
O     0.59756  -3.56776  -0.98067
C     0.34975  -0.22733   0.83770
C     1.36330  -0.09021  -0.31268
O     0.52105   0.45638  -1.34707
C     0.03076   1.55951  -0.57450
C     1.37996   2.16862  -0.15172
F     1.53447   3.45607   0.07889
C     2.23334   1.15247   0.00710
C     3.59665   1.11136   0.57052
F     3.62244   0.42487   1.73616
F     4.47052   0.49013  -0.24938
F     4.08601   2.33829   0.81839
C    -0.52418   0.80990   0.66379
H    -5.40716   2.45992   1.22066
H    -5.82139   1.88904  -0.43908
H    -4.56523   3.15843  -0.21452
H    -2.12375  -1.15459   2.32750
H    -2.24372  -2.75949   3.11937
H    -3.29073  -2.33927   1.71706
H    -0.54306  -1.31258  -2.72774
H    -1.74418  -2.61468  -2.85414
H    -0.03411  -2.92577  -3.33146
H     0.51016  -0.84348   1.71925
H     1.89683  -0.98823  -0.63944
H    -0.64805   2.21017  -1.13561
H    -1.17878   1.26281   1.40777
