31
Generated by autodE on: 2022-05-28. E = -730.048956 Ha
C     3.97764   1.21984   0.37461
O     2.94516   0.38038  -0.16671
C     1.87926   0.15850   0.60533
O     1.74290   0.62407   1.71539
C     0.88261  -0.77586  -0.09452
C     1.50962  -2.17101  -0.21746
C     0.42219  -0.21112  -1.41496
C    -0.90399  -0.04890  -1.42608
C    -1.77572   0.42576  -2.53847
C    -1.46503  -0.48685  -0.07607
C    -2.40685  -1.68623  -0.18091
C    -2.18854   0.71261   0.56926
C    -1.41464   1.57320   1.52048
O    -3.34344   0.95103   0.25639
O    -0.30831  -0.84489   0.69101
H     4.75280   1.28124  -0.39771
H     3.58025   2.22072   0.59600
H     4.38893   0.77668   1.29287
H     2.42265  -2.13576  -0.82782
H     1.76360  -2.55906   0.78081
H     0.78603  -2.84877  -0.69262
H     1.10714  -0.01512  -2.23971
H    -2.49782  -0.35573  -2.82831
H    -1.17746   0.69085  -3.42137
H    -2.36662   1.30540  -2.23639
H    -2.68535  -2.03020   0.82669
H    -1.90383  -2.50666  -0.71227
H    -3.32211  -1.41340  -0.72222
H    -1.08652   0.97801   2.38561
H    -0.49856   1.93843   1.03173
H    -2.03598   2.41686   1.84720
