41
Generated by autodE on: 2022-10-21. E = -1283.931611 Ha
C     1.88766   3.93358   0.78647
N     1.14355   2.92422   0.06776
C     1.63632   1.72625  -0.28555
O     2.78708   1.34695  -0.04432
C     0.63559   0.82568  -1.03227
C    -0.32183   0.03552  -0.14883
C    -1.58533   0.21933  -0.62177
C    -2.94096  -0.21944  -0.14486
C    -3.36979  -1.63197  -0.58574
C    -2.92950  -2.76127   0.34391
C    -1.42083  -2.87403   0.57626
C    -0.81472  -1.83921   1.54836
C     0.14586  -0.82176   0.95437
Cl    1.58824  -2.01033   0.13549
O     0.80086  -0.03661   1.86936
C     1.43554  -0.62554   2.99967
N    -1.57272   1.00197  -1.76453
N    -0.27860   1.61458  -1.88022
C     0.15335   1.69961  -3.26537
H     1.43143   4.14448   1.76744
H     1.93018   4.87549   0.21721
H     2.91080   3.57222   0.94766
H     0.21119   3.13034  -0.28153
H     1.25933   0.13034  -1.62831
H    -3.66411   0.50726  -0.54592
H    -2.99674  -0.13305   0.94963
H    -4.46935  -1.64770  -0.65552
H    -2.99232  -1.81435  -1.60637
H    -3.28976  -3.71243  -0.08252
H    -3.44018  -2.64954   1.31727
H    -0.89439  -2.82503  -0.38870
H    -1.20773  -3.87639   0.97737
H    -0.27556  -2.36468   2.34556
H    -1.60129  -1.25581   2.05546
H     0.70550  -0.93527   3.76325
H     2.08852   0.15072   3.42007
H     2.04526  -1.48863   2.69288
H    -2.31653   1.70029  -1.81104
H    -0.56082   2.30287  -3.84498
H     0.24940   0.70367  -3.74087
H     1.13069   2.20308  -3.29767
