17
Generated by autodE on: 2022-10-21. E = -397.474988 Ha
C    -2.77639  -0.31086   0.64372
N    -1.35788  -0.07543   0.49888
C    -0.70026  -0.41585  -0.63062
O    -1.27325  -0.94868  -1.60540
C     0.73502  -0.14267  -0.69506
N     1.47086   0.42224   0.26453
C     2.91484   0.60879  -0.00963
N     1.00883   0.81627   1.41543
H    -3.02304  -1.38098   0.54271
H    -3.09604   0.02854   1.63716
H    -3.35986   0.23422  -0.11726
H    -0.79019   0.35753   1.23568
H     1.25056  -0.42535  -1.60827
H     3.47921   0.05841   0.75471
H     3.13942   1.68079   0.06827
H     3.16505   0.23900  -1.00836
H     1.79282   1.20929   1.94164
