47
Generated by autodE on: 2022-06-19. E = -923.824392 Ha
C    -4.03266   1.02219  -2.52448
O    -3.16443   0.50731  -1.49957
C    -2.55426   1.39749  -0.73519
O    -2.69400   2.59862  -0.83238
C    -1.57504   0.75641   0.26924
C    -1.49569   1.69649   1.42237
N    -1.44648   2.34716   2.38242
C    -0.15814   0.61457  -0.38656
C     0.13646  -0.90014  -0.39339
C    -0.35755  -1.51697  -1.71882
C     1.59605  -1.24503  -0.25027
C     2.64866  -0.40733  -0.31483
C     4.03085  -0.84962  -0.20524
C     5.14149  -0.07537  -0.24431
C     6.51057  -0.68330  -0.11382
C     5.13025   1.41838  -0.41443
C    -0.71240  -1.40522   0.83350
C     0.01221  -1.12766   2.16428
C    -1.05897  -2.89262   0.76762
N    -1.93069  -0.58200   0.67153
C    -3.02701  -0.71543   1.60758
H    -3.46149   1.64390  -3.22837
H    -4.44482   0.14527  -3.03573
H    -4.83860   1.61845  -2.07444
H    -0.13860   1.05031  -1.39352
H     0.56736   1.16474   0.22251
H     0.15130  -1.02301  -2.56045
H    -0.12865  -2.59081  -1.77403
H    -1.44007  -1.38082  -1.84323
H     1.79442  -2.31730  -0.12632
H     2.47366   0.66260  -0.45713
H     4.17048  -1.92959  -0.07353
H     6.47043  -1.77586   0.00770
H     7.04884  -0.25598   0.75136
H     7.12814  -0.45369  -1.00081
H     5.70415   1.70622  -1.31309
H     5.63531   1.90452   0.43901
H     4.12272   1.84524  -0.50203
H    -0.67405  -1.29050   3.00924
H     0.39722  -0.10003   2.23083
H     0.86488  -1.81005   2.29099
H    -1.54822  -3.22118   1.69693
H    -0.13968  -3.48665   0.65542
H    -1.72830  -3.12265  -0.07184
H    -3.90297  -0.16623   1.22738
H    -3.31555  -1.77145   1.69840
H    -2.80378  -0.33083   2.62268
