24
Generated by autodE on: 2022-07-27. E = -572.271994 Ha
C    -2.98063  -2.11072   0.82956
O    -1.94250  -1.56458   0.01710
C    -1.21547  -0.54927   0.56498
O    -1.46097  -0.10888   1.68995
C    -0.18245  -0.08911  -0.30660
C     0.06294  -0.65849  -1.56129
N     0.29278  -1.12192  -2.61443
N     0.62090   1.02033   0.10889
C    -0.08341   2.27122   0.45064
C     1.93150   0.98233   0.08768
C     2.65084  -0.29239  -0.16062
C     2.71878   2.22746   0.31424
H    -3.73349  -1.34738   1.07906
H    -2.57610  -2.53139   1.76308
H    -3.44483  -2.90782   0.23539
H    -1.14234   2.04701   0.59315
H     0.03079   2.99086  -0.37273
H     0.32517   2.70096   1.37315
H     2.80675  -0.43598  -1.24513
H     2.07428  -1.15464   0.20360
H     3.64048  -0.25515   0.31412
H     2.70151   2.48444   1.38843
H     2.30043   3.08476  -0.23276
H     3.76343   2.07666   0.01718
