24
Generated by autodE on: 2022-06-19. E = -572.272470 Ha
C     3.00191   1.15989  -1.51137
O     2.23087   0.71526  -0.39603
C     0.95886   0.30203  -0.66577
O     0.49353   0.34698  -1.80614
C     0.28630  -0.16884   0.50377
C     0.94124  -0.31819   1.73404
N     1.47852  -0.44952   2.76830
N    -1.04879  -0.66157   0.38614
C    -1.26480  -2.06614   0.77436
C    -2.00753   0.05062  -0.15532
C    -1.84359   1.50367  -0.40181
C    -3.30836  -0.58174  -0.52017
H     3.13043   0.35635  -2.25293
H     3.98018   1.45055  -1.10830
H     2.52985   2.02531  -2.00100
H    -0.55736  -2.31318   1.57387
H    -2.28485  -2.21780   1.14209
H    -1.07087  -2.72045  -0.08795
H    -1.07775   1.94287   0.25213
H    -2.81317   2.00332  -0.26219
H    -1.52734   1.66597  -1.44577
H    -3.18538  -1.59674  -0.92085
H    -3.95125  -0.64502   0.37595
H    -3.82931   0.04205  -1.25761
