47
Generated by autodE on: 2022-06-19. E = -923.755991 Ha. Imaginary frequency = -433.5 cm-1
C    -5.07897  -1.63528  -0.72302
O    -3.82629  -1.26534  -1.31237
C    -3.19231  -0.21151  -0.76994
O    -3.66368   0.43805   0.14815
C    -1.84686  -0.04106  -1.35202
C    -1.60709  -0.76754  -2.55997
N    -1.42950  -1.36230  -3.54768
C    -0.80900  -1.25070   0.18239
C     0.10652  -0.34882   0.77771
C    -0.42188   0.51895   1.90251
C     1.51930  -0.72602   0.81017
C     2.46504  -0.22019   1.64258
C     3.85115  -0.64933   1.61886
C     4.86611  -0.21259   2.40554
C     6.25739  -0.76182   2.24966
C     4.71662   0.83192   3.47685
C     0.19901   1.10507  -0.93536
C     1.04735   0.29535  -1.88701
C     0.89135   2.33481  -0.43540
N    -1.15679   1.16225  -1.13589
C    -1.89402   2.39137  -0.80356
H    -5.42039  -2.52005  -1.27290
H    -4.94885  -1.87766   0.34178
H    -5.81081  -0.82093  -0.82521
H    -1.74772  -1.46573   0.69533
H    -0.42826  -2.07203  -0.43083
H    -0.34660  -0.01427   2.86701
H     0.13726   1.45827   2.01348
H    -1.47910   0.76694   1.73910
H     1.82483  -1.49938   0.09735
H     2.17735   0.54209   2.37128
H     4.09061  -1.41598   0.87094
H     6.31766  -1.52099   1.45550
H     6.61070  -1.21794   3.19255
H     6.97681   0.04374   2.01420
H     5.38986   1.68562   3.28013
H     3.69437   1.22122   3.57194
H     5.01998   0.42529   4.45836
H     0.98989   0.76710  -2.88412
H     0.74526  -0.74955  -1.99168
H     2.09407   0.32204  -1.56253
H     1.84720   2.03115   0.01672
H     1.13010   3.01157  -1.27550
H     0.31475   2.89568   0.30824
H    -2.89673   2.33646  -1.23490
H    -1.98101   2.55735   0.27829
H    -1.37798   3.24530  -1.25989
