30
Generated by autodE on: 2022-05-28. E = -920.371475 Ha
C     3.70037   1.82469  -1.26845
O     2.62668   1.19480  -0.55731
C     2.66938  -0.14431  -0.46087
O     3.56271  -0.82433  -0.93572
C     1.51313  -0.65779   0.26750
C     1.06016  -1.92311   0.32845
F     1.55975  -3.01555  -0.20982
C    -0.29420  -1.88667   1.00774
O    -0.10458  -0.79335   1.90716
C     0.39407   0.14551   0.93025
C    -0.79119   0.21440  -0.07165
C    -2.00742   1.00428   0.44893
C    -2.47650   2.11679  -0.48810
C    -3.88377   2.61132  -0.32427
O    -1.70881   2.59931  -1.30319
N    -3.07887   0.04968   0.76833
C    -2.67553  -1.12884   0.48815
C    -1.27889  -1.26454  -0.04525
H     3.48801   2.89977  -1.24603
H     3.73768   1.46635  -2.30748
H     4.66210   1.61689  -0.77704
H    -0.62862  -2.79940   1.51259
H     0.68201   1.09135   1.39946
H    -0.46371   0.57428  -1.05224
H    -1.75759   1.54920   1.37918
H    -4.03106   3.52809  -0.91010
H    -4.11349   2.78818   0.73762
H    -4.58107   1.83283  -0.67339
H    -3.32321  -2.00047   0.64545
H    -1.24408  -1.80983  -0.99881
