56
Generated by autodE on: 2022-10-23. E = -1841.778680 Ha
C    -7.34379  10.11120  -0.30452
N    -7.78417   9.06747  -1.21223
C    -8.01842   9.32614  -2.50062
O    -8.04004  10.45154  -3.00208
C    -8.29137   8.11923  -3.38749
N    -8.45808   6.83805  -2.76363
C    -8.89448   6.18333  -4.01227
C    -9.37793   4.82204  -3.84226
N    -9.89279   3.80851  -3.61549
C   -10.03667   7.17350  -4.45693
O   -11.06007   6.94689  -5.03946
O    -9.63335   8.37527  -4.02563
C    -7.70068   6.54500  -4.95337
C    -7.33728   7.78541  -4.57170
C    -6.39148   8.86872  -5.07069
C    -7.29345  10.00755  -5.60556
O    -8.33599   9.76460  -6.17530
O    -6.76925  11.21672  -5.50013
C    -7.55762  12.30475  -6.00870
C    -5.44852   9.22526  -3.90934
O    -5.37938   8.54971  -2.90134
O    -4.66130  10.25827  -4.15326
C    -3.70882  10.60243  -3.13183
C    -5.48379   8.54044  -6.29433
C    -4.33615   7.56505  -6.04423
C    -4.77363   6.14691  -5.67370
C    -5.86956   5.64339  -6.61927
C    -7.26502   5.50521  -5.98424
O    -7.31085   4.30889  -5.22173
C    -7.37329   3.03566  -5.85193
C    -8.32054   5.50849  -7.12842
F    -7.96887   4.71159  -8.14658
F    -8.47605   6.74739  -7.62226
F    -9.52465   5.09213  -6.69726
H    -6.28620  10.36790  -0.48509
H    -7.95112  11.01417  -0.44831
H    -7.45616   9.76056   0.72848
H    -7.63121   8.10050  -0.94007
H    -9.23103   6.87041  -2.08862
H    -6.96452  13.20965  -5.83540
H    -7.75022  12.17159  -7.08248
H    -8.51108  12.36166  -5.46450
H    -3.14343  11.45367  -3.52662
H    -3.03960   9.75372  -2.93362
H    -4.23405  10.88579  -2.20845
H    -6.14111   8.19577  -7.10266
H    -5.06177   9.49944  -6.62380
H    -3.65119   7.96660  -5.28049
H    -3.75488   7.52206  -6.98034
H    -3.90003   5.48144  -5.73185
H    -5.11516   6.10541  -4.62853
H    -5.92378   6.27808  -7.51298
H    -5.62453   4.64247  -6.99604
H    -6.57700   2.89821  -6.60029
H    -8.35353   2.85943  -6.32221
H    -7.23239   2.30025  -5.04884
