17
Generated by autodE on: 2022-10-23. E = -621.856144 Ha
C    -2.85690   1.07410   1.46587
N    -3.00113   0.12618   0.36763
C    -2.05149  -0.45354  -0.37751
O    -2.27145  -1.25014  -1.29615
C    -0.62178  -0.13333  -0.10300
N     0.34446  -0.66965  -0.81014
C     1.57337  -0.21060  -0.36204
C     2.81269  -0.57592  -0.90056
N     3.85798  -0.86510  -1.33281
C     1.32418   0.68329   0.71442
O     1.98476   1.36176   1.46511
O    -0.12599   0.67648   0.81791
H    -3.86371   1.32504   1.81909
H    -2.29076   0.64238   2.30290
H    -2.36028   1.99883   1.14086
H    -3.94544  -0.15075   0.10693
H     0.17126  -1.32707  -1.57388
