39
Generated by autodE on: 2022-10-23. E = -1219.874436 Ha
C    -1.77722  -2.07985   3.37001
O    -1.04343  -1.48133   2.28526
C     0.06373  -2.09635   1.90085
O     0.49749  -3.11340   2.39813
C     0.75196  -1.42503   0.69907
C     2.26017  -1.44666   1.00869
O     3.08547  -2.06741   0.38129
O     2.52822  -0.68829   2.06766
C     3.90053  -0.62354   2.49425
C     0.26601  -0.07620   0.43697
C    -0.36307   0.82260  -0.07439
C    -1.26316   1.46045  -1.04347
O    -2.28658   2.24618  -0.46908
C    -1.92508   3.21330   0.51170
C    -0.44254   2.34206  -2.02099
F    -1.25070   2.99123  -2.86863
F     0.42164   1.62085  -2.75401
F     0.28223   3.26812  -1.36612
C    -1.98783   0.31167  -1.80289
C    -1.18127  -0.93620  -2.21207
C    -0.98026  -2.06915  -1.16560
C     0.43447  -2.25916  -0.58457
H    -2.09531  -3.09530   3.09567
H    -2.64808  -1.43535   3.53198
H    -1.15201  -2.11690   4.27289
H     4.25683  -1.62482   2.77492
H     3.91351   0.04421   3.36278
H     4.52949  -0.21822   1.68923
H    -2.84816   3.47118   1.04887
H    -1.50687   4.12710   0.06073
H    -1.19732   2.80044   1.23124
H    -2.80887   0.01683  -1.13284
H    -2.45384   0.76330  -2.69202
H    -0.20795  -0.64145  -2.63035
H    -1.73893  -1.37185  -3.05502
H    -1.22508  -3.01784  -1.66641
H    -1.71615  -1.97070  -0.35070
H     0.60470  -3.31449  -0.32581
H     1.18896  -1.98964  -1.33754
