33
Generated by autodE on: 2022-10-26. E = -840.329767 Ha
C     2.31696  -1.32751   3.97588
O     1.65204  -1.09634   2.72815
C     1.61372   0.16951   2.29331
O     2.13522   1.10063   2.90211
C     0.91616   0.32651   1.01678
N     0.98924   1.59645   0.56919
N     0.51497   2.26949  -0.42891
C    -0.54885   1.74930  -1.17177
C    -1.68422   1.14882  -0.58766
C    -2.72635   0.69233  -1.39161
C    -2.66252   0.82373  -2.78428
C    -1.55579   1.45189  -3.36586
C    -0.51474   1.92564  -2.56757
C     0.33012  -0.78462   0.25568
C     0.64814  -0.96117  -1.10426
C     0.03724  -1.96816  -1.85099
C    -0.89418  -2.82159  -1.25070
C    -1.19767  -2.67183   0.10690
C    -0.59114  -1.66298   0.85517
H     2.22583  -2.40244   4.17070
H     3.37732  -1.04362   3.90777
H     1.83788  -0.75412   4.78285
H     1.60548   2.15967   1.17364
H    -1.74659   1.04341   0.49539
H    -3.59547   0.22206  -0.92547
H    -3.47581   0.44942  -3.40987
H    -1.50156   1.57281  -4.45048
H     0.35505   2.41289  -3.01276
H     1.37245  -0.29825  -1.57931
H     0.28698  -2.08445  -2.90803
H    -1.37930  -3.60455  -1.83817
H    -1.92163  -3.33738   0.58282
H    -0.84943  -1.53248   1.90702
