33
Generated by autodE on: 2022-10-22. E = -840.334076 Ha
C    -3.36084   3.24635   0.28825
O    -2.78565   1.93584   0.21333
C    -1.45206   1.86721   0.15890
O    -0.73295   2.86421   0.14963
C    -0.92755   0.50081   0.08421
N     0.40460   0.49679  -0.07119
N     1.19039  -0.51783  -0.18343
C     2.55533  -0.24564  -0.24826
C     3.16400   1.00523   0.00361
C     4.54800   1.14401  -0.09672
C     5.35657   0.05281  -0.43604
C     4.76253  -1.19288  -0.67174
C     3.38117  -1.34242  -0.57659
C    -1.73092  -0.72679   0.15033
C    -1.46303  -1.81799  -0.70124
C    -2.24030  -2.97502  -0.64030
C    -3.29193  -3.07367   0.27621
C    -3.56243  -2.00089   1.13205
C    -2.79274  -0.83932   1.07134
H    -3.09802   3.83485  -0.60280
H    -3.01107   3.77199   1.18860
H    -4.44548   3.09542   0.33563
H     0.78205   1.46155  -0.09019
H     2.57580   1.87705   0.29842
H     5.00143   2.11791   0.10336
H     6.43977   0.17166  -0.50830
H     5.38139  -2.05503  -0.93182
H     2.90775  -2.30919  -0.75899
H    -0.64580  -1.75363  -1.41810
H    -2.02218  -3.80603  -1.31535
H    -3.89617  -3.98257   0.32489
H    -4.37665  -2.07002   1.85734
H    -3.00782  -0.01291   1.74857
