26
Generated by autodE on: 2022-10-22. E = -710.551232 Ha
C    -0.33122  -4.11475  -1.00262
O     0.35515  -3.01344  -0.40239
C     0.09318  -1.75751  -0.91598
F     0.67888  -1.66528  -2.19313
C     0.71572  -0.73134  -0.06736
C     0.83153   0.33775   0.48386
C     0.42853   1.67311   0.93916
C     1.53368   2.65134   0.90519
N     2.38680   3.43253   0.84534
C    -0.08962   1.59305   2.32210
N    -0.53354   1.52749   3.39003
C    -0.72383   2.14144  -0.03754
C    -1.84116   1.10569  -0.25382
C    -1.68297   0.08356  -1.41434
C    -1.39210  -1.38914  -1.06246
H     0.16587  -5.02119  -0.63328
H    -0.25249  -4.08461  -2.10018
H    -1.39157  -4.14266  -0.70701
H    -1.13076   3.07016   0.38741
H    -0.23459   2.39311  -0.98978
H    -2.05455   0.58101   0.69274
H    -2.74291   1.69967  -0.46322
H    -0.92958   0.44037  -2.13555
H    -2.63422   0.07747  -1.96615
H    -1.79613  -2.03396  -1.85682
H    -1.89325  -1.66839  -0.12240
