47
Generated by autodE on: 2022-06-18. E = -795.384886 Ha
C     2.86071   1.12970   3.27005
C     1.65801   1.10747   2.67591
C     0.38740   0.92304   3.46295
C     1.53123   1.25673   1.17642
C     0.81441   2.55136   0.71577
N    -0.24624   2.12409  -0.19468
C    -0.68809   3.15212  -1.11029
C     0.14784   0.82997  -0.78305
C     1.21673   0.98349  -1.87954
C    -1.06262   0.04121  -1.27370
C    -2.31727   0.21247  -0.66561
C    -3.40711  -0.58539  -1.01971
C    -3.26573  -1.58095  -1.99242
C    -2.02551  -1.75834  -2.61056
C    -0.93780  -0.95263  -2.25704
C     0.72077   0.12913   0.49501
C     1.48849  -1.13311   0.26908
C     1.02857  -2.39246   0.40071
C    -0.37427  -2.74797   0.81570
C     1.91354  -3.57526   0.10908
H     3.77994   1.24397   2.68690
H     2.96531   1.03390   4.35549
H    -0.04408  -0.07604   3.28168
H     0.56403   1.02270   4.54371
H    -0.38261   1.65363   3.16512
H     2.54621   1.25222   0.75323
H     0.39000   3.12645   1.55608
H     1.54459   3.22124   0.21737
H    -1.48284   2.76614  -1.76674
H     0.12285   3.55570  -1.75340
H    -1.10552   4.00132  -0.54451
H     0.78465   1.41734  -2.79322
H     2.02947   1.64323  -1.54203
H     1.66910   0.01951  -2.14715
H    -2.42805   0.98118   0.09907
H    -4.37252  -0.43084  -0.53085
H    -4.11594  -2.20963  -2.26797
H    -1.89873  -2.53037  -3.37373
H     0.02023  -1.11944  -2.74871
H    -0.16015  -0.08078   1.11262
H     2.52845  -1.00464  -0.05433
H    -0.97310  -1.87942   1.11747
H    -0.90401  -3.24465  -0.01607
H    -0.35806  -3.47003   1.65044
H     2.92301  -3.27030  -0.20464
H     2.00551  -4.22700   0.99609
H     1.47650  -4.20198  -0.68871
