24
Generated by autodE on: 2022-06-18. E = -443.787628 Ha
C    -3.30528  -0.53275   0.31433
N    -2.08233  -0.01339   0.10387
C    -2.06698   1.45565  -0.06882
C    -0.94397  -0.74342  -0.03815
C    -1.13466  -2.22394  -0.07941
C     0.39265  -0.15760  -0.03788
C     1.41778  -0.74160  -0.82840
C     2.71511  -0.23441  -0.83715
C     3.05286   0.87943  -0.05730
C     2.06559   1.46219   0.74403
C     0.76735   0.95088   0.76514
H    -3.42812  -1.59317   0.50713
H    -4.15583   0.14336   0.29781
H    -1.20329   1.76048  -0.66545
H    -2.04323   1.95777   0.90636
H    -2.98473   1.74338  -0.59482
H    -1.53259  -2.61193   0.88097
H    -0.19224  -2.74814  -0.27512
H    -1.87490  -2.51775  -0.85062
H     1.18017  -1.59657  -1.46466
H     3.47066  -0.70794  -1.46989
H     4.06976   1.27827  -0.06705
H     2.31220   2.31639   1.38051
H     0.04197   1.39827   1.44438
