47
Generated by autodE on: 2022-06-18. E = -795.304135 Ha. Imaginary frequency = -305.5 cm-1
C    -0.02587   1.49966   3.21706
C     1.20010   1.64821   2.67028
C     2.16782   2.66422   3.22622
C     1.71645   0.84132   1.54521
C     1.36313   2.49772  -0.01222
N     0.18781   2.00694  -0.47642
C    -1.01644   2.71704  -0.01370
C     0.13000   0.77090  -1.06723
C     1.27757   0.39668  -1.96890
C    -1.14430   0.06202  -1.26266
C    -2.12962  -0.04386  -0.25034
C    -3.27342  -0.81953  -0.42538
C    -3.47899  -1.53154  -1.61320
C    -2.52054  -1.44399  -2.62696
C    -1.37621  -0.66363  -2.45536
C     1.05993  -0.26962   1.00595
C     1.77564  -1.37431   0.40049
C     1.29776  -2.60137   0.07037
C    -0.12390  -3.04220   0.29643
C     2.18338  -3.62956  -0.57966
H    -0.73549   0.74820   2.86102
H    -0.35586   2.14285   4.03765
H     2.53928   3.33530   2.43429
H     3.05492   2.16007   3.64805
H     1.71307   3.27664   4.01845
H     2.80416   0.88047   1.42319
H     1.31899   3.47971   0.45658
H     2.27957   2.24602  -0.53555
H    -0.80347   3.79259  -0.03230
H    -1.85506   2.51481  -0.68755
H    -1.28689   2.43070   1.00872
H     1.21019   0.93050  -2.93661
H     2.25623   0.62398  -1.53386
H     1.27152  -0.67902  -2.17647
H    -1.97734   0.44646   0.70940
H    -4.00269  -0.88703   0.38595
H    -4.37121  -2.14833  -1.74327
H    -2.66313  -1.98776  -3.56439
H    -0.65216  -0.61419  -3.26871
H     0.02946  -0.45326   1.30924
H     2.83289  -1.17994   0.17860
H    -0.65370  -3.18104  -0.66351
H    -0.70851  -2.32990   0.89274
H    -0.15063  -4.02219   0.80649
H     1.77661  -3.94238  -1.55959
H     2.24672  -4.55133   0.02849
H     3.20557  -3.25390  -0.74011
