53
Generated by autodE on: 2022-10-22. E = -1346.221214 Ha
C     5.20756  -9.49535  16.29246
O     4.36545  -8.53834  16.95657
C     3.05705  -8.65251  16.76354
O     2.54461  -9.52269  16.09552
C     2.28051  -7.62082  17.58617
C     2.90748  -6.17674  17.66530
C     3.93998  -5.72794  16.67408
O     2.51197  -5.44971  18.55113
N     2.26939  -8.15569  18.95294
C     1.03119  -8.26543  19.28878
C     0.67365  -8.78174  20.66609
C     0.93635  -7.84979  21.80519
O     0.23501  -9.91092  20.79030
C     0.06907  -7.85438  18.23760
C     0.82317  -7.47792  17.17738
C     0.41405  -6.79997  15.88184
O    -0.64948  -7.45034  15.22381
C    -0.43412  -8.80785  14.85528
O     1.57851  -6.85539  15.07485
C     1.53279  -6.18210  13.82662
C    -0.02254  -5.32940  16.13757
C    -0.63311  -4.95853  17.49447
C    -2.04019  -5.47044  17.81914
C    -2.30797  -6.97005  17.67912
C    -1.42563  -7.92470  18.47356
C    -1.91223  -9.36278  18.32291
F    -1.58163  -7.57534  19.85306
H     6.23566  -9.22500  16.55753
H     4.97579 -10.51172  16.64078
H     5.06378  -9.43576  15.20444
H     3.85998  -4.63840  16.55900
H     4.93133  -5.96060  17.09623
H     3.85332  -6.23071  15.70649
H     2.01170  -7.60947  21.83345
H     0.61918  -8.30085  22.75455
H     0.40154  -6.90368  21.62476
H    -0.15492  -9.42686  15.72100
H    -1.38481  -9.17096  14.44246
H     0.35235  -8.89785  14.08974
H     1.62091  -5.08965  13.94477
H     2.39072  -6.54422  13.24374
H     0.60575  -6.41231  13.27835
H    -0.70578  -5.05456  15.31867
H     0.88557  -4.72120  16.01794
H    -0.67254  -3.85721  17.52516
H     0.06454  -5.24305  18.29462
H    -2.76578  -4.95680  17.16559
H    -2.28160  -5.15699  18.84808
H    -3.34062  -7.17209  18.00514
H    -2.24451  -7.26791  16.62771
H    -2.95474  -9.43403  18.66689
H    -1.29109 -10.05348  18.90712
H    -1.86830  -9.65665  17.26523
