22
Generated by autodE on: 2022-10-22. E = -666.179805 Ha
C    -2.88009  -1.23366  -1.82317
O    -1.69502  -0.79342  -1.14880
C    -1.86279   0.11006  -0.16603
O    -2.95498   0.54844   0.15498
C    -0.58861   0.48467   0.44915
N     0.51564  -0.08398  -0.01468
C     1.55042  -0.51871  -0.33842
C     2.79656  -1.10056  -0.80654
C     4.02377  -0.66799  -0.06948
O     2.75518  -1.89141  -1.73519
C    -0.37879   1.43922   1.54836
C    -1.57217   2.13486   2.14419
O     0.76274   1.65145   1.95932
H    -3.57145  -1.71707  -1.11750
H    -3.38807  -0.38705  -2.30780
H    -2.54614  -1.95507  -2.57802
H     4.91271  -0.96216  -0.64331
H     4.01188   0.41804   0.10951
H     4.03878  -1.16702   0.91472
H    -2.28647   1.40174   2.54768
H    -1.22490   2.80341   2.94270
H    -2.11009   2.70938   1.37550
