53
Generated by autodE on: 2022-10-22. E = -1346.101023 Ha. Imaginary frequency = -264.4 cm-1
C     4.53395  -9.34625  15.14234
O     4.26153  -8.40645  16.19009
C     3.36249  -8.77296  17.09980
O     2.85486  -9.88185  17.13904
C     3.03386  -7.71308  18.08306
C     3.52709  -6.31386  18.10198
C     3.08514  -5.47096  19.27348
O     4.22471  -5.85574  17.20625
N     2.34730  -8.13530  19.12913
C     1.31806  -8.30891  19.70731
C     0.77957  -8.85081  20.97764
C     0.81236  -7.90832  22.13686
O     0.36840  -9.99416  20.99165
C    -0.11349  -7.43652  18.15101
C     0.55451  -7.17537  17.14608
C     0.62677  -6.76164  15.72084
O    -0.10745  -7.69665  14.94093
C     0.35882  -9.04018  14.96818
O     1.97908  -6.74651  15.33330
C     2.26534  -6.37152  13.99582
C    -0.07607  -5.39671  15.52246
C    -1.15901  -5.02491  16.54495
C    -2.29050  -6.05247  16.80974
C    -2.41119  -6.49281  18.27820
C    -1.46776  -7.62720  18.72240
C    -1.97900  -9.01647  18.36387
F    -1.42301  -7.56294  20.13975
H     5.28159  -8.86811  14.49919
H     4.93103 -10.28457  15.55537
H     3.61951  -9.55637  14.56880
H     1.98548  -5.41082  19.30518
H     3.41560  -5.91453  20.22570
H     3.50637  -4.46368  19.16695
H     0.20731  -8.31393  22.95853
H     1.85980  -7.79328  22.46405
H     0.44604  -6.91771  21.83159
H     0.42372  -9.42789  15.99725
H     1.34656  -9.13614  14.49055
H    -0.37225  -9.63577  14.40478
H     2.08177  -5.29854  13.81868
H     3.33392  -6.57564  13.84162
H     1.67871  -6.95871  13.27121
H    -0.48807  -5.40402  14.50181
H     0.70388  -4.62146  15.55682
H    -1.60392  -4.07788  16.20010
H    -0.66320  -4.78265  17.49738
H    -3.25367  -5.60539  16.52088
H    -2.17027  -6.93723  16.16644
H    -2.20942  -5.63307  18.93664
H    -3.43696  -6.82962  18.49570
H    -2.95253  -9.18387  18.84868
H    -2.10188  -9.10192  17.27464
H    -1.26865  -9.78421  18.70146
