30
Generated by autodE on: 2022-07-05. E = -3650.793078 Ha
C    -2.87911   2.16039  -1.04016
C    -1.69970   2.06636  -1.95702
O    -1.75869   2.27688  -3.15135
C    -0.33286   1.70974  -1.30611
C     0.33490   3.08349  -0.98046
C     0.96123   3.83185  -2.11761
O     0.31283   3.50651   0.15754
C    -0.44491   0.92726  -0.08325
C    -0.18192   0.07730   0.74023
C     0.54552  -1.04270   1.27492
Cl    0.82986  -0.88964   3.06202
Br   -0.53789  -2.71326   0.97972
C     1.89202  -1.15972   0.54043
C     1.83183  -1.10025  -0.99854
C     1.84211   0.28905  -1.69673
C     0.51978   0.83476  -2.27607
H    -3.12981   1.15175  -0.67209
H    -3.74049   2.58713  -1.56934
H    -2.62139   2.76607  -0.15679
H     1.92155   3.35335  -2.37180
H     0.33087   3.79313  -3.01708
H     1.14705   4.86993  -1.81387
H     2.51511  -0.33228   0.91709
H     2.36654  -2.09582   0.86944
H     2.73015  -1.63669  -1.33909
H     0.97990  -1.69915  -1.36054
H     2.52769   0.20303  -2.55314
H     2.30209   1.03877  -1.03070
H    -0.11598  -0.00200  -2.60425
H     0.72307   1.43474  -3.17203
