34
Generated by autodE on: 2022-07-05. E = -936.431409 Ha
C     4.73418   0.16057  -0.95319
O     3.33898   0.06333  -0.65182
C     2.90327  -1.14187  -0.22206
O     3.64463  -2.11384  -0.09762
C     1.49464  -1.17031   0.06661
C     0.90382  -2.31778   0.60875
N     0.45684  -3.29577   1.07291
O     0.83294   0.01840  -0.07873
C    -0.40748   0.36463   0.01568
C    -0.63164   1.79991   0.01270
C     0.45587   2.68680   0.19376
C     0.24674   4.06054   0.17551
C    -1.04258   4.57471  -0.02029
C    -2.12370   3.70645  -0.20511
C    -1.92553   2.32798  -0.19192
C    -1.48841  -0.62468   0.07644
C    -1.56058  -1.63395  -0.90305
C    -2.61232  -2.54682  -0.88188
C    -3.58218  -2.47731   0.12416
C    -3.51003  -1.48088   1.10344
C    -2.47619  -0.54624   1.07513
H     5.01167  -0.53950  -1.75520
H     5.34436  -0.05156  -0.06259
H     4.90046   1.19299  -1.28349
H     1.45627   2.28285   0.35138
H     1.08984   4.73915   0.32030
H    -1.20293   5.65511  -0.03033
H    -3.12647   4.10631  -0.36822
H    -2.76857   1.65852  -0.36111
H    -0.80094  -1.68907  -1.68515
H    -2.67327  -3.31974  -1.65069
H    -4.39850  -3.20285   0.14464
H    -4.26457  -1.42968   1.89110
H    -2.41647   0.23388   1.83559
