57
Generated by autodE on: 2022-06-12. E = -1610.880128 Ha
C     0.18481  -2.43326  -0.53995
N     0.32902  -1.03058  -0.20776
C     1.12199  -0.27037  -1.16503
C     2.57855  -0.68406  -1.19840
C     3.30316  -0.57441  -2.39272
C     4.66493  -0.88831  -2.43426
C     5.31820  -1.32556  -1.27779
C     4.60053  -1.44416  -0.08251
C     3.24138  -1.12295  -0.04254
C     0.89023   1.21222  -0.78135
C     1.91358   1.81249   0.22939
O     1.47576   1.26572   1.47789
C     0.13858   1.78784   1.42200
C     0.40063   3.27316   1.15901
C    -0.52478   4.37610   1.49236
F    -0.04658   5.57623   1.12432
F    -0.78665   4.43696   2.81497
F    -1.72376   4.21895   0.88126
C     1.50583   3.26473   0.40572
F     2.11367   4.25776  -0.21665
C    -0.40786   1.20662   0.08176
C    -0.90000  -0.27275   0.10667
C    -1.96504  -0.51813  -0.98351
C    -2.01060   0.24665  -2.16064
C    -2.90411  -0.06524  -3.19123
C    -3.77178  -1.15246  -3.06877
C    -3.73369  -1.92761  -1.90550
C    -2.83936  -1.61343  -0.88027
C    -1.43363  -0.61214   1.49713
C    -0.65669  -1.30701   2.43095
C    -1.12272  -1.51453   3.73418
C    -2.36834  -1.01812   4.12524
C    -3.14687  -0.31157   3.20107
C    -2.68304  -0.11379   1.89951
H    -0.44975  -2.94019   0.19961
H    -0.25612  -2.60351  -1.54330
H     1.17163  -2.91944  -0.52151
H     0.72469  -0.40053  -2.19337
H     2.79138  -0.24038  -3.29948
H     5.21567  -0.79708  -3.37373
H     6.38120  -1.57669  -1.30836
H     5.10327  -1.78791   0.82499
H     2.68102  -1.20658   0.88946
H     0.82823   1.83661  -1.68056
H     2.97319   1.62253   0.03588
H    -0.42263   1.55513   2.33018
H    -1.19972   1.86071  -0.29345
H    -1.35148   1.10465  -2.29128
H    -2.91994   0.55117  -4.09340
H    -4.47210  -1.39420  -3.87179
H    -4.40474  -2.78287  -1.79365
H    -2.82385  -2.23125   0.01851
H     0.32527  -1.67539   2.13511
H    -0.50352  -2.06391   4.44773
H    -2.73119  -1.17707   5.14354
H    -4.12021   0.08805   3.49628
H    -3.29587   0.44340   1.18785
