41
Generated by autodE on: 2022-06-12. E = -866.790553 Ha
C    -0.29453  -2.08575   2.36358
N     0.14238  -1.01579   1.43997
C     1.37804  -0.53110   1.68956
C     2.23650   0.20182   0.80200
C     3.33186   0.89991   1.37555
C     4.24404   1.59490   0.58662
C     4.10522   1.61444  -0.80763
C     3.04082   0.91844  -1.39505
C     2.11236   0.23612  -0.61288
C    -0.73005  -0.54535   0.48783
C    -1.65766  -1.48393  -0.14495
C    -1.27770  -2.81739  -0.42656
C    -2.16899  -3.71492  -1.01561
C    -3.46180  -3.30777  -1.36088
C    -3.85139  -1.98586  -1.10570
C    -2.96843  -1.09018  -0.50708
C    -0.70187   0.86541   0.09578
C    -1.00453   1.25431  -1.22817
C    -1.01714   2.59853  -1.60806
C    -0.71583   3.59884  -0.68119
C    -0.39967   3.23176   0.63561
C    -0.38315   1.89364   1.01437
H    -1.37621  -2.22866   2.28804
H     0.22786  -3.02675   2.14851
H    -0.04528  -1.77007   3.38619
H     1.74408  -0.71840   2.70040
H     3.45145   0.88906   2.46207
H     5.07044   2.12957   1.06193
H     4.81596   2.16515  -1.42791
H     2.92533   0.91610  -2.48203
H     1.29941  -0.29857  -1.10081
H    -0.26195  -3.14511  -0.19872
H    -1.84418  -4.73811  -1.22166
H    -4.15732  -4.00906  -1.82755
H    -4.85974  -1.65399  -1.36629
H    -3.29589  -0.07027  -0.29780
H    -1.22568   0.48729  -1.97204
H    -1.25370   2.86190  -2.64219
H    -0.71796   4.65030  -0.97723
H    -0.16308   4.00167   1.37454
H    -0.12085   1.63589   2.04196
