16
Generated by autodE on: 2022-06-12. E = -743.987482 Ha
F     0.05329   2.02664  -1.14904
C    -0.40291   1.13857  -0.28902
C     0.16823   0.03650   0.20325
C     1.46321  -0.60038  -0.10202
F     1.29197  -1.78881  -0.72631
F     2.18002  -0.86400   1.01169
F     2.23240   0.16127  -0.89870
C    -0.97307  -0.60422   1.03653
C    -2.05000  -1.10003   0.04347
C    -2.59617   0.01109  -0.45793
C    -1.84774   1.16812   0.24572
O    -1.61247   0.58658   1.53777
H    -0.66183  -1.28179   1.83812
H    -2.24219  -2.14448  -0.19822
H    -3.35725   0.13676  -1.22657
H    -2.33052   2.14969   0.29237
