32
Generated by autodE on: 2022-05-29. E = -1332.327880 Ha
C    -4.10168  -1.47068  -1.57100
N    -2.88165  -1.11146  -0.87249
C    -2.11854  -0.08660  -1.28174
O    -2.41480   0.63012  -2.24580
C    -0.86299   0.18970  -0.52058
C    -0.00465  -0.64611   0.08298
Cl   -0.13887  -2.34484   0.32862
C     1.23388   0.09689   0.59427
C     1.19211   0.15412   2.07346
N     1.12471   0.25063   3.22719
C     2.53887  -0.65602   0.18801
O     2.99085  -1.53368   0.92134
N     3.02092  -0.27929  -0.99564
C     4.19749  -0.86012  -1.60856
N     1.08766   1.40013  -0.04950
C    -0.30483   1.59210  -0.45096
C    -1.07442   2.49675   0.53556
C    -2.54619   2.67651   0.32462
O    -0.46278   3.03863   1.43803
H    -4.80543  -0.62424  -1.59221
H    -4.57160  -2.31249  -1.04924
H    -3.89281  -1.76557  -2.61145
H    -2.58920  -1.66731  -0.07628
H     2.55411   0.51690  -1.42648
H     3.99046  -1.12222  -2.65634
H     4.47490  -1.76845  -1.06013
H     5.04674  -0.15874  -1.58528
H     1.39189   2.15768   0.56306
H    -0.37954   2.07757  -1.43935
H    -3.06365   1.77028   0.68474
H    -2.90495   3.53907   0.90105
H    -2.78729   2.78424  -0.74182
