21
Generated by autodE on: 2022-07-26. E = -587.122720 Ha
C     2.64914  -0.66075  -2.38624
N     1.63424  -0.27887  -1.42075
C     1.53277  -0.92336  -0.23731
O     2.26337  -1.87782   0.06306
C     0.52046  -0.45659   0.73807
C     0.71928  -0.85383   2.08220
N     0.87962  -1.17394   3.19316
N    -0.59112   0.26282   0.47855
C    -1.17775   0.72179  -0.61411
C    -2.42202   1.45492  -0.39140
C    -3.13916   1.96105  -1.60762
O    -2.83662   1.63137   0.75862
H     2.46969  -0.11565  -3.32109
H     3.66631  -0.43046  -2.02739
H     2.59561  -1.74004  -2.58658
H     1.20014   0.63158  -1.53163
H    -1.15303   0.51888   1.31071
H    -0.77969   0.52658  -1.60573
H    -4.04898   2.50066  -1.31569
H    -2.47495   2.62599  -2.18380
H    -3.39811   1.11654  -2.26742
