21
Generated by autodE on: 2022-05-29. E = -587.131201 Ha
C    -4.07517   0.78524   0.77891
N    -2.94710   0.05578   0.23587
C    -1.66904   0.44588   0.38975
O    -1.31836   1.46502   1.01141
C    -0.62442  -0.40120  -0.22270
C    -0.85937  -1.57958  -0.95061
N    -1.06829  -2.55871  -1.55360
N     0.63130   0.05241  -0.01886
C     1.80440  -0.41164  -0.39540
C     3.05065   0.25460  -0.03839
C     3.00084   1.51439   0.79153
O     4.11520  -0.23213  -0.42369
H    -4.74746   1.12574  -0.02423
H    -4.65378   0.15423   1.47146
H    -3.70455   1.66057   1.32406
H    -3.13873  -0.79193  -0.28999
H     0.58919   0.92276   0.54217
H     1.84257  -1.32624  -0.98982
H     2.42356   2.30089   0.27819
H     2.51425   1.32517   1.76268
H     4.02422   1.87078   0.96270
