19
Generated by autodE on: 2022-06-16. E = -456.687318 Ha
C    -3.08275  -0.14942  -0.10016
N    -1.70161   0.20672  -0.33925
C    -0.70044  -0.68011  -0.43351
O    -0.84135  -1.90689  -0.35372
C     0.67977  -0.07532  -0.70940
C     1.78250  -0.71461   0.16710
C     2.13429   0.42642   1.13394
O     1.09744   1.40690   0.96365
N     0.71858   1.36018  -0.41530
H    -3.42538   0.21237   0.88287
H    -3.73886   0.28044  -0.87286
H    -3.17728  -1.24190  -0.12404
H    -1.42440   1.18473  -0.38658
H     0.87291  -0.21872  -1.78335
H     1.40016  -1.60415   0.68328
H     2.65138  -1.01151  -0.43414
H     2.12697   0.13280   2.19292
H     3.11410   0.87561   0.88973
H     1.50375   1.76897  -0.93491
