13
Generated by autodE on: 2022-06-16. E = -378.019240 Ha
C    -1.77374  -1.52464  -0.79253
N    -0.68584  -0.60672  -0.53541
C    -0.32317  -0.21573   0.70158
O    -0.86681  -0.58962   1.75221
C     0.81314   0.73058   0.78405
N     1.48337   1.20993  -0.23087
O     1.31780   0.98254  -1.46986
H    -2.21607  -1.83426   0.16151
H    -1.41568  -2.41979  -1.32536
H    -2.55414  -1.04891  -1.40767
H    -0.13986  -0.21062  -1.30446
H     1.13180   1.06615   1.76993
H     2.25005   1.86070   0.01378
