22
Generated by autodE on: 2022-10-21. E = -574.825619 Ha
C    -1.58409  -2.21809  -1.58136
O    -0.36719  -1.60655  -1.12060
C    -0.43065  -0.62583  -0.24180
C     0.59932   0.07910   0.31260
C     2.02608   0.02579   0.10782
C     2.58483  -1.08133  -0.75520
O     2.77296   0.87054   0.62317
C    -0.12394   1.15469   1.14936
C    -0.82263   2.12378   0.17195
C    -1.81884   1.41702  -0.37138
C    -1.72617   0.03287   0.30620
O    -1.26452   0.39441   1.61306
H    -1.28226  -2.95713  -2.33237
H    -2.24339  -1.46863  -2.04259
H    -2.09927  -2.72125  -0.75038
H     3.68226  -1.04120  -0.74113
H     2.22677  -0.96802  -1.79157
H     2.23905  -2.06665  -0.40661
H     0.45038   1.58940   1.97329
H    -0.49261   3.13890  -0.04713
H    -2.52371   1.68212  -1.15807
H    -2.62832  -0.58528   0.33392
