16
Generated by autodE on: 2022-10-21. E = -472.208552 Ha
N     4.81901   0.61440   0.37715
C     3.71943   0.20686   0.35323
C     2.45008  -0.26160   0.32466
N     1.34441  -0.67881   0.30588
N     0.23893  -1.21717   0.31029
C    -0.91220  -0.46084   0.00985
C    -2.14038  -1.14068   0.03152
C    -3.31824  -0.45272  -0.25770
C    -3.28314   0.91138  -0.56942
C    -2.05653   1.58548  -0.58900
C    -0.87057   0.90964  -0.30142
H    -2.15280  -2.20438   0.27590
H    -4.27118  -0.98659  -0.23965
H    -4.20737   1.44727  -0.79598
H    -2.02070   2.65036  -0.83084
H     0.08316   1.44122  -0.31759
