36
Generated by autodE on: 2022-10-06. E = -1249.065519 Ha
C     3.10648  -1.94548   2.20711
N     2.25611  -0.88777   1.70244
C     1.81752  -0.87135   0.43473
O     2.22373  -1.62570  -0.44676
C     0.76717   0.26544   0.14821
C     1.65478   1.50720   0.04510
O     1.81740   2.35575   0.89610
O     2.39720   1.42476  -1.06381
C     3.28656   2.51736  -1.32217
C    -0.00461  -0.05044  -1.14566
C    -0.45911   1.21472  -1.91969
O    -0.96033   1.00855  -3.05045
O    -0.26397   2.33926  -1.38659
C    -1.15956  -0.97986  -0.67349
C    -2.54359  -0.63836  -1.28265
O    -3.10939   0.39813  -0.84785
O    -2.98072  -1.42463  -2.15353
C    -1.11112  -0.84336   0.91169
C    -0.55869  -2.10742   1.46748
N    -0.16019  -3.10848   1.89562
C    -2.43611  -0.72720   1.55447
N    -3.43557  -0.75185   2.14109
N    -0.21679   0.28719   1.25033
C    -0.93963   1.53726   1.53646
H     2.53442  -2.87718   2.35975
H     3.54173  -1.63531   3.16557
H     3.91714  -2.14978   1.49459
H     1.72749  -0.32317   2.36186
H     3.82070   2.26111  -2.24434
H     3.99709   2.64658  -0.49343
H     2.70994   3.44341  -1.46306
H     0.63857  -0.61396  -1.82983
H    -0.92866  -2.01910  -0.93098
H    -1.50271   1.40566   2.47039
H    -0.20999   2.33305   1.69725
H    -1.63210   1.83178   0.73609
