10
Generated by autodE on: 2022-10-06. E = -455.046471 Ha
O    -2.04774  -0.25885  -1.18857
C    -1.57819  -0.12438  -0.02846
O    -1.82264  -0.84916   0.96984
C    -0.71410   1.10171   0.20293
C     0.62737   1.17966   0.21547
C     1.58907   0.03234   0.01053
O     1.12992  -1.08662  -0.35368
O     2.80895   0.28831   0.22274
H    -1.28781   2.02409   0.37016
H     1.10446   2.14764   0.40820
