36
Generated by autodE on: 2022-10-06. E = -1249.004420 Ha. Imaginary frequency = -303.5 cm-1
C     3.12177  -2.11006   2.14625
N     2.27657  -0.99132   1.77565
C     1.78469  -0.87637   0.52814
O     2.13528  -1.60103  -0.39812
C     0.81808   0.32183   0.38742
C     1.62648   1.57236   0.14895
O     1.65334   2.56605   0.84621
O     2.44167   1.37795  -0.88830
C     3.24960   2.49411  -1.28351
C    -0.10875  -0.11717  -1.50931
C    -0.36325   1.24397  -2.16780
O    -0.58863   1.16711  -3.40194
O    -0.26067   2.30556  -1.49958
C    -1.12207  -1.00816  -1.17394
C    -2.59607  -0.68993  -1.18969
O    -2.95020   0.52071  -1.26821
O    -3.37848  -1.67767  -1.11988
C    -1.01714  -0.80097   1.36548
C    -0.46851  -2.10814   1.43604
N    -0.11176  -3.21677   1.51013
C    -2.35256  -0.71758   1.83410
N    -3.46475  -0.70883   2.18544
N    -0.26549   0.35528   1.21708
C    -1.04038   1.59814   1.42285
H     2.56937  -3.06081   2.06182
H     3.45208  -1.97678   3.18328
H     4.00335  -2.16319   1.49107
H     1.90097  -0.39615   2.50759
H     3.84891   2.14590  -2.13222
H     3.90218   2.81377  -0.45897
H     2.60181   3.32806  -1.59033
H     0.82773  -0.58048  -1.83090
H    -0.87733  -2.06958  -1.09214
H    -1.49174   1.55807   2.42140
H    -0.37513   2.45626   1.36451
H    -1.81935   1.66147   0.65372
