20
Generated by autodE on: 2022-06-17. E = -457.715325 Ha
C    -3.10952  -0.61990  -0.22765
N    -1.81869   0.04857  -0.20480
C    -1.76374   1.44632  -0.27391
C    -0.61105   2.13051  -0.20271
C     0.73372   1.46563  -0.04230
C     0.57285  -0.04290   0.05194
C     1.73625  -0.92524   0.23510
N     2.94573  -0.31263   0.29370
O     1.65009  -2.16612   0.33768
C    -0.65262  -0.63412  -0.03086
H    -3.68103  -0.33266  -1.12423
H    -3.70981  -0.36519   0.66187
H    -2.95434  -1.70579  -0.24607
H    -2.73052   1.93911  -0.39217
H    -0.64890   3.22035  -0.26720
H     1.25022   1.86500   0.85435
H     1.39763   1.74150  -0.88749
H     3.77417  -0.88518   0.41275
H     3.05898   0.68832   0.19627
H    -0.74110  -1.71933   0.03985
