32
Generated by autodE on: 2022-06-17. E = -814.628064 Ha. Imaginary frequency = -472.3 cm-1
C     3.77059   1.21440  -0.47316
N     2.54253   0.71376   0.11333
C     2.28365  -0.60853   0.12960
O     3.06982  -1.46919  -0.28682
C     0.92327  -0.99955   0.62570
N     0.44347  -0.38043   1.74946
N    -0.42703   0.33088   2.03101
C    -1.32959   0.58542   0.03955
C    -0.92526   2.00138   0.08597
N    -1.85910   2.89550   0.46943
O     0.23904   2.37852  -0.18414
C    -2.74822   0.17278   0.39226
C    -2.93109  -1.31403   0.22944
C    -2.14460  -2.02447  -0.59715
N    -1.08054  -1.44976  -1.29559
C    -0.18603  -2.31437  -2.04404
C    -0.52924  -0.27621  -0.76137
H     3.80852   1.04569  -1.56340
H     3.84274   2.29292  -0.28280
H     4.64351   0.71753  -0.02559
H     1.73799   1.35644   0.15935
H     0.78550  -2.08402   0.68087
H    -2.81927   2.63467   0.65615
H    -1.59703   3.87298   0.54082
H    -2.99311   0.48458   1.42260
H    -3.47316   0.71225  -0.25502
H    -3.76082  -1.80898   0.73720
H    -2.30254  -3.08942  -0.78176
H    -0.76831  -3.07553  -2.58040
H     0.37110  -1.72010  -2.78260
H     0.55072  -2.82641  -1.39740
H     0.21913   0.19163  -1.40235
