33
Generated by autodE on: 2022-10-07. E = -1101.435373 Ha
C     2.35479  -1.03278   2.58269
N     1.75889  -0.98995   1.26370
C     1.93482   0.02926   0.41919
O     2.77131   0.92831   0.52525
C     0.94450   0.04193  -0.78792
C     1.79289  -0.00247  -1.99372
N     2.57372  -0.13433  -2.84240
O     0.10431  -1.10008  -0.78398
C    -1.20807  -0.78076  -0.25674
C    -2.21073  -0.93705  -1.40552
C    -1.53100  -1.82131   0.83863
C    -2.96809  -1.95388   1.26390
O    -0.68555  -2.63897   1.18309
C    -1.08074   0.67255   0.25947
C    -0.74053   0.79221   1.77058
O    -0.08181   1.78944   2.14291
O    -1.19025  -0.11803   2.51823
C     0.01069   1.26531  -0.64720
C    -0.57378   1.86092  -1.95104
O    -1.34596   2.83530  -1.77606
O    -0.25612   1.34639  -3.05311
H     2.80870  -2.01648   2.77422
H     1.58552  -0.84565   3.34991
H     3.13077  -0.26139   2.65769
H     0.99210  -1.64124   1.06384
H    -1.88389  -0.32582  -2.25592
H    -3.21878  -0.62347  -1.10445
H    -2.24879  -1.98693  -1.73415
H    -3.49681  -0.99285   1.25178
H    -3.00802  -2.39759   2.26706
H    -3.47684  -2.63750   0.56296
H    -2.02271   1.21941   0.11312
H     0.51772   2.07699  -0.11360
