10
Generated by autodE on: 2022-10-07. E = -455.051696 Ha
O    -2.37822  -0.74326  -0.57120
C    -1.95383   0.27991   0.03315
O    -2.66794   1.20216   0.51700
C    -0.45792   0.44090   0.21184
C     0.45792  -0.44086  -0.21188
C     1.95382  -0.27990  -0.03316
O     2.37824   0.74337   0.57101
O     2.66792  -1.20231  -0.51676
H    -0.12583   1.34688   0.73039
H     0.12583  -1.34685  -0.73043
