41
Generated by autodE on: 2022-06-19. E = -1048.694691 Ha
C    -3.67524   0.97710   0.83702
C    -2.66458  -0.12894   0.81754
O    -2.86746  -1.22858   1.29233
C    -1.31524   0.16869   0.12695
C    -1.41238  -0.43106  -1.29114
C    -1.38079   0.51770  -2.44991
O    -1.55302  -1.63250  -1.41610
O    -1.10503   1.57667   0.04736
C    -0.00186   1.97738   0.87145
C     0.56280   3.28760   0.34004
C    -0.50349   2.20649   2.25450
N    -0.91425   2.38487   3.32463
C     0.93217   0.74934   0.85857
C     1.77261   0.67870  -0.42548
C     2.13033  -0.73937  -0.78815
C     3.19049  -1.05064  -1.75835
N     3.82386   0.00676  -2.32683
O     3.51036  -2.21622  -2.06892
C     1.45327  -1.78843  -0.24104
N     0.43694  -1.68426   0.65064
C    -0.21376  -2.87316   1.17843
C    -0.09488  -0.39188   0.97959
H    -3.79927   1.40142  -0.17136
H    -3.31517   1.79284   1.48400
H    -4.63067   0.59499   1.21834
H    -0.44107   1.08878  -2.46025
H    -2.19464   1.25307  -2.34758
H    -1.49349  -0.04741  -3.38367
H     0.87227   3.16602  -0.70487
H    -0.20593   4.07121   0.39292
H     1.42830   3.59538   0.94343
H     1.58808   0.74531   1.73894
H     1.23631   1.15603  -1.26130
H     2.67892   1.28330  -0.26720
H     3.58636   0.96780  -2.11789
H     4.55293  -0.17559  -3.00752
H     1.73991  -2.80695  -0.50799
H     0.45272  -3.73493   1.04360
H    -0.41042  -2.74740   2.25395
H    -1.16936  -3.07158   0.67283
H    -0.44927  -0.44437   2.01767
