21
Generated by autodE on: 2022-06-19. E = -590.885630 Ha
C    -0.49986   1.50486  -2.32271
C     0.17052   0.89883  -1.11696
O     1.38949   1.06611  -0.92848
C    -0.62827   0.18891  -0.15036
O    -0.00480  -0.15375   1.03082
C     1.20571  -0.54200   1.20376
C     1.73793  -0.55152   2.58171
C     1.97854  -1.09384   0.13836
N     2.62131  -1.68824  -0.62892
C    -2.07288   0.09749  -0.06780
C    -2.66149  -0.43332   1.22087
O    -2.80190   0.41146  -1.01580
H    -0.93693   0.71354  -2.95017
H    -1.32442   2.17075  -2.03157
H     0.25615   2.05936  -2.89419
H     2.48245   0.25978   2.68036
H     0.92343  -0.37860   3.29711
H     2.25868  -1.49888   2.78959
H    -2.33236  -1.46903   1.40151
H    -2.32880   0.16704   2.08218
H    -3.75606  -0.40419   1.14686
