21
Generated by autodE on: 2022-07-27. E = -590.877747 Ha
C    -2.06821   0.09670   1.00891
C    -1.28859  -0.69007  -0.02702
O    -1.75669  -1.75308  -0.44863
C    -0.09760  -0.11422  -0.63324
O     0.58455   0.90935  -0.03993
C     0.83494   1.10394   1.20617
C     1.41899   2.39975   1.60676
C     0.61232   0.07128   2.16163
N     0.53764  -0.76571   2.96822
C     0.37364  -0.31801  -2.00235
C    -0.30488  -1.34639  -2.86845
O     1.32216   0.34725  -2.43033
H    -3.10963   0.12086   0.65382
H    -1.72488   1.12876   1.16715
H    -2.05935  -0.43394   1.97322
H     2.20899   2.25445   2.35854
H     1.80672   2.91513   0.71772
H     0.63313   3.02647   2.06741
H     0.13744  -1.29672  -3.87241
H    -1.39010  -1.17472  -2.92245
H    -0.16585  -2.35376  -2.44884
