20
Generated by autodE on: 2022-06-19. E = -457.715316 Ha
C    -2.91664   0.98465   0.79653
N    -1.78923   0.19335   0.33206
C    -1.99272  -1.14019  -0.04385
C    -0.99330  -1.94042  -0.44747
C     0.44285  -1.48604  -0.53442
C     0.56683  -0.03373  -0.10231
C     1.86830   0.65275  -0.09553
N     2.93498  -0.09072  -0.48344
O     2.01635   1.84562   0.23995
C    -0.52054   0.68782   0.29149
H    -2.58201   2.00912   1.00143
H    -3.34564   0.56397   1.72107
H    -3.71048   1.02172   0.03346
H    -3.02819  -1.48026   0.01473
H    -1.23233  -2.96883  -0.72782
H     1.08724  -2.14118   0.08722
H     0.82410  -1.62525  -1.56692
H     3.85222   0.34160  -0.49152
H     2.85403  -1.06098  -0.75872
H    -0.40187   1.72861   0.59718
