41
Generated by autodE on: 2022-06-19. E = -1048.611103 Ha. Imaginary frequency = -166.6 cm-1
C    -3.03309   0.21313   1.00974
C    -2.07112  -0.24160  -0.06359
O    -2.16126  -1.40484  -0.49251
C    -1.11145   0.66841  -0.64086
C    -0.59899   0.60402  -2.00145
C    -1.06092  -0.49152  -2.93496
O     0.18841   1.47152  -2.41598
O    -0.66714   1.80361  -0.02566
C    -0.30981   2.20396   1.16045
C     0.53276   3.43825   1.16512
C    -0.98697   1.88377   2.37729
N    -1.43243   1.72243   3.44207
C     1.43700   0.45760   1.51930
C     1.99900   0.28651   0.13427
C     1.55415  -1.02499  -0.47747
C     1.97350  -1.42231  -1.84442
N     2.67929  -0.50493  -2.54287
O     1.70975  -2.53863  -2.32406
C     0.82657  -1.93176   0.22333
N     0.40005  -1.71339   1.51068
C    -0.51405  -2.66664   2.13871
C     0.70431  -0.53167   2.12147
H    -3.12684   1.30372   1.08517
H    -2.73558  -0.19224   1.98763
H    -4.01422  -0.21757   0.75966
H    -0.61541  -1.45826  -2.66472
H    -2.15189  -0.62138  -2.90450
H    -0.74079  -0.22230  -3.95083
H     1.30925   3.35246   0.39047
H     0.99527   3.59056   2.14880
H    -0.09208   4.31904   0.93466
H     1.83710   1.24536   2.15692
H     1.69868   1.13515  -0.51304
H     3.10409   0.34046   0.16968
H     2.71874   0.46477  -2.25142
H     2.88816  -0.71105  -3.51491
H     0.54186  -2.88542  -0.21852
H    -0.15881  -3.68986   1.95620
H    -0.54022  -2.48481   3.21986
H    -1.52680  -2.56141   1.72395
H     0.34347  -0.42801   3.14491
