48
Generated by autodE on: 2022-06-10. E = -1851.394303 Ha
C    -3.19481  -0.74098  -3.46150
O    -2.22267  -0.93123  -2.41693
C    -1.09673  -0.23941  -2.51318
O    -0.79204   0.48307  -3.43320
C    -0.17384  -0.55188  -1.35742
N     0.68054  -1.48992  -1.57887
C     1.47776  -1.63965  -0.37351
C     2.96412  -1.24981  -0.75084
C     3.20141   0.19656  -1.06997
O     3.83410  -2.08628  -0.76744
C     1.32160  -3.12302   0.06233
C     1.85003  -4.18140  -0.85669
O     0.73811  -3.38471   1.09296
C     0.92749  -0.64559   0.61398
C    -0.07469   0.04851   0.00758
C    -0.84060   1.27682   0.50921
C    -2.33779   1.21311   0.09171
F    -3.09514   2.05931   0.79618
F    -2.52914   1.52899  -1.20456
F    -2.82322  -0.02070   0.28370
C    -0.17380   2.51782  -0.15736
F    -0.02313   2.37157  -1.48169
F     1.04699   2.72377   0.35201
F    -0.89571   3.62941   0.04383
C    -0.79441   1.53044   2.04267
C    -1.45027   0.50784   2.97374
C    -0.88282  -0.91128   2.95598
C     0.62857  -1.02194   3.15649
C     1.52715  -0.57585   2.00118
F     2.03941   0.68834   2.21936
F     2.65254  -1.37477   1.99845
H    -2.77841  -1.05389  -4.42909
H    -3.49299   0.31557  -3.50939
H    -4.05063  -1.36875  -3.19060
H     2.37979   0.63477  -1.65245
H     3.26835   0.75497  -0.12191
H     4.15233   0.29504  -1.60920
H     2.88188  -4.41338  -0.54968
H     1.23748  -5.08652  -0.74383
H     1.87667  -3.85043  -1.90143
H     0.24957   1.67465   2.32349
H    -1.27958   2.50074   2.20770
H    -2.53493   0.46142   2.79514
H    -1.32965   0.91880   3.98947
H    -1.35809  -1.47300   3.77481
H    -1.16799  -1.43718   2.03270
H     0.88241  -2.07532   3.32639
H     0.95709  -0.45373   4.04140
