22
Generated by autodE on: 2022-06-10. E = -666.175268 Ha
C     4.65626  -0.35812  -0.02481
O     3.27315   0.05595  -0.05748
C     2.37124  -0.89538   0.10411
O     2.56474  -2.07888   0.27857
C     1.02632  -0.36083   0.04762
N    -0.10559  -0.08034   0.01944
C    -1.36795   0.33348  -0.02625
C    -1.52081   1.78525  -0.22575
C    -2.90625   2.36675  -0.28906
O    -0.52110   2.49613  -0.33605
C    -2.41696  -0.67989   0.11821
C    -1.96333  -2.10988   0.30199
O    -3.61171  -0.38707   0.08881
H     5.23952   0.55655  -0.17325
H     4.88832  -0.81325   0.94791
H     4.85079  -1.07768  -0.83195
H    -2.82295   3.45072  -0.44371
H    -3.45740   2.15667   0.63957
H    -3.48333   1.90891  -1.10595
H    -2.84367  -2.75582   0.40940
H    -1.36605  -2.44147  -0.56290
H    -1.32340  -2.20496   1.19391
