26
Generated by autodE on: 2022-06-10. E = -1185.104627 Ha
F    -0.70075  -3.85063  -0.92587
C    -0.74568  -2.56520  -1.38780
F    -0.28211  -2.61692  -2.68007
C     0.11000  -1.66223  -0.60887
C     0.37896  -0.59061  -0.11779
C     0.25089   0.78332   0.35152
C     1.47362   1.62057  -0.10213
F     2.61348   1.18374   0.44838
F     1.33197   2.91190   0.21780
F     1.61828   1.54401  -1.43165
C     0.14068   0.79453   1.89822
F     1.21952   0.25265   2.47805
F     0.00473   2.03914   2.37085
F    -0.92350   0.08910   2.30275
C    -1.04973   1.36799  -0.30776
C    -2.26721   0.43008  -0.43288
C    -2.33323  -0.53766  -1.64787
C    -2.17834  -2.04440  -1.36473
H    -1.32657   2.26013   0.27172
H    -0.76793   1.71563  -1.31144
H    -2.41800  -0.12856   0.50179
H    -3.13059   1.10770  -0.50912
H    -1.61042  -0.23389  -2.42322
H    -3.32373  -0.41586  -2.10965
H    -2.59609  -2.29691  -0.37806
H    -2.72066  -2.63852  -2.11723
