44
Generated by autodE on: 2022-05-30. E = -1493.401926 Ha. Imaginary frequency = -345.8 cm-1
C     2.64928  -0.09861   2.47778
N     1.51678  -0.33683   1.60743
C     1.68264  -0.54440   0.28763
O     2.80529  -0.64090  -0.23542
C     0.45251  -0.61190  -0.55892
C     0.02977   1.53078  -0.37241
C     1.16723   2.39038  -0.71215
O     1.31926   2.84072  -1.82952
O     2.02336   2.48614   0.29459
C     3.30941   3.06651   0.00221
N    -1.13840   1.61719  -0.07435
C    -2.18053   0.90853   0.34121
C    -3.43673   0.86788  -0.47546
C    -2.14591   0.52419   1.76307
C    -3.37445  -0.14237   2.31393
O    -1.14376   0.71561   2.45909
C    -0.74869  -1.27170  -0.26075
Cl   -0.99366  -2.27839   1.16034
C    -1.36223  -1.74627  -1.56512
C    -0.46443  -2.93398  -2.03787
C     0.88290  -2.23232  -2.37661
C     0.58487  -0.72993  -2.08132
C    -0.88603  -0.63935  -2.52457
H     3.40866  -0.88369   2.35138
H     2.30539  -0.10424   3.52010
H     3.12741   0.87421   2.26912
H     0.58802  -0.07980   1.94463
H     3.19161   4.09166  -0.37400
H     3.82949   2.44723  -0.74215
H     3.85766   3.06605   0.95020
H    -4.21629   1.52274  -0.05115
H    -3.24210   1.18591  -1.50743
H    -3.84100  -0.15469  -0.49824
H    -3.64554  -1.01779   1.70472
H    -3.18794  -0.45421   3.34914
H    -4.22878   0.55351   2.28207
H    -2.43648  -1.96486  -1.52248
H    -0.91217  -3.40593  -2.92499
H    -0.36833  -3.70185  -1.25786
H     1.14442  -2.35717  -3.43791
H     1.72541  -2.60088  -1.77669
H     1.29125  -0.02282  -2.53180
H    -1.34348   0.34067  -2.35030
H    -1.02467  -0.91673  -3.57957
