23
Generated by autodE on: 2022-06-18. E = -351.519837 Ha
C     3.59613  -0.96736   0.57879
C     2.54914  -0.20029   0.18331
C     2.76033   1.15793  -0.43620
C     1.18403  -0.68723   0.35309
C     0.07463  -0.02743   0.00488
C    -1.26065  -0.54977   0.19426
C    -2.41854   0.08855  -0.13419
C    -3.75449  -0.54388   0.12913
C    -2.45043   1.46607  -0.75149
H     4.62907  -0.62742   0.46318
H     3.43824  -1.95303   1.02760
H     2.33359   1.20166  -1.45214
H     3.82956   1.40453  -0.49969
H     2.25716   1.94488   0.14988
H     1.08010  -1.67948   0.80761
H     0.16920   0.96466  -0.44507
H    -1.33061  -1.54481   0.64974
H    -4.31931  -0.67129  -0.81204
H    -3.66267  -1.52539   0.61712
H    -4.37584   0.10859   0.76924
H    -1.70044   1.58777  -1.54786
H    -2.24691   2.24456   0.00500
H    -3.43952   1.68355  -1.18139
