18
Generated by autodE on: 2022-07-27. E = -493.588933 Ha
C    -0.28937   1.47315  -2.03409
O    -0.18899   0.61370  -0.89800
C     0.93602  -0.08960  -0.73228
O     1.87500  -0.05105  -1.51972
C     0.93120  -0.91963   0.46002
C     2.11646  -1.80854   0.67951
N    -0.06356  -0.96068   1.35547
C    -1.25383  -0.38538   1.62475
C    -1.93748   0.65033   0.97372
N    -2.63351   1.49351   0.58320
H    -0.19367   0.89691  -2.96603
H     0.49051   2.24854  -2.00241
H    -1.28240   1.93399  -1.97159
H     2.26495  -2.48767  -0.17606
H     3.04082  -1.21618   0.78284
H     1.99578  -2.41769   1.58746
H     0.14237  -1.65023   2.08379
H    -1.73553  -0.77775   2.52083
