57
Generated by autodE on: 2022-06-05. E = -3915.086526 Ha
C     2.07048   3.03747  -2.16947
N     1.93281   2.10599  -1.06488
C     1.02716   1.12645  -1.08296
O     0.28435   0.93681  -2.05547
C     0.83231   0.32558   0.24259
C     2.03724   0.41355   1.16646
C     3.29514  -0.03810   0.73397
C     4.39848   0.01470   1.58659
C     4.26439   0.52715   2.88116
C     3.01936   0.98993   3.31212
C     1.91187   0.93465   2.46022
O    -0.27721   0.94732   0.88767
C    -1.51616   0.49704   0.35358
C    -2.59816   0.71280   1.42069
C    -1.98649   1.44788  -0.77345
O    -2.87840   1.19718  -1.55498
O    -1.43057   2.65211  -0.65639
C    -1.81757   3.63407  -1.62677
C    -1.26439  -1.02366  -0.05335
C    -2.09485  -1.39396  -1.29860
O    -3.22299  -1.88138  -1.14413
N    -1.57285  -1.15758  -2.50667
C    -2.38286  -1.27948  -3.69936
C    -1.65642  -1.98024   1.11738
C    -1.36374  -3.44488   0.71351
C     0.17716  -3.54919   0.84628
C     0.58979  -2.10521   1.19198
C    -0.54786  -1.73089   2.15487
C     0.33601  -1.14613  -0.00852
Br    1.33255  -1.90157  -1.56771
H     2.14420   2.49404  -3.12225
H     2.98147   3.62960  -2.02205
H     1.20598   3.71843  -2.22790
H     2.49444   2.24125  -0.23042
H     3.41526  -0.43747  -0.27316
H     5.36832  -0.34474   1.23530
H     5.12894   0.56973   3.54765
H     2.90401   1.39870   4.31865
H     0.94408   1.29825   2.80131
H    -2.35033   0.21022   2.36045
H    -2.69280   1.78986   1.62003
H    -3.55940   0.33818   1.04545
H    -1.53438   3.29720  -2.63419
H    -1.27289   4.54821  -1.36508
H    -2.90176   3.81143  -1.58785
H    -0.74963  -0.55380  -2.53773
H    -2.85629  -2.27072  -3.74785
H    -1.74348  -1.14966  -4.58224
H    -3.18263  -0.51866  -3.72357
H    -2.68684  -1.82872   1.44746
H    -1.87575  -4.12478   1.40987
H    -1.72259  -3.68607  -0.29445
H     0.46492  -4.19726   1.68676
H     0.66586  -3.93876  -0.05323
H     1.61144  -2.02042   1.57489
H    -0.60688  -2.43033   3.00152
H    -0.49179  -0.71201   2.54636
