33
Generated by autodE on: 2022-07-27. E = -860.421154 Ha
C     1.52425   0.66631  -3.18221
N     1.30743   0.50301  -1.75895
C     0.33092  -0.26328  -1.24474
O    -0.44089  -0.95310  -1.92275
C     0.23210  -0.30374   0.24993
O    -0.95631  -0.38293   0.80239
C    -2.19486  -0.13882   0.38476
C    -3.25818  -0.75919   1.22079
C    -2.52068   0.72949  -0.71911
O    -3.64556   0.80221  -1.21142
O    -1.50857   1.53891  -1.09823
C    -1.72026   2.35522  -2.25140
C     1.33959  -0.52614   1.15696
C     2.62917  -0.88717   0.69567
C     3.66872  -1.10769   1.59656
C     3.45693  -0.98311   2.97411
C     2.18516  -0.63267   3.44514
C     1.14119  -0.40145   2.55483
H     1.34210   1.70906  -3.48645
H     0.83195   0.01152  -3.72353
H     2.55684   0.39845  -3.45509
H     1.86230   1.06314  -1.11885
H    -2.88652  -0.90874   2.24645
H    -4.15860  -0.12915   1.24893
H    -3.56030  -1.75117   0.83421
H    -1.88083   1.72710  -3.14043
H    -2.58591   3.01874  -2.11151
H    -0.80806   2.95075  -2.37450
H     2.81301  -1.01738  -0.37040
H     4.65357  -1.39046   1.21765
H     4.27613  -1.15551   3.67555
H     2.00960  -0.52708   4.51836
H     0.16099  -0.10548   2.93052
