57
Generated by autodE on: 2022-06-05. E = -3914.996258 Ha. Imaginary frequency = -238.1 cm-1
C     2.41449   2.30477  -2.74834
N     2.12099   1.95147  -1.37336
C     0.95157   1.37920  -1.03812
O     0.06292   1.20588  -1.89017
C     0.78314   0.95798   0.38039
C     1.88003   0.84135   1.34697
C     3.13726   0.31877   0.97186
C     4.15099   0.15697   1.91586
C     3.93744   0.50302   3.25390
C     2.69318   1.01313   3.63980
C     1.67692   1.18328   2.70096
O    -0.41159   1.02422   0.95672
C    -1.65166   0.90858   0.51541
C    -2.68786   0.66691   1.56583
C    -2.12720   1.74456  -0.62196
O    -3.07621   1.45682  -1.32512
O    -1.51538   2.93437  -0.64815
C    -1.86805   3.81404  -1.72398
C    -1.06594  -1.47665  -0.21430
C    -2.04407  -1.49040  -1.33470
O    -3.14428  -2.05589  -1.18488
N    -1.68737  -0.91927  -2.50008
C    -2.63655  -0.79970  -3.58567
C    -1.43563  -2.21930   1.07433
C    -1.11902  -3.72293   0.78809
C     0.43419  -3.75171   0.74291
C     0.81184  -2.25689   0.99110
C    -0.26843  -1.86360   2.01160
C     0.32710  -1.50655  -0.24049
Br    1.43264  -1.69180  -1.79687
H     2.30357   1.43083  -3.40809
H     3.44729   2.66843  -2.80631
H     1.73698   3.09364  -3.11309
H     2.81726   2.13632  -0.65976
H     3.31235   0.00204  -0.05591
H     5.11237  -0.25664   1.60263
H     4.73365   0.37490   3.99051
H     2.51407   1.28966   4.68152
H     0.71496   1.59388   3.00952
H    -2.27960   0.09367   2.40536
H    -3.08841   1.62206   1.95280
H    -3.52794   0.11534   1.11897
H    -1.64227   3.33879  -2.68923
H    -1.25455   4.71283  -1.59269
H    -2.93579   4.07230  -1.67985
H    -0.91161  -0.25606  -2.46117
H    -2.99087  -1.79019  -3.90971
H    -2.14383  -0.31015  -4.43589
H    -3.51770  -0.20259  -3.29686
H    -2.45336  -2.04125   1.43332
H    -1.50929  -4.34511   1.60749
H    -1.58763  -4.06339  -0.14499
H     0.85328  -4.37201   1.54891
H     0.83493  -4.12234  -0.21064
H     1.85970  -2.08211   1.25991
H    -0.24246  -2.49902   2.90903
H    -0.23048  -0.81434   2.31480
