26
Generated by autodE on: 2022-10-13. E = -631.508168 Ha
C     3.92803  -0.26273   0.74865
C     2.55066   0.31775   0.84543
O     2.29403   1.30076   1.53575
C     1.45427  -0.33170   0.06275
C     1.69210  -1.46698  -0.86327
N     0.30066   0.28061   0.20401
C    -0.96849   0.09382  -0.27194
C    -1.75135   1.32931  -0.19612
C    -3.17928   1.36224  -0.66795
O    -1.22639   2.34983   0.27880
C    -1.54035  -1.21527  -0.57363
C    -1.02222  -2.43709   0.15952
O    -2.52634  -1.33541  -1.30882
H     3.90997  -1.34241   0.96610
H     4.31257  -0.14825  -0.27846
H     4.59583   0.25385   1.44907
H     0.90344  -1.51917  -1.62686
H     1.72926  -2.43626  -0.34119
H     2.66075  -1.33340  -1.36552
H     0.38260   1.17702   0.72282
H    -3.60309   2.34724  -0.43128
H    -3.77684   0.56803  -0.19712
H    -3.22647   1.18787  -1.75319
H    -0.58001  -3.15254  -0.54999
H    -0.29472  -2.21510   0.94959
H    -1.89984  -2.92720   0.60876
