36
Generated by autodE on: 2022-10-06. E = -1086.536437 Ha. Imaginary frequency = -374.8 cm-1
C     3.73510  -0.73640   1.24780
C     2.31602  -0.42898   1.63422
O     2.05317   0.31173   2.57640
C     1.20970  -1.01140   0.80878
C     1.42283  -2.35037   0.16279
N    -0.01958  -0.61229   1.23593
C    -1.14752  -0.63314   0.45138
C    -2.03041   0.53425   0.73058
C    -3.36774   0.63732   0.05475
O    -1.65751   1.38811   1.53591
C    -1.76371  -1.91047   0.01150
C    -1.54314  -3.14417   0.86203
O    -2.52937  -1.96392  -0.94697
C    -0.05132  -0.00378  -1.49777
C    -1.03413   1.02939  -2.02954
O    -1.03837   2.20537  -1.58585
O    -1.80501   0.58912  -2.93281
C     1.25480   0.20276  -1.01098
C     1.83865   1.51930  -0.53663
O     2.96021   1.82549  -1.03535
O     1.22459   2.17802   0.34270
H     3.95676  -1.79771   1.44647
H     3.89975  -0.55890   0.17511
H     4.41268  -0.10738   1.83885
H     0.66813  -2.56329  -0.60444
H     1.37876  -3.15348   0.91655
H     2.40739  -2.39039  -0.31726
H     0.03209   0.25572   1.78294
H    -3.78153   1.63655   0.24030
H    -4.04540  -0.12213   0.47925
H    -3.29801   0.43808  -1.02131
H    -1.26463  -3.99555   0.22380
H    -0.80699  -3.01097   1.66055
H    -2.51655  -3.38421   1.32190
H    -0.19943  -0.96062  -2.00474
H     2.00593  -0.47276  -1.42943
