39
Generated by autodE on: 2022-10-06. E = -897.637330 Ha
C     2.86353  -1.91569  -1.19989
N     1.67418  -1.40063  -1.88422
C     0.43370  -1.68751  -1.24385
N    -0.05151  -3.01398  -1.54050
N    -0.66253  -0.74470  -1.78989
C    -1.60798  -0.47228  -0.63487
C    -3.03603  -0.86607  -0.94898
C    -1.52285   1.04662  -0.35029
O    -1.17828   1.84803  -1.19217
O    -1.92237   1.32536   0.87068
C    -1.88604   2.71039   1.27189
O    -1.10740  -1.26282   0.40981
C     0.32925  -1.34265   0.26969
C     0.97184  -0.09631   0.85403
C     0.84410   0.05611   2.24599
C     1.30859   1.20442   2.88379
C     1.91905   2.22014   2.13799
C     2.05976   2.07301   0.75741
C     1.58781   0.92224   0.11599
H     2.81743  -2.99748  -0.97469
H     3.03619  -1.37536  -0.25983
H     3.73424  -1.74309  -1.84659
H     1.63514  -1.79602  -2.82488
H    -0.82004  -3.26967  -0.91629
H     0.70197  -3.68204  -1.37362
H    -0.26802   0.14519  -2.13476
H    -1.14076  -1.21080  -2.57232
H    -3.64580  -0.71351  -0.04887
H    -3.43265  -0.24417  -1.76351
H    -3.06652  -1.92610  -1.23891
H    -2.18910   2.72291   2.32392
H    -2.58610   3.29593   0.66014
H    -0.86667   3.10248   1.15862
H     0.63786  -2.22060   0.84936
H     0.36044  -0.73192   2.82813
H     1.19729   1.30857   3.96548
H     2.28436   3.12179   2.63493
H     2.53731   2.85839   0.16737
H     1.70780   0.81844  -0.96128
