26
Generated by autodE on: 2022-10-06. E = -652.317281 Ha
C     3.19921   2.38926  -0.72822
O     2.26447   1.34995  -0.44212
C     2.79191   0.11143  -0.22490
O     4.00797  -0.09540  -0.27087
C     1.81286  -0.89310   0.05395
C     2.10972  -2.31471   0.32697
O     0.54370  -0.47150   0.05848
C    -0.53261  -1.15708   0.27889
C    -1.79767  -0.48524   0.23046
C    -2.97706  -1.22725   0.47123
C    -4.22141  -0.60253   0.43230
C    -4.31512   0.76660   0.15382
C    -3.15068   1.51085  -0.08685
C    -1.90241   0.89887  -0.05063
H     3.77172   2.16851  -1.64239
H     3.90317   2.53187   0.10618
H     2.60664   3.30116  -0.87326
H     1.74406  -2.62272   1.32602
H     1.61769  -2.98191  -0.40749
H     3.19286  -2.48006   0.28236
H    -0.44891  -2.22427   0.49540
H    -2.90155  -2.29553   0.68844
H    -5.12621  -1.18515   0.62029
H    -5.29209   1.25417   0.12377
H    -3.22241   2.57913  -0.30454
H    -0.99484   1.47570  -0.23776
