26
Generated by autodE on: 2022-10-13. E = -652.298438 Ha
C    -1.41216   2.20507   0.90742
O    -1.30895   0.84775   0.48357
C    -1.80228   0.55009  -0.74828
O    -2.39689   1.39709  -1.42991
C    -1.62762  -0.81142  -1.12670
C    -2.41928  -1.44666  -2.21851
O    -1.00873  -1.72321  -0.32588
C     0.01356  -1.69444   0.47277
C     1.07566  -0.74286   0.58996
C     2.02621  -1.00331   1.61207
C     3.15609  -0.20805   1.75549
C     3.38454   0.85187   0.86713
C     2.47099   1.10650  -0.16265
C     1.31587   0.34060  -0.29359
H    -2.46479   2.50638   1.02086
H    -0.92190   2.88007   0.19005
H    -0.90278   2.26080   1.87748
H    -3.13116  -0.72223  -2.63463
H    -2.98318  -2.31707  -1.83782
H    -1.78298  -1.81068  -3.04567
H     0.08962  -2.62595   1.03981
H     1.85879  -1.84462   2.28855
H     3.86811  -0.41489   2.55737
H     4.27208   1.47873   0.97865
H     2.65164   1.92606  -0.86167
H     0.62237   0.56288  -1.10114
