15
Generated by autodE on: 2022-05-29. E = -492.081478 Ha
N     2.82886  -1.43510   0.75768
C     1.79289  -1.02517   0.41827
C     0.52755  -0.56049   0.00585
C     0.13462   0.69762  -0.29698
C     0.88181   1.89299  -0.28508
N     1.47743   2.89384  -0.28575
C    -1.39275   0.56591  -0.59689
C    -2.07210   0.25061   0.74979
C    -1.68405  -0.99206   1.04835
C    -0.77371  -1.41531  -0.12058
O    -1.38720  -0.72508  -1.21333
H    -1.82342   1.34464  -1.23266
H    -2.67748   0.95381   1.31957
H    -1.88150  -1.59645   1.93229
H    -0.62774  -2.48199  -0.31306
