37
Generated by autodE on: 2022-05-29. E = -1005.149013 Ha. Imaginary frequency = -218.1 cm-1
C     4.63528   0.44783  -1.62910
N     3.65122   0.97030  -0.70168
C     2.88306   0.15449   0.05014
O     3.13681  -1.04977   0.18843
C     1.77813   0.81300   0.81708
C     1.88410   0.69690   2.30761
N     1.06014   1.82953   0.30901
C     0.56490   2.04111  -0.94153
C    -0.42927   3.15370  -1.12659
C     1.17672   1.50199  -2.09433
N     1.60175   1.08933  -3.10368
C    -0.67429  -0.20701  -0.81583
C    -1.95113   0.33169  -0.15404
O    -1.47502   0.64606   1.15968
C    -0.89002  -0.63418   1.42795
C    -2.14200  -1.53053   1.19290
C    -2.42124  -2.75194   1.83842
N    -2.62927  -3.75476   2.39391
C    -2.81766  -0.91701   0.19120
C    -3.98575  -1.33145  -0.48004
N    -4.95292  -1.64496  -1.04902
C     0.01374  -0.81598   0.19626
H     5.24783   1.27633  -2.00555
H     4.14976  -0.05194  -2.48455
H     5.28823  -0.27953  -1.12701
H     3.38682   1.94538  -0.79297
H     1.95972  -0.36276   2.59066
H     1.00995   1.13594   2.80892
H     2.79311   1.20070   2.68248
H     0.51463   2.32528   1.01610
H     0.05953   4.12450  -1.32070
H    -1.05514   3.25687  -0.22679
H    -1.08748   2.93353  -1.97907
H    -0.56796  -0.35511  -1.88744
H    -2.48347   1.16305  -0.62387
H    -0.44972  -0.69872   2.42579
H     0.79731  -1.56543   0.12708
