16
Generated by autodE on: 2022-06-16. E = -438.192102 Ha
C    -2.70493  -0.70939   0.76244
C    -2.32861   0.21653  -0.36442
O    -3.13453   0.80760  -1.07995
C    -0.92046   0.35517  -0.54723
N     0.24528   0.51436  -0.64617
C     1.54805   0.52790  -0.57088
C     2.16324  -0.29819   0.46040
C     3.66846  -0.25766   0.52407
O     1.48496  -0.98412   1.23098
H    -3.32487  -0.15108   1.48197
H    -3.31463  -1.53065   0.35274
H    -1.82304  -1.12128   1.27271
H     2.11202   1.14583  -1.27024
H     4.02781  -0.92629   1.31703
H     4.01010   0.77156   0.72176
H     4.09890  -0.56015  -0.44430
