14
Generated by autodE on: 2022-06-16. E = -270.687342 Ha
C    -1.02923   1.64614   0.18698
C    -0.96224   0.16894  -0.06190
C    -2.28724  -0.48844  -0.30203
C     0.18038  -0.56677  -0.08025
C     1.52143  -0.05361   0.13758
O     2.52918  -0.75573   0.10684
H    -1.67931   1.84255   1.05648
H    -0.05657   2.11952   0.36345
H    -1.51019   2.14141  -0.67361
H    -2.79205  -0.02049  -1.16489
H    -2.19241  -1.56762  -0.48508
H    -2.95119  -0.32835   0.56522
H     0.12309  -1.64325  -0.27371
H     1.61866   1.03630   0.34152
