30
Generated by autodE on: 2022-06-16. E = -708.867937 Ha. Imaginary frequency = -412.0 cm-1
C     3.63910   0.52673  -0.05511
C     2.31050   1.05124   0.37941
O     2.12510   1.86735   1.26696
C     1.11626   0.45831  -0.25005
N     0.36495   0.61195  -1.18109
C    -0.88513   0.31723  -1.54787
C    -1.97373   1.21316  -1.13875
C    -1.68190   2.27038  -0.10600
O    -3.09370   1.06265  -1.62675
C    -1.17410  -1.35825   0.13195
C    -1.04757  -2.50428  -0.84649
C    -2.57870  -1.08326   0.60347
C    -0.10860  -1.00440   0.98008
C     1.11196  -1.78340   1.10989
O     1.91080  -1.67157   2.04022
H     3.68079   0.40465  -1.14781
H     3.76701  -0.47168   0.39924
H     4.43571   1.19276   0.30261
H    -1.02473  -0.24168  -2.47624
H    -1.09200   3.07824  -0.57102
H    -2.62711   2.68317   0.26850
H    -1.08055   1.87847   0.72747
H    -1.85312  -2.46146  -1.59349
H    -0.08562  -2.51066  -1.37692
H    -1.14748  -3.46735  -0.31421
H    -2.92724  -1.95418   1.18800
H    -3.28021  -0.95643  -0.23252
H    -2.63429  -0.19932   1.25432
H    -0.31202  -0.33213   1.82067
H     1.30965  -2.52254   0.30162
