36
Generated by autodE on: 2022-06-09. E = -804.657194 Ha
C     3.66862   0.59275  -1.44631
N     2.89864  -0.18749  -0.49547
C     2.17640   0.40289   0.45512
O     2.16338   1.60921   0.72587
C     1.39192  -0.48950   1.39617
C     2.05285  -0.88800   2.66838
N     0.13572  -0.71353   1.15592
C    -0.73175  -1.30565   2.18507
C    -0.40196  -0.58816  -0.17378
C     0.17451  -1.42714  -1.14205
C    -0.33970  -1.40205  -2.56867
O     1.15369  -2.21119  -0.89825
C    -1.56321   0.30535  -0.27871
C    -1.57186   1.50444   0.47106
C    -2.65939   2.37715   0.43067
C    -3.77129   2.08560  -0.36720
C    -3.78329   0.90087  -1.11112
C    -2.70367   0.01689  -1.05945
H     3.01731   1.11952  -2.16407
H     4.33640  -0.07683  -2.00294
H     4.27414   1.34300  -0.91914
H     2.55807  -1.12915  -0.75535
H     3.14090  -0.77520   2.58663
H     1.69636  -0.24647   3.49303
H     1.80944  -1.92932   2.92753
H    -0.55803  -0.83321   3.15969
H    -1.77364  -1.15921   1.88378
H    -0.52355  -2.38417   2.25364
H    -1.04312  -2.23419  -2.73927
H     0.52064  -1.55801  -3.23672
H    -0.84439  -0.46590  -2.83908
H    -0.69755   1.75946   1.07427
H    -2.63366   3.29789   1.01923
H    -4.62198   2.77011  -0.40306
H    -4.65256   0.64991  -1.72453
H    -2.75916  -0.92189  -1.61055
