23
Generated by autodE on: 2022-07-26. E = -629.311314 Ha
C    -2.55258  -2.11365  -1.99301
C    -1.61496  -1.75535  -0.90598
N    -0.97427  -0.62726  -0.90844
C    -0.04719  -0.04636  -0.02932
C     0.34078  -0.76278   1.15386
O    -0.09173  -1.87388   1.47362
O     1.24631  -0.12112   1.92903
C     1.65137  -0.79957   3.11881
C     0.43758   1.25801  -0.41654
O     1.24075   1.96843   0.17642
O    -0.12159   1.66880  -1.59780
C     0.27809   2.94735  -2.08987
H    -3.55792  -2.29376  -1.57459
H    -2.23668  -3.06206  -2.46057
H    -2.61571  -1.33216  -2.76459
H    -1.43439  -2.42962  -0.06988
H    -1.16009  -0.00764  -1.70566
H     2.12944  -1.76275   2.88424
H     0.79412  -0.97918   3.78526
H     2.37319  -0.13652   3.61176
H    -0.26854   3.09648  -3.02908
H     1.36165   2.97469  -2.27972
H     0.01846   3.74308  -1.37558
