17
Generated by autodE on: 2022-06-16. E = -472.521352 Ha
C     2.68575   0.88483  -0.32247
C     1.97886  -0.43961  -0.38949
O     2.53600  -1.50706  -0.62846
N     0.62104  -0.43574  -0.16494
C    -0.22013  -1.65304  -0.19172
C    -1.61977  -1.09055   0.11973
C    -1.31335   0.38207   0.27081
C    -2.27531   1.38766   0.56897
N    -3.09405   2.17757   0.81388
N    -0.06879   0.69219   0.10596
H     3.75116   0.71975  -0.52327
H     2.55910   1.34208   0.67014
H     2.27006   1.58495  -1.06228
H    -0.15333  -2.12706  -1.18020
H     0.13823  -2.36669   0.56228
H    -2.05243  -1.49749   1.04551
H    -2.34261  -1.25833  -0.69219
