55
Generated by autodE on: 2022-06-22. E = -1116.619727 Ha
C     0.79597   3.67825   0.00148
C     1.01255   2.47446  -0.54680
C     1.49125   2.29602  -1.95878
C     0.69841   1.22709   0.25391
C    -0.71023   0.64858  -0.10855
C    -1.65456   0.77176   1.04560
C    -2.86424   1.36000   1.05117
C    -3.50662   2.00075  -0.14844
C    -3.70574   1.37994   2.29917
C    -0.37372  -0.83596  -0.51083
C    -0.14272  -0.94098  -2.04016
C     0.87283  -1.93892  -2.51397
O    -0.80384  -0.26885  -2.81267
C    -1.45891  -1.85098  -0.19597
C    -1.18152  -3.03230   0.50489
C    -2.20171  -3.95122   0.77570
C    -3.50492  -3.70605   0.33799
C    -3.78416  -2.53646  -0.37871
C    -2.76934  -1.61723  -0.64455
N     0.88142  -1.12449   0.16896
N     1.59983   0.08853   0.00927
C     2.93484   0.07296   0.40320
C     3.66213  -1.13898   0.40908
C     5.01282  -1.15078   0.75309
C     5.67751   0.02960   1.10699
C     4.95787   1.22751   1.11612
C     3.60285   1.25837   0.77772
H     0.94521   4.59920  -0.56953
H     0.45844   3.77740   1.03767
H     1.63582   3.26760  -2.45252
H     0.77528   1.70562  -2.55178
H     2.44692   1.74725  -1.98143
H     0.71030   1.48653   1.32841
H    -1.11044   1.15853  -0.98910
H    -1.30205   0.31708   1.97970
H    -2.85392   2.03389  -1.03021
H    -4.42453   1.45173  -0.42397
H    -3.82170   3.03214   0.08590
H    -3.19941   0.89621   3.14761
H    -4.66601   0.86158   2.12706
H    -3.96097   2.41484   2.58780
H     0.79319  -2.05804  -3.60225
H     0.73445  -2.90449  -2.00613
H     1.88109  -1.58158  -2.25286
H    -0.16638  -3.24483   0.84173
H    -1.97052  -4.86471   1.32869
H    -4.30058  -4.42443   0.54882
H    -4.79897  -2.33807  -0.73147
H    -2.99422  -0.71092  -1.20774
H     0.68747  -1.25920   1.17079
H     3.15410  -2.06326   0.13898
H     5.55317  -2.10111   0.74561
H     6.73554   0.01322   1.37699
H     5.45225   2.16067   1.39870
H     3.06841   2.20642   0.79934
