23
Generated by autodE on: 2022-06-22. E = -351.521384 Ha
C     3.66282   0.09142  -0.93576
C     2.56078   0.30845  -0.18466
C     2.64700   1.00450   1.14963
C     1.25280  -0.13647  -0.66169
C     0.07693   0.01543  -0.00209
C    -1.19490  -0.44581  -0.52015
C    -2.40799  -0.33777   0.07849
C    -3.64504  -0.86837  -0.58932
C    -2.63864   0.29567   1.42112
H     4.65347   0.41334  -0.60274
H     3.59706  -0.41463  -1.90390
H     2.02971   1.91816   1.16207
H     2.26896   0.35888   1.95972
H     3.68312   1.28450   1.38644
H     1.24345  -0.63442  -1.63880
H     0.07862   0.50967   0.97317
H    -1.15764  -0.93273  -1.50218
H    -3.42811  -1.32062  -1.56817
H    -4.38826  -0.06351  -0.73293
H    -4.13718  -1.62753   0.04501
H    -3.10068  -0.43186   2.11175
H    -1.72455   0.68011   1.89158
H    -3.35667   1.12995   1.33164
