32
Generated by autodE on: 2022-07-27. E = -765.067203 Ha
C     0.17951   1.03460  -3.05445
C    -1.01579   0.50561  -2.30614
O    -2.11430   0.44082  -2.87052
C    -0.89018   0.04337  -0.91906
N     0.22502   0.21343  -0.18358
N     1.27026   0.93025  -0.43540
C     2.33684   0.77894   0.44484
C     2.51449  -0.30767   1.33195
C     3.61595  -0.33956   2.18782
C     4.56781   0.68557   2.16783
C     4.41340   1.75004   1.26999
C     3.31606   1.79606   0.41493
C    -2.00742  -0.62561  -0.22492
C    -2.26193  -0.36371   1.13733
C    -3.27993  -1.03432   1.81934
C    -4.07651  -1.96747   1.15163
C    -3.84204  -2.22864  -0.20387
C    -2.82055  -1.56986  -0.88601
H    -0.08249   1.08730  -4.12003
H     1.06939   0.40721  -2.90171
H     0.44447   2.03881  -2.69023
H     0.19401  -0.28666   0.71978
H     1.82095  -1.15173   1.33890
H     3.74019  -1.18747   2.86576
H     5.43078   0.64838   2.83610
H     5.15551   2.55139   1.23818
H     3.18251   2.62434  -0.28368
H    -1.67520   0.39174   1.66602
H    -3.45905  -0.81213   2.87391
H    -4.87858  -2.48661   1.68130
H    -4.45582  -2.96165  -0.73293
H    -2.63836  -1.79599  -1.93590
