32
Generated by autodE on: 2022-06-22. E = -765.074492 Ha
C     2.34674   3.11441  -0.41850
C     0.98906   2.47684  -0.29910
O    -0.04041   3.15806  -0.44229
C     0.88007   1.04047  -0.03989
N    -0.39290   0.61813  -0.07736
N    -0.84700  -0.56304   0.14924
C    -2.21318  -0.74990  -0.04740
C    -2.76486  -1.91542   0.52629
C    -4.12175  -2.19905   0.39474
C    -4.95828  -1.33416  -0.32162
C    -4.41602  -0.18744  -0.91341
C    -3.05844   0.10707  -0.78936
C     1.99657   0.11088   0.19499
C     2.99958   0.41852   1.13288
C     4.07192  -0.45178   1.34023
C     4.15956  -1.64498   0.61766
C     3.16468  -1.96422  -0.31369
C     2.09141  -1.09849  -0.52191
H     2.25203   4.03615  -1.00851
H     2.71530   3.38770   0.58425
H     3.08812   2.44338  -0.87269
H    -1.03258   1.41090  -0.28618
H    -2.10284  -2.58036   1.08443
H    -4.53117  -3.10210   0.85374
H    -6.02176  -1.55816  -0.42906
H    -5.05576   0.48163  -1.49400
H    -2.66446   0.98718  -1.30285
H     2.93114   1.33891   1.71475
H     4.83923  -0.19758   2.07521
H     4.99813  -2.32604   0.78051
H     3.22707  -2.89388  -0.88433
H     1.32233  -1.35416  -1.25155
