55
Generated by autodE on: 2022-06-22. E = -1116.567932 Ha. Imaginary frequency = -368.8 cm-1
C     2.20332   3.49135  -0.03821
C     1.31363   2.65654  -0.61195
C     0.97169   2.75547  -2.07332
C     0.69981   1.58400   0.19059
C    -0.66321   1.17644   0.01748
C    -1.44847   0.90227   1.21341
C    -2.79261   0.75389   1.29263
C    -3.71336   0.85383   0.10906
C    -3.46445   0.45106   2.60051
C    -0.37097  -0.79741  -0.90139
C    -0.36805  -0.39045  -2.35046
C     0.74922  -0.88896  -3.22985
O    -1.30892   0.23275  -2.82859
C    -1.47931  -1.67435  -0.45547
C    -1.55141  -2.09848   0.88847
C    -2.58536  -2.92381   1.33261
C    -3.59136  -3.32869   0.45152
C    -3.53949  -2.91219  -0.88292
C    -2.49994  -2.09781  -1.33095
N     0.86078  -1.02745  -0.32612
N     1.74247  -0.02132  -0.44990
C     2.92294  -0.13615   0.30256
C     3.09579  -0.99687   1.40731
C     4.29979  -1.00494   2.11248
C     5.34991  -0.15577   1.74415
C     5.18707   0.69880   0.64893
C     3.99171   0.70444  -0.07062
H     2.68481   4.29075  -0.60904
H     2.46980   3.39752   1.01827
H     1.43408   3.64169  -2.53078
H    -0.11493   2.80348  -2.24366
H     1.33588   1.86293  -2.60671
H     1.06225   1.54889   1.22316
H    -1.19980   1.57832  -0.84112
H    -0.87443   0.78159   2.13962
H    -3.18381   0.88636  -0.85090
H    -4.39729  -0.01116   0.08878
H    -4.35222   1.75279   0.18657
H    -2.75043   0.41860   3.43691
H    -3.98192  -0.52476   2.54970
H    -4.24251   1.20002   2.83421
H     0.70747  -0.38019  -4.20173
H     0.58499  -1.97027  -3.38417
H     1.73303  -0.76212  -2.76577
H    -0.80354  -1.77148   1.61114
H    -2.61134  -3.23604   2.37896
H    -4.40871  -3.96391   0.80056
H    -4.31573  -3.22510  -1.58513
H    -2.48944  -1.78780  -2.37486
H     0.82663  -1.52642   0.56581
H     2.29724  -1.66634   1.73300
H     4.41663  -1.68156   2.96272
H     6.28903  -0.16740   2.30179
H     6.00290   1.35794   0.34201
H     3.87011   1.34733  -0.94154
