33
Generated by autodE on: 2022-10-26. E = -765.334338 Ha
C    -4.76730   0.54506  -0.75301
N    -3.55285   0.08339  -1.39344
C    -2.34866   0.21932  -0.79358
O    -2.24818   0.70688   0.34508
C    -1.18214  -0.18251  -1.61358
C    -1.29403  -0.35302  -3.09586
N     0.03699  -0.25274  -1.08291
C     0.47699  -0.38989   0.20459
C    -0.29553  -1.11885   1.19395
C    -1.32081  -2.14903   0.76343
O    -0.05559  -1.01060   2.40769
C     1.80142   0.17388   0.48300
C     2.30539   1.23092  -0.31045
C     3.59010   1.74103  -0.10895
C     4.40261   1.22827   0.90457
C     3.91386   0.19145   1.71084
C     2.63931  -0.33078   1.50618
H    -5.62973   0.20147  -1.33712
H    -4.84396   0.14305   0.26835
H    -4.80248   1.64537  -0.68492
H    -3.60955  -0.26671  -2.34277
H    -1.88450   0.45463  -3.55547
H    -0.29630  -0.36750  -3.55967
H    -1.78555  -1.30884  -3.35210
H     0.78999  -0.17565  -1.77544
H    -2.32457  -1.83015   1.08287
H    -1.34512  -2.35538  -0.31425
H    -1.08313  -3.07676   1.30690
H     1.67481   1.68274  -1.07957
H     3.94790   2.55892  -0.73933
H     5.40326   1.63366   1.07110
H     4.54021  -0.22256   2.50517
H     2.28534  -1.14461   2.13663
