33
Generated by autodE on: 2022-10-21. E = -765.349727 Ha
C     5.21966  -0.60535   0.34822
N     3.85141  -0.79213  -0.09057
C     2.86953   0.04432   0.29633
O     3.08961   1.01975   1.04086
C     1.49774  -0.23461  -0.19856
C     1.16306  -1.30383  -1.18027
N     0.61600   0.60906   0.30508
C    -0.72814   0.78867   0.24599
C    -1.14166   2.02414   0.87525
C    -2.61080   2.35596   0.97623
O    -0.29337   2.81340   1.34572
C    -1.65006  -0.24024  -0.27227
C    -1.62358  -1.54877   0.25009
C    -2.50828  -2.52199  -0.21655
C    -3.44549  -2.20588  -1.20600
C    -3.49070  -0.90727  -1.72380
C    -2.60053   0.06531  -1.26368
H     5.30291  -0.67057   1.44531
H     5.60460   0.37938   0.03975
H     5.84532  -1.38599  -0.10081
H     3.62760  -1.59851  -0.66146
H     0.86503  -2.24746  -0.69117
H     0.33203  -0.99397  -1.82696
H     2.02601  -1.51760  -1.82639
H     1.06598   1.35427   0.87108
H    -2.75245   3.08505   1.78598
H    -3.23305   1.46831   1.15471
H    -2.95662   2.81780   0.03663
H    -0.90583  -1.79818   1.03440
H    -2.47120  -3.53144   0.20019
H    -4.13873  -2.96768  -1.57025
H    -4.21774  -0.65184  -2.49853
H    -2.62864   1.07174  -1.68556
