41
Generated by autodE on: 2022-10-21. E = -3530.823082 Ha. Imaginary frequency = -288.4 cm-1
C    -4.69108  -0.73218  -1.08558
N    -3.42540  -0.92384  -1.76432
C    -2.29595  -1.17333  -1.04873
O    -2.36463  -1.42551   0.16856
C    -1.03404  -1.11587  -1.80660
C    -1.04216  -1.10365  -3.30682
N     0.16726  -1.32015  -1.22000
C     0.56202  -1.17301   0.06943
C    -0.16461  -1.88232   1.17643
C    -0.52216  -3.32742   0.91254
O    -0.22143  -1.42024   2.30711
C     1.98379  -0.84536   0.27913
C     2.69289  -0.10329  -0.69186
C     4.04184   0.20270  -0.52318
C     4.71900  -0.20029   0.63287
C     4.02504  -0.91311   1.61552
C     2.67783  -1.23236   1.44463
C    -0.35563   1.17193   0.01371
Br    0.46717   1.98550   1.44336
C    -1.01838   1.21474  -1.03220
O    -1.76008   1.67365  -2.01787
C    -2.23827   3.02138  -1.82671
H    -5.48969  -0.65679  -1.83459
H    -4.90509  -1.58383  -0.42454
H    -4.69686   0.18397  -0.46869
H    -3.33010  -0.51006  -2.68443
H    -1.57485  -0.22019  -3.69215
H    -0.01485  -1.06030  -3.69709
H    -1.53195  -1.99839  -3.72632
H     0.92866  -1.21038  -1.89090
H    -1.34308  -3.63524   1.57440
H    -0.77785  -3.53247  -0.13325
H     0.37373  -3.92244   1.16713
H     2.17536   0.27843  -1.57451
H     4.56207   0.78026  -1.29115
H     5.77364   0.04868   0.77091
H     4.53876  -1.23005   2.52646
H     2.16266  -1.78815   2.22695
H    -2.83405   3.26728  -2.71457
H    -1.38890   3.71548  -1.73424
H    -2.86410   3.07251  -0.92257
