17
Generated by autodE on: 2022-05-30. E = -5420.032731 Ha
Br   -0.37853   1.38028  -1.54230
C    -0.79301   0.05198  -0.27805
C     0.05265  -0.73254   0.41197
Br    1.93111  -0.76184   0.34237
C    -0.76015  -1.45210   1.47827
C    -1.15446  -0.35893   2.52282
C    -2.13349   0.54930   1.72415
C    -2.17948  -0.13518   0.32018
C    -2.09401  -1.62379   0.72017
H    -0.29094  -2.35002   1.89725
H    -1.65276  -0.82908   3.38332
H    -0.27221   0.18006   2.89610
H    -3.13843   0.54884   2.17128
H    -1.79527   1.59283   1.65440
H    -3.01182   0.17445  -0.32267
H    -2.92102  -1.94012   1.37375
H    -2.01497  -2.29853  -0.14404
