16
Generated by autodE on: 2022-05-30. E = -417.281914 Ha
C     3.01416   0.54650  -0.90510
N     2.11822  -0.46815  -1.36786
O     0.94266  -0.38582  -0.76537
C     0.54088   0.45746   0.13859
C    -0.82784   0.31625   0.64667
O    -1.23985   1.09940   1.51869
N    -1.58482  -0.67561   0.13222
C    -2.94288  -0.89852   0.58242
H     3.96091   0.42041  -1.44355
H     2.62594   1.57066  -1.09014
H     3.20637   0.47610   0.18658
H     1.18430   1.24524   0.52528
H    -1.18440  -1.28530  -0.57290
H    -2.97651  -1.15553   1.65394
H    -3.56589  -0.00214   0.43305
H    -3.37546  -1.72716   0.00893
