33
Generated by autodE on: 2022-05-30. E = -5837.308735 Ha. Imaginary frequency = -226.4 cm-1
C     3.67542   0.58370  -2.85740
N     3.06709  -0.03231  -1.69727
C     2.74675   0.69081  -0.60717
O     3.04548   1.88625  -0.45857
C     2.07182  -0.01607   0.50469
O     1.75223  -1.28011   0.54151
N     1.36724  -1.90281  -0.58611
C     1.10129  -3.27624  -0.24395
C    -0.82926  -0.46515  -0.38718
Br   -1.74495  -1.67436   0.73470
C    -1.23539  -0.28765  -1.83767
C    -2.44599   0.70337  -1.80240
C    -1.79175   2.04320  -1.35662
C    -0.29070   1.65689  -1.16935
C    -0.12160   0.65163  -2.32784
C    -0.25637   0.71707   0.03390
Br   -0.49714   1.44476   1.78805
H     2.97779   1.28036  -3.35466
H     3.95867  -0.19949  -3.57142
H     4.57473   1.14946  -2.57358
H     2.60907  -0.94504  -1.76962
H     2.20121   0.40998   1.49862
H     2.03503  -3.86613  -0.16695
H     0.54974  -3.37812   0.70687
H     0.49953  -3.70480  -1.05818
H    -1.40607  -1.21449  -2.39732
H    -3.23561   0.35988  -1.11938
H    -2.88127   0.78151  -2.80943
H    -1.87737   2.81254  -2.13773
H    -2.22739   2.44975  -0.43354
H     0.41334   2.49516  -1.12022
H    -0.35413   1.10349  -3.30294
H     0.85630   0.17061  -2.36562
