23
Generated by autodE on: 2022-06-17. E = -351.521381 Ha
C    -3.61120   0.82439   0.76040
C    -2.57064   0.25148   0.11636
C    -2.78587  -0.65544  -1.06831
C    -1.20360   0.50839   0.56512
C    -0.07813   0.00054   0.00280
C     1.25666   0.28725   0.48726
C     2.42639  -0.17215  -0.02497
C     3.74095   0.21254   0.59279
C     2.53146  -1.07731  -1.21945
H    -3.45163   1.48265   1.62000
H    -4.64382   0.64982   0.44562
H    -3.85528  -0.76404  -1.29770
H    -2.27712  -0.26485  -1.96530
H    -2.36771  -1.65865  -0.88204
H    -1.10107   1.17202   1.43220
H    -0.17230  -0.66140  -0.86231
H     1.31181   0.94680   1.36182
H     3.61450   0.87257   1.46352
H     4.38459   0.72568  -0.14430
H     4.30037  -0.68497   0.91267
H     3.14716  -0.60303  -2.00408
H     3.05211  -2.01225  -0.94655
H     1.56143  -1.34160  -1.65983
