13
Generated by autodE on: 2022-07-27. E = -357.898964 Ha
C     2.15645  -1.86826  -1.52028
C     1.40088  -0.69596  -1.03217
N     0.38742  -0.80176  -0.23089
C    -0.42412   0.20617   0.31336
C    -0.17807   1.54737  -0.00993
N     0.03980   2.66410  -0.28945
C    -1.46813  -0.16188   1.17347
N    -2.34406  -0.45869   1.89348
H     2.14008  -1.88880  -2.62344
H     3.21589  -1.77791  -1.22462
H     1.74933  -2.81309  -1.13221
H     1.68600   0.31362  -1.34344
H     0.12648  -1.75033   0.05829
