36
Generated by autodE on: 2022-06-17. E = -709.404343 Ha. Imaginary frequency = -463.9 cm-1
C     5.18983   0.27475  -0.54568
C     3.98693   0.68859  -0.09341
C     3.78294   2.08691   0.43001
C     2.84472  -0.22792  -0.10592
C     1.59811   0.06751   0.32595
C     0.46332  -0.85914   0.26073
C    -0.34745  -0.39750  -1.58047
C     0.33857  -1.23562  -2.60856
N    -1.68355  -0.55842  -1.40083
C    -2.28401   0.10955  -0.32830
C    -1.97053   1.47497  -0.11750
N    -1.67092   2.58477   0.09028
C    -3.52584  -0.35479   0.16001
N    -4.52471  -0.75966   0.61071
C    -0.60429  -0.79789   1.19922
C    -1.36038  -2.07251   1.44180
C    -0.65221   0.22520   2.29454
H     6.05848   0.93913  -0.54905
H     5.33236  -0.74187  -0.92513
H     3.01080   2.61922  -0.15013
H     4.71364   2.66981   0.38434
H     3.43405   2.07212   1.47602
H     3.04164  -1.23408  -0.49472
H     1.39235   1.06864   0.71443
H     0.71805  -1.87393  -0.06489
H    -0.01869   0.64324  -1.51569
H     0.14009  -0.84349  -3.62031
H     1.42578  -1.20512  -2.44978
H    -0.00106  -2.28189  -2.56401
H    -2.06225  -1.48642  -1.58870
H    -2.32005  -1.90511   1.95000
H    -0.75403  -2.73232   2.09048
H    -1.53859  -2.62507   0.50538
H    -0.33734   1.22501   1.96815
H    -1.66353   0.30024   2.72087
H     0.02961  -0.08134   3.11008
