40
Generated by autodE on: 2022-06-18. E = -807.794284 Ha
C     4.36297   1.64736  -2.62858
C     3.78351   0.74311  -1.57688
C     4.56344  -0.51788  -1.33126
C     2.64204   1.07729  -0.92814
C     1.95972   0.30265   0.09534
C     0.80920   0.70148   0.67124
C    -0.00627  -0.04188   1.70238
C    -0.51127   0.95095   2.74950
C     0.74402  -1.24850   2.30034
C     0.41180  -2.33901   1.33159
N    -0.60857  -2.14978   0.58390
C    -1.18850  -0.82532   0.93277
C    -2.29670  -1.10395   1.86223
N    -3.15871  -1.34935   2.59982
C    -1.71878  -0.07924  -0.28312
C    -2.69146   0.91984  -0.14474
C    -3.09845   1.66752  -1.25345
C    -2.54030   1.41969  -2.51081
C    -1.57523   0.41750  -2.65367
C    -1.16572  -0.32763  -1.54565
H     4.44004   1.12185  -3.59736
H     5.39200   1.94845  -2.36207
H     3.76068   2.55632  -2.77293
H     5.59783  -0.27449  -1.03082
H     4.12691  -1.16503  -0.55972
H     4.64582  -1.10335  -2.26399
H     2.16218   2.02507  -1.19980
H     2.40768  -0.65145   0.38551
H     0.37407   1.65473   0.35225
H    -1.11035   0.45564   3.52704
H     0.34609   1.43908   3.23731
H    -1.12469   1.73633   2.28177
H     0.32653  -1.51753   3.28745
H     1.82216  -1.08960   2.43745
H     0.98105  -3.27399   1.26421
H    -3.13629   1.11895   0.83263
H    -3.85717   2.44415  -1.13245
H    -2.85914   2.00289  -3.37789
H    -1.13569   0.21483  -3.63318
H    -0.40809  -1.10324  -1.65586
