17
Generated by autodE on: 2022-06-18. E = -456.183611 Ha
C     2.62361  -1.91964   0.30737
N     1.98878  -0.92132   0.12354
C     1.19838   0.11954   0.07164
C     1.80692   1.40285   0.13406
N     2.28870   2.46404   0.18223
C    -0.26188  -0.03769  -0.03556
C    -1.09607   1.09570  -0.07360
C    -2.48045   0.94946  -0.16488
C    -3.05663  -0.32396  -0.21842
C    -2.23204  -1.45388  -0.18180
C    -0.84673  -1.31717  -0.09354
H     3.13203  -2.58291  -0.40520
H    -0.65856   2.09537  -0.02967
H    -3.11324   1.83961  -0.19293
H    -4.14076  -0.43556  -0.29004
H    -2.67055  -2.45363  -0.22483
H    -0.21629  -2.20843  -0.07091
