23
Generated by autodE on: 2022-06-18. E = -351.521383 Ha
C     2.83242   1.26863   2.15998
C     2.22952   0.54041   1.19464
C     3.00929  -0.42493   0.33900
C     0.79307   0.68102   0.96450
C     0.07186   0.01081   0.03093
C    -1.35392   0.18908  -0.15410
C    -2.14601  -0.43822  -1.06001
C    -3.61816  -0.14467  -1.12739
C    -1.65980  -1.45436  -2.05412
H     3.90532   1.18356   2.35379
H     2.26316   1.96843   2.77963
H     2.93011  -0.16265  -0.72915
H     2.61806  -1.45093   0.44021
H     4.07323  -0.43217   0.61482
H     0.27211   1.39523   1.61354
H     0.58425  -0.70313  -0.61968
H    -1.83101   0.91238   0.51831
H    -3.89884   0.22289  -2.13086
H    -4.20829  -1.06444  -0.96408
H    -3.92769   0.60391  -0.38336
H    -2.19437  -2.41071  -1.91490
H    -0.58222  -1.65336  -1.99255
H    -1.88995  -1.12308  -3.08220
