40
Generated by autodE on: 2022-06-18. E = -807.714233 Ha. Imaginary frequency = -303.3 cm-1
C     1.95057   3.51332  -2.40516
C     1.30579   3.01211  -1.14491
C     0.12981   3.81557  -0.67132
C     1.76243   1.89199  -0.52695
C     1.22150   1.26835   0.65690
C     1.65504   0.06322   1.12259
C     1.13700  -0.65263   2.26414
C     0.09696  -0.01106   3.14738
C     1.63117  -1.90789   2.54443
C     0.39982  -3.39928   1.31120
N    -0.51956  -2.84671   0.78025
C    -1.26379  -1.78174   0.46908
C    -2.31337  -1.46453   1.35829
N    -3.16744  -1.16507   2.09927
C    -1.01325  -0.99625  -0.73215
C    -1.77681   0.15995  -0.99951
C    -1.50730   0.94541  -2.11979
C    -0.46893   0.60588  -2.99295
C     0.29770  -0.53681  -2.73166
C     0.03398  -1.33010  -1.61685
H     2.30887   4.55127  -2.28045
H     1.21847   3.54030  -3.23226
H     2.79985   2.88657  -2.71459
H    -0.34924   3.40606   0.22704
H     0.43270   4.85640  -0.45893
H    -0.63312   3.87432  -1.46726
H     2.60965   1.37241  -0.99020
H     0.40822   1.77660   1.18150
H     2.45092  -0.44340   0.56374
H    -0.72572   0.44155   2.57423
H    -0.33833  -0.74220   3.84339
H     0.54771   0.80063   3.74588
H     2.52125  -2.27434   2.02567
H     1.35451  -2.42417   3.46775
H     0.75665  -4.43239   1.37026
H    -2.58586   0.44294  -0.32287
H    -2.11012   1.83710  -2.30625
H    -0.25522   1.22656  -3.86558
H     1.11550  -0.81075  -3.40258
H     0.64460  -2.21440  -1.42377
