46
Generated by autodE on: 2022-10-21. E = -1089.225052 Ha
C     3.89161  -2.17354  -1.89377
N     2.55577  -1.81365  -1.46735
C     2.23790  -1.55350  -0.19336
O     3.02764  -1.64209   0.75604
C     0.79162  -1.14351   0.06576
N    -0.07444  -1.22277  -1.09719
C    -1.21557  -0.31384  -0.96023
C    -1.77478   0.02963  -2.33861
C    -2.34184  -0.95111  -0.11292
O    -3.52370  -0.89795  -0.38585
O    -1.87424  -1.59874   0.95443
C    -2.83899  -2.18043   1.84255
C    -0.64824   0.91146  -0.13608
O    -1.56561   1.31905   0.86163
C    -2.68413   2.10035   0.44937
C    -0.08959   2.08434  -0.98281
C     0.33813   3.22828  -0.03183
C     1.63360   2.68281   0.63044
C     1.78732   1.28952  -0.00408
C     1.27852   1.54518  -1.43330
C     0.67626   0.33988   0.55188
C     0.61210   0.35351   2.00682
N     0.59276   0.35057   3.16752
H     4.38849  -2.74936  -1.10172
H     4.50618  -1.28294  -2.10911
H     3.83704  -2.78720  -2.80286
H     1.82987  -1.62508  -2.15498
H     0.46131  -1.79884   0.88573
H    -0.37929  -2.17923  -1.27433
H    -0.98091   0.43708  -2.97591
H    -2.59188   0.75966  -2.27547
H    -2.16537  -0.88105  -2.81684
H    -3.50104  -1.40045   2.24544
H    -3.43899  -2.93729   1.31776
H    -2.26236  -2.64426   2.65083
H    -3.21718   2.37735   1.36927
H    -2.37854   3.02029  -0.07131
H    -3.36934   1.53267  -0.19667
H    -0.76874   2.40476  -1.77990
H     0.54099   4.13060  -0.62590
H    -0.43075   3.48298   0.70609
H     1.57325   2.64427   1.72706
H     2.50820   3.29669   0.37208
H     2.78977   0.86242   0.10658
H     1.87632   2.30801  -1.95304
H     1.22219   0.64670  -2.05638
