24
Generated by autodE on: 2022-10-21. E = -609.449371 Ha
C     4.91087   0.29944   0.07383
N     3.66410  -0.37250  -0.21777
C     2.44459   0.15433   0.04620
O     2.27994   1.27387   0.57462
C     1.30572  -0.67554  -0.32826
N     0.10825  -0.16391  -0.07692
C    -1.12078  -0.64844  -0.28740
C    -1.28742  -1.99020  -0.90557
C    -2.18097   0.23999   0.13565
O    -1.99689   1.34700   0.64592
O    -3.41466  -0.26059  -0.08097
C    -4.51603   0.56234   0.31091
H     5.47829   0.51271  -0.84699
H     4.69233   1.24848   0.57700
H     5.54666  -0.31166   0.73436
H     3.69933  -1.28697  -0.65703
H     1.39846  -1.65800  -0.78683
H     0.14028   0.77237   0.35724
H    -2.34755  -2.24542  -1.00986
H    -0.81740  -2.02814  -1.90574
H    -0.79641  -2.77163  -0.29647
H    -4.50523   1.51760  -0.23513
H    -5.42193  -0.00221   0.05930
H    -4.48836   0.76578   1.39195
