48
Generated by autodE on: 2022-06-24. E = -1261.406446 Ha
C    -2.80375   1.64415  -1.44592
N    -2.00702   0.42564  -1.38600
C    -2.54702  -0.68050  -0.79557
C    -1.89977  -1.87475  -0.69126
C    -2.54624  -2.95324   0.06690
N    -1.87514  -4.12987   0.15970
O    -3.65808  -2.82000   0.61638
C    -0.56989  -1.99738  -1.38937
C     0.24727  -0.71798  -1.25184
C    -0.56172   0.59891  -1.38764
C    -0.02626   1.38817  -0.13185
C    -0.09154   2.88308  -0.12202
C    -0.75636   3.58367   0.89087
C    -0.79008   4.98046   0.86522
C    -0.15702   5.68114  -0.16521
C     0.51447   4.98101  -1.17308
C     0.54649   3.58569  -1.15395
O    -0.69685   0.80679   1.02168
C    -0.10535  -0.39744   1.21905
O    -0.41896  -1.15540   2.09660
C     0.97107  -0.49181   0.12026
C     2.15401  -1.36087   0.40540
C     3.44980  -0.88431   0.16525
C     4.55370  -1.71005   0.39164
C     4.37200  -3.01713   0.85354
C     3.07985  -3.49556   1.09029
C     1.97211  -2.67322   0.86966
O     1.29416   0.90876   0.00611
H    -2.86397   2.15678  -0.47124
H    -3.82248   1.40263  -1.77772
H    -2.35789   2.33710  -2.17269
H    -3.56242  -0.56917  -0.40826
H    -0.96020  -4.27329  -0.24701
H    -2.28422  -4.87625   0.71074
H    -0.72838  -2.18051  -2.46699
H     0.03294  -2.83975  -1.02690
H     1.06066  -0.71154  -1.98798
H    -0.26891   1.15418  -2.28714
H    -1.25138   3.03779   1.69390
H    -1.31332   5.52223   1.65626
H    -0.18553   6.77309  -0.18338
H     1.01464   5.52314  -1.97861
H     1.07290   3.04170  -1.94083
H     3.59184   0.13480  -0.19620
H     5.56055  -1.32916   0.20542
H     5.23622  -3.66182   1.02965
H     2.93008  -4.51543   1.45197
H     0.96832  -3.05125   1.06298
