20
Generated by autodE on: 2022-06-24. E = -457.715313 Ha
C     3.06300  -0.80176   0.29186
N     1.82347  -0.13737  -0.07556
C     1.87107   1.04435  -0.82563
C     0.76962   1.73370  -1.16302
C    -0.62287   1.30825  -0.76717
C    -0.57521   0.01912   0.03673
C    -1.80583  -0.61657   0.53270
N    -2.96498   0.02745   0.24484
O    -1.81808  -1.68501   1.17758
C     0.60561  -0.59795   0.32467
H     3.65166  -1.05701  -0.60375
H     3.68214  -0.16051   0.94096
H     2.83195  -1.72754   0.83333
H     2.87357   1.36200  -1.11818
H     0.88763   2.64456  -1.75443
H    -1.25459   1.18692  -1.67089
H    -1.11893   2.11707  -0.19185
H    -3.83663  -0.37002   0.57749
H    -2.99221   0.90515  -0.25812
H     0.61002  -1.52054   0.90738
