28
Generated by autodE on: 2022-06-24. E = -803.642152 Ha
O     0.91482   2.97496  -0.48208
C     0.50496   1.84368  -0.29888
O    -0.96927   1.60974  -0.24740
C    -1.17276   0.34408  -0.04477
C    -2.46780  -0.27364   0.06864
C    -3.62855   0.52011  -0.03108
C    -4.88015  -0.07825   0.08074
C    -4.98318  -1.45871   0.29054
C    -3.82987  -2.24766   0.38925
C    -2.57170  -1.66416   0.27963
O    -0.05759  -0.31951   0.04970
C     1.01518   0.56309  -0.10050
C     2.36420   0.05814  -0.03490
C     2.62580  -1.31230   0.17911
C     3.93890  -1.77903   0.23873
C     5.01634  -0.89920   0.08785
C     4.76439   0.46157  -0.12475
C     3.45737   0.94143  -0.18651
H    -3.53778   1.59483  -0.19428
H    -5.78132   0.53321   0.00483
H    -5.96787  -1.92301   0.37810
H    -3.91513  -3.32362   0.55314
H    -1.66920  -2.27212   0.35563
H     1.79467  -2.00934   0.29817
H     4.12163  -2.84349   0.40531
H     6.04266  -1.26973   0.13551
H     5.59668   1.15956  -0.24421
H     3.26944   2.00296  -0.35268
