48
Generated by autodE on: 2022-06-24. E = -1261.348033 Ha. Imaginary frequency = -430.9 cm-1
C    -2.72546   1.70281  -1.54434
N    -2.00728   0.43999  -1.43740
C    -2.63899  -0.64402  -0.90040
C    -2.05417  -1.85836  -0.70842
C    -2.86095  -2.91578  -0.08358
N    -2.27804  -4.13669   0.02098
O    -4.02201  -2.73215   0.33468
C    -0.62715  -2.09323  -1.15396
C     0.08547  -0.78582  -1.37723
C    -0.60219   0.42095  -1.55622
C     0.14384   1.46002   0.22288
C    -0.00657   2.90428   0.08308
C    -0.98289   3.60216   0.81392
C    -1.12974   4.97761   0.63744
C    -0.30811   5.66523  -0.26265
C     0.66745   4.97114  -0.98793
C     0.81879   3.59530  -0.82206
O    -0.60800   0.77736   1.12512
C     0.01274  -0.46275   1.34834
O    -0.52395  -1.33260   2.00770
C     1.23762  -0.37710   0.60279
C     2.37888  -1.26982   0.59515
C     3.56865  -0.90119  -0.06500
C     4.64829  -1.78160  -0.10761
C     4.55949  -3.04182   0.49612
C     3.37979  -3.41458   1.14823
C     2.29408  -2.53972   1.20281
O     1.38417   0.92707   0.20962
H    -2.90813   2.15807  -0.55878
H    -3.69341   1.54066  -2.03977
H    -2.13832   2.40539  -2.14949
H    -3.68326  -0.49291  -0.62117
H    -1.34816  -4.33221  -0.32638
H    -2.80303  -4.88932   0.45229
H    -0.59438  -2.68368  -2.09305
H    -0.07057  -2.70215  -0.41944
H     1.09509  -0.83593  -1.78385
H    -0.18707   1.19182  -2.20634
H    -1.62010   3.06404   1.51683
H    -1.88832   5.51698   1.20889
H    -0.42786   6.74229  -0.39945
H     1.31085   5.50498  -1.69073
H     1.57157   3.04908  -1.39368
H     3.63949   0.07749  -0.54220
H     5.56653  -1.48382  -0.61922
H     5.40721  -3.72960   0.45787
H     3.30302  -4.39550   1.62299
H     1.37923  -2.82794   1.71984
