29
Generated by autodE on: 2022-07-27. E = -840.952909 Ha
C    -3.72687   2.96906   0.05456
O    -2.59387   2.09481   0.03937
C    -1.98345   1.92950  -1.15073
O    -2.35034   2.48294  -2.18175
C    -0.84716   1.04094  -1.10468
O    -0.56891   0.47148   0.03760
C     0.32890  -0.40068   0.41704
C     0.18644  -0.81132   1.82125
O     0.96187  -1.56595   2.38813
O    -0.88329  -0.26736   2.41965
C    -1.07537  -0.59911   3.80030
C     1.38239  -0.90917  -0.45694
C     2.06341  -0.05714  -1.35265
C     3.08619  -0.55302  -2.15987
C     3.44172  -1.90432  -2.09769
C     2.77402  -2.75782  -1.21255
C     1.75735  -2.26868  -0.39491
H    -3.44096   3.98516  -0.25622
H    -4.08617   2.98103   1.09042
H    -4.51740   2.59619  -0.61381
H    -0.26574   0.82852  -1.99982
H    -1.97730  -0.06189   4.11591
H    -1.21755  -1.68304   3.92177
H    -0.21201  -0.27652   4.40066
H     1.81643   1.00435  -1.39744
H     3.61082   0.12197  -2.83961
H     4.23812  -2.29147  -2.73727
H     3.04527  -3.81464  -1.16105
H     1.24006  -2.93858   0.29123
