32
Generated by autodE on: 2022-06-12. E = -1215.336008 Ha
F     1.30450  -1.49923   2.19931
C     0.24329  -1.35244   1.38965
F    -0.80262  -1.06101   2.17713
F     0.00402  -2.56416   0.84200
C     0.51116  -0.29872   0.32172
C    -0.51177   0.29849  -0.32151
C    -1.95696   0.02023  -0.08183
C    -2.51165  -1.21711  -0.43948
C    -3.87001  -1.46509  -0.22646
C    -4.68308  -0.48168   0.34324
C    -4.13507   0.75703   0.69371
C    -2.78007   1.01097   0.47733
C    -0.24283   1.35286  -1.38869
F     0.80124   1.05938  -2.17794
F    -1.30466   1.50353  -2.19673
F     0.00058   2.56322  -0.83998
C     1.95636  -0.02056   0.08127
C     2.51228   1.21489   0.44343
C     3.87058   1.46278   0.22981
C     4.68227   0.48113  -0.34489
C     4.13297  -0.75572  -0.69981
C     2.77802  -1.00957  -0.48294
H    -1.87698  -1.98391  -0.88617
H    -4.29324  -2.43187  -0.50856
H    -5.74448  -0.67807   0.51159
H    -4.76594   1.52972   1.13898
H    -2.35241   1.97840   0.74989
H     1.87860   1.98030   0.89392
H     4.29484   2.42811   0.51534
H     5.74360   0.67747  -0.51371
H     4.76277  -1.52701  -1.14902
H     2.34925  -1.97553  -0.75894
