53
Generated by autodE on: 2022-10-11. E = -1023.367208 Ha
C     0.28533  -0.59759  -3.23309
C     0.27786  -0.87132  -1.91931
C     0.47296  -2.27367  -1.40768
C     0.04888   0.24146  -0.92043
C    -0.79397  -0.13511   0.31278
C    -2.22905  -0.41232  -0.01451
C    -2.96596  -1.47303   0.36290
C    -4.40085  -1.60888  -0.07253
C    -2.46405  -2.60009   1.22462
C    -0.52836   1.07745   1.24529
C    -1.48985   2.22458   0.94144
O    -1.31910   3.08601   0.09945
O    -2.58300   2.16586   1.71109
C    -3.61393   3.12881   1.45117
N     0.85298   1.37715   0.99650
C     1.47571   2.48751   1.66727
C     1.33323   0.92964  -0.31830
C     1.74679   2.09970  -1.22500
C     2.49715  -0.06036  -0.14836
C     3.35058  -0.37699  -1.21886
C     4.35295  -1.34071  -1.07882
C     4.53319  -2.00151   0.14046
C     3.70330  -1.68192   1.21881
C     2.69760  -0.72189   1.07196
H     0.46974  -1.37820  -3.97780
H     0.10556   0.41567  -3.60479
H     1.24435  -2.32172  -0.62499
H    -0.45863  -2.65255  -0.95530
H     0.75755  -2.95665  -2.22124
H    -0.48862   1.04458  -1.44543
H    -0.33573  -0.99716   0.81307
H    -2.71318   0.34246  -0.64723
H    -4.55145  -2.54499  -0.63900
H    -5.07183  -1.66707   0.80276
H    -4.72349  -0.76628  -0.70193
H    -2.54839  -3.56088   0.68735
H    -3.09071  -2.69671   2.12840
H    -1.42179  -2.47688   1.54595
H    -0.70412   0.79326   2.29661
H    -3.98826   3.02012   0.42266
H    -3.23311   4.15024   1.59445
H    -4.41508   2.91888   2.16922
H     1.22167   3.48226   1.24744
H     1.17592   2.49206   2.72843
H     2.57225   2.38230   1.63885
H     1.89976   1.75953  -2.25865
H     2.68081   2.56829  -0.88120
H     0.95224   2.85764  -1.23328
H     3.22571   0.11662  -2.18247
H     4.99801  -1.57596  -1.92928
H     5.31779  -2.75421   0.24997
H     3.83694  -2.18393   2.18061
H     2.04604  -0.47370   1.91008
