23
Generated by autodE on: 2022-10-11. E = -351.521382 Ha
C    -3.17008  -1.57339   1.33170
C    -2.19850  -0.64358   1.20006
C    -2.21340   0.62579   2.01299
C    -1.10401  -0.86040   0.25605
C    -0.06898  -0.01109   0.03632
C     0.99353  -0.27643  -0.91210
C     2.06272   0.51404  -1.18354
C     2.32940   1.83701  -0.52346
C     3.08847   0.09818  -2.19975
H    -3.99998  -1.43739   2.03075
H    -3.15621  -2.49414   0.74022
H    -2.23702   1.51496   1.36122
H    -1.30391   0.71280   2.63045
H    -3.08730   0.66195   2.67864
H    -1.14086  -1.79732  -0.31275
H    -0.02500   0.92456   0.60041
H     0.91229  -1.22233  -1.46124
H     3.30947   1.81885  -0.01465
H     2.39434   2.63653  -1.28250
H     1.56776   2.12484   0.21242
H     2.85204  -0.87436  -2.65593
H     3.16984   0.85105  -3.00437
H     4.09125   0.03414  -1.74022
