53
Generated by autodE on: 2022-10-11. E = -1023.302813 Ha. Imaginary frequency = -355.0 cm-1
C     1.48385  -1.49530  -3.13389
C     0.83011  -1.44935  -1.95034
C     0.99106  -2.55961  -0.94292
C    -0.02472  -0.31712  -1.60561
C    -1.09583  -0.41512  -0.67675
C    -2.29063   0.40576  -0.88729
C    -3.53411   0.20707  -0.39300
C    -4.65799   1.14847  -0.72991
C    -3.91902  -0.94373   0.49444
C    -0.17425   0.45662   1.05743
C    -1.20454   0.58299   2.07763
O    -1.95804   1.52193   2.30711
O    -1.31447  -0.59246   2.74953
C    -2.32726  -0.66675   3.75413
N     0.47658   1.51355   0.44832
C    -0.21277   2.79924   0.30596
C     1.44805   1.17989  -0.47314
C     1.74954   2.16913  -1.56650
C     2.57211   0.30630  -0.05639
C     3.50386  -0.16398  -1.00778
C     4.57812  -0.97470  -0.63418
C     4.77789  -1.32030   0.70367
C     3.89615  -0.82061   1.66963
C     2.81610  -0.02348   1.29741
H     2.14479  -2.32851  -3.38792
H     1.38012  -0.69300  -3.87103
H     1.33377  -2.16440   0.02657
H     0.03548  -3.07680  -0.75521
H     1.72036  -3.30679  -1.28661
H    -0.12753   0.44242  -2.38526
H    -1.25253  -1.38037  -0.19202
H    -2.14575   1.27566  -1.53835
H    -5.49853   0.61206  -1.20648
H    -5.06895   1.61001   0.18634
H    -4.33468   1.95455  -1.40553
H    -4.65379  -1.59326  -0.01531
H    -4.41999  -0.57586   1.40607
H    -3.06799  -1.56435   0.80214
H     0.43498  -0.42833   1.19323
H    -3.32359  -0.47920   3.32940
H    -2.13515   0.06362   4.55458
H    -2.27928  -1.68508   4.15852
H    -0.86442   2.81091  -0.58077
H    -0.83021   2.97019   1.18949
H     0.52646   3.60370   0.21779
H     2.24002   1.65761  -2.40397
H     2.43914   2.96087  -1.22156
H     0.84564   2.64564  -1.96334
H     3.39029   0.09535  -2.05669
H     5.26771  -1.33370  -1.40229
H     5.61839  -1.95462   0.99461
H     4.05348  -1.04860   2.72682
H     2.16236   0.36166   2.07930
