68
Generated by autodE on: 2022-10-24. E = -1780.089321 Ha
C    -9.01321  -1.60040   7.40878
O    -9.02435  -2.84692   8.12348
C    -8.52300  -2.83918   9.35626
O    -8.13647  -1.84430   9.92303
C    -8.64007  -4.23423  10.01502
C    -8.65606  -5.27039   8.86025
O    -7.70893  -5.51815   8.14372
O    -9.83606  -5.85144   8.70538
C    -9.94893  -6.81743   7.64673
C   -10.01445  -4.20618  10.72602
C   -10.34821  -5.45748  11.56047
C   -10.54877  -5.13964  13.04068
C    -9.27995  -4.89936  13.85599
C    -8.31183  -3.78274  13.41816
O    -7.41408  -3.46942  14.46818
C    -7.92895  -3.13080  15.74462
O    -9.06337  -2.63597  13.10219
C    -8.32338  -1.42513  12.96476
C    -7.35213  -4.24739  12.29583
C    -7.45820  -4.45078  10.96534
C    -6.10433  -4.92359  10.42633
C    -5.41561  -3.88723   9.49726
C    -3.96829  -3.59019   9.76083
O    -6.03641  -3.33044   8.61363
C    -6.14143  -6.38037   9.83968
C    -5.07476  -6.76827   8.86716
O    -6.92910  -7.17280  10.31724
O    -5.28864  -5.11395  11.58208
C    -5.92107  -4.60833  12.75291
C    -5.19325  -3.36485  13.12347
N    -4.57478  -2.39930  13.29838
C    -5.82194  -5.67520  13.84568
C    -6.32756  -6.94987  13.56200
C    -6.25710  -7.96226  14.52136
C    -5.67612  -7.71076  15.76836
C    -5.16270  -6.44115  16.04840
C    -5.23463  -5.42678  15.09013
H    -9.60448  -0.84597   7.94634
H    -9.45967  -1.81116   6.43061
H    -7.97895  -1.24754   7.29054
H   -10.97519  -7.19724   7.69793
H    -9.22732  -7.63136   7.80218
H    -9.76335  -6.33810   6.67533
H   -10.77092  -4.04765   9.94863
H   -10.02617  -3.31860  11.36314
H    -9.56467  -6.22466  11.44855
H   -11.26966  -5.91058  11.16645
H   -11.21870  -4.26910  13.13636
H   -11.07224  -5.98180  13.52217
H    -8.69100  -5.82573  13.91482
H    -9.58968  -4.66080  14.88255
H    -8.86378  -2.55430  15.66953
H    -8.09925  -4.02634  16.36427
H    -7.16657  -2.50604  16.23168
H    -8.01943  -1.02751  13.94556
H    -8.99295  -0.70547  12.47597
H    -7.43167  -1.55846  12.33676
H    -3.55986  -3.01961   8.91691
H    -3.89736  -2.98354  10.67878
H    -3.38643  -4.50518   9.93644
H    -4.10440  -6.73583   9.39087
H    -5.25557  -7.78607   8.49922
H    -5.02308  -6.05937   8.02908
H    -6.77720  -7.14740  12.58888
H    -6.65837  -8.95211  14.29206
H    -5.62116  -8.50273  16.51891
H    -4.70263  -6.23568  17.01762
H    -4.83824  -4.43718  15.32215
