28
Generated by autodE on: 2022-10-26. E = -782.710606 Ha
C     1.35906   1.57662  -2.04013
C     0.02525   0.99723  -2.47178
O    -0.49142   1.38184  -3.52245
C    -0.53426  -0.12949  -1.72956
O    -0.22140  -0.37350  -0.43427
C     0.01890   0.45111   0.54045
C    -0.27859   1.83761   0.38552
N    -0.58713   2.95668   0.30198
C     0.48935  -0.08594   1.79200
C     0.76261  -1.46903   1.91110
C     1.18772  -1.98470   3.12860
C     1.36099  -1.13820   4.23341
C     1.10484   0.23341   4.11819
C     0.67157   0.76320   2.90766
C    -1.26714  -1.23351  -2.34273
C    -1.56513  -2.42894  -1.46503
O    -1.63207  -1.19856  -3.51956
H     1.84942   1.04782  -1.21118
H     1.24112   2.63681  -1.76870
H     2.01381   1.53150  -2.92402
H     0.63959  -2.12091   1.04584
H     1.39514  -3.05258   3.22093
H     1.70319  -1.54986   5.18530
H     1.24412   0.89177   4.97764
H     0.47054   1.83256   2.82030
H    -2.07088  -3.19188  -2.07031
H    -2.20898  -2.13936  -0.61973
H    -0.63882  -2.84525  -1.03842
