28
Generated by autodE on: 2022-10-24. E = -782.719037 Ha
C    -1.84770  -1.89637  -2.09181
C    -2.50686  -0.66450  -1.51016
O    -3.67348  -0.37035  -1.80303
C    -1.72479   0.12170  -0.58256
O    -0.42097  -0.32390  -0.45648
C     0.34022  -0.12966   0.57363
C    -0.23877   0.05690   1.87068
N    -0.67428   0.09322   2.94782
C     1.76090  -0.28877   0.41550
C     2.61505  -0.24781   1.54222
C     3.98480  -0.41512   1.37723
C     4.51670  -0.62272   0.09841
C     3.67610  -0.65829  -1.02412
C     2.30674  -0.48617  -0.87568
C    -1.99755   1.43313  -0.05904
C    -3.31413   2.09409  -0.37819
O    -1.13750   2.04218   0.60694
H    -2.54259  -2.37157  -2.79599
H    -1.58450  -2.61001  -1.29496
H    -0.91231  -1.63350  -2.61120
H     2.19961  -0.08827   2.53864
H     4.64350  -0.38428   2.24693
H     5.59403  -0.75134  -0.02690
H     4.09903  -0.81239  -2.01858
H     1.64823  -0.49505  -1.74459
H    -3.50473   2.11441  -1.46016
H    -3.29551   3.11403   0.02795
H    -4.13905   1.52688   0.07922
