34
Generated by autodE on: 2022-06-17. E = -728.361174 Ha
C     4.16249   1.38311  -1.61139
C     3.39280   0.55766  -0.87346
C     3.97257  -0.31038   0.21166
C     1.94934   0.49551  -1.12571
C     1.07230  -0.27760  -0.46223
C    -0.40343  -0.29306  -0.75152
C    -1.19650  -0.00327   0.49951
C    -1.18524   1.31770   1.19274
O    -0.57166   2.26850   0.69243
N    -1.87595   1.37770   2.34597
C    -1.98049   2.57157   3.15739
N    -1.84098  -1.01324   0.95896
O    -1.68829  -2.09217   0.13250
C    -1.02238  -1.67272  -1.12785
C    -2.11872  -1.50975  -2.17155
C    -0.03496  -2.76496  -1.49017
H     5.24164   1.45474  -1.44906
H     3.72877   2.00930  -2.39705
H     3.51467  -0.08164   1.18842
H     3.77419  -1.37696   0.01387
H     5.05925  -0.16967   0.29677
H     1.57405   1.14606  -1.92444
H     1.40974  -0.93042   0.34802
H    -0.62491   0.44808  -1.53230
H    -2.33235   0.52690   2.66150
H    -1.42041   2.46737   4.10113
H    -3.03278   2.78143   3.40144
H    -1.56881   3.42010   2.59832
H    -1.67633  -1.21158  -3.13434
H    -2.83736  -0.73395  -1.86554
H    -2.65915  -2.45795  -2.31147
H     0.68403  -2.93915  -0.67843
H    -0.57036  -3.70453  -1.69411
H     0.52212  -2.48012  -2.39464
