23
Generated by autodE on: 2022-06-17. E = -351.521384 Ha
C    -3.40093  -0.88326  -1.39658
C    -2.41125  -0.80344  -0.48011
C    -2.58176  -1.36489   0.90831
C    -1.14395  -0.16444  -0.82875
C    -0.07503  -0.02445  -0.00494
C     1.16070   0.61740  -0.40477
C     2.27315   0.79391   0.35214
C     3.48450   1.48235  -0.21049
C     2.41243   0.33747   1.77670
H    -4.35880  -1.35648  -1.16327
H    -3.27345  -0.47500  -2.40395
H    -1.82224  -2.13551   1.12107
H    -2.45602  -0.58025   1.67283
H    -3.57607  -1.81548   1.03637
H    -1.07110   0.22811  -1.85019
H    -0.13982  -0.41387   1.01475
H     1.18527   0.99584  -1.43389
H     3.33701   1.79765  -1.25387
H     3.74344   2.37264   0.39048
H     4.36700   0.81885  -0.16742
H     3.26015  -0.36413   1.87123
H     2.65121   1.19457   2.43084
H     1.51539  -0.15540   2.17284
