11
Generated by autodE on: 2022-06-17. E = -376.770398 Ha
C    -1.86409   1.27683  -0.85936
N    -1.75798  -0.11102  -0.45145
C    -0.66902  -0.73921   0.01581
O    -0.62118  -1.92332   0.34646
C     0.54327   0.08810   0.12748
N     1.63356   0.45795   0.32641
O     2.74383   0.88297   0.51619
H    -2.63146   1.79690  -0.26665
H    -0.90375   1.78637  -0.70616
H    -2.13104   1.35107  -1.92444
H    -2.58729  -0.69778  -0.52549
