34
Generated by autodE on: 2022-06-17. E = -728.278399 Ha. Imaginary frequency = -414.6 cm-1
C     3.79067   2.16177  -0.41359
C     3.17397   0.98087  -0.19428
C     3.80250  -0.09417   0.65277
C     1.85525   0.73089  -0.77828
C     1.12598  -0.40058  -0.62383
C    -0.20826  -0.58586  -1.19231
C    -1.49058  -0.15981   0.62623
C    -1.52556   1.15609   1.30478
O    -2.50646   1.49283   1.97245
N    -0.43727   1.91529   1.11936
C    -0.32049   3.23489   1.70700
N    -2.05968  -1.22884   0.75833
O    -2.12312  -2.33340   0.23647
C    -0.70456  -1.82626  -1.59334
C    -1.85400  -1.87237  -2.55754
C     0.07285  -3.09785  -1.40607
H     4.77271   2.38097   0.01445
H     3.32391   2.93763  -1.02818
H     3.16383  -0.33962   1.51764
H     3.92891  -1.02801   0.08011
H     4.78734   0.21848   1.02715
H     1.43732   1.54608  -1.38144
H     1.53869  -1.22714  -0.03968
H    -0.64989   0.29372  -1.67318
H     0.35027   1.52302   0.60501
H    -0.28619   3.18514   2.80742
H    -1.17433   3.86813   1.42174
H     0.60511   3.69781   1.34467
H    -2.46324  -0.95774  -2.51004
H    -2.49990  -2.74477  -2.38056
H    -1.46389  -1.96358  -3.58867
H     0.63528  -3.11509  -0.46272
H    -0.58978  -3.97444  -1.43480
H     0.80348  -3.20964  -2.22846
