29
Generated by autodE on: 2022-06-16. E = -745.724135 Ha. Imaginary frequency = -349.0 cm-1
C    -3.13706   1.56304   0.88202
C    -2.69763   0.64266  -0.21769
C    -1.55879   0.89375  -0.98756
C    -0.70558   2.11264  -0.80312
C    -0.06601  -0.61948   0.18420
C     1.27014  -0.06863   0.19573
C     1.70520   0.72936   1.27254
C     2.98023   1.29074   1.25216
C     3.82945   1.07439   0.16074
C     3.39841   0.28794  -0.91347
C     2.12752  -0.28428  -0.90185
O    -0.84677  -0.52382   1.27443
N    -2.08309  -1.01264   0.98509
O    -1.86052  -1.90663  -0.04330
C    -0.64044  -1.64356  -0.65665
O    -0.28064  -2.22479  -1.65906
H    -3.50091   2.51788   0.46328
H    -3.94956   1.11939   1.47451
H    -2.30324   1.80496   1.55905
H    -3.46394   0.00341  -0.66160
H    -1.48210   0.38671  -1.95318
H    -0.47907   2.30961   0.25583
H     0.24354   2.03156  -1.35076
H    -1.23649   3.00338  -1.18717
H     1.04134   0.90177   2.12086
H     3.31342   1.90464   2.09178
H     4.82682   1.51952   0.14726
H     4.05794   0.11828  -1.76732
H     1.78871  -0.89582  -1.73790
