34
Generated by autodE on: 2022-10-21. E = -1117.540144 Ha
C    -1.39864   4.74137   0.81430
O    -1.45382   3.39941   0.28692
C    -0.65658   2.52273   0.85309
O     0.14824   2.71770   1.72280
N    -0.88547   1.22071   0.28617
N    -2.12339   0.89119  -0.14622
N    -2.09209  -0.33840  -0.52825
C    -0.83235  -0.84469  -0.36478
C    -0.02996   0.14977   0.16383
C     1.43812   0.20921   0.51508
F     1.54243   0.26783   1.88604
F     1.93295   1.40381   0.04223
C     2.31983  -0.92036   0.03050
C     2.53669  -1.02531  -1.48199
C     1.29909  -1.13600  -2.37828
C     0.33141  -2.29210  -2.10950
C    -0.49815  -2.25284  -0.81797
F    -1.72588  -2.86822  -1.09889
O     0.12492  -3.01858   0.15627
C    -0.45838  -2.99471   1.46164
H    -2.13530   5.31286   0.24003
H    -0.39105   5.15589   0.67409
H    -1.65902   4.73496   1.88164
H     3.28843  -0.74193   0.52186
H     1.91709  -1.85358   0.43748
H     3.17664  -1.90752  -1.64605
H     3.11968  -0.15278  -1.81650
H     1.65656  -1.25782  -3.41281
H     0.74313  -0.18437  -2.37596
H    -0.40658  -2.31170  -2.92426
H     0.85872  -3.25908  -2.11622
H    -0.18655  -2.07352   2.00128
H    -0.05141  -3.86058   1.99992
H    -1.55381  -3.08328   1.40790
