10
Generated by autodE on: 2022-10-21. E = -392.847640 Ha
C    -2.70833   0.19401   0.35223
O    -1.54034  -0.53473  -0.06079
C    -0.38111   0.09177   0.07721
O    -0.21916   1.20934   0.51524
N     0.64033  -0.76827  -0.37601
N     1.79102  -0.31504  -0.31011
N     2.87617  -0.01039  -0.29837
H    -2.81148   1.11533  -0.23856
H    -2.64366   0.44369   1.42086
H    -3.55692  -0.47408   0.16759
