24
Generated by autodE on: 2022-10-21. E = -724.584912 Ha
C     1.02644  -3.51925   0.12697
O    -0.20319  -2.88961  -0.23348
C    -0.09599  -1.60768  -0.72093
F     0.62048  -1.63926  -1.93047
C     0.60066  -0.64546   0.15698
C     0.80550   0.42187   0.69099
C     0.48731   1.81218   1.02948
F    -0.09628   1.85482   2.27310
F     1.60709   2.59283   1.12022
C    -0.46511   2.37962  -0.01651
C    -1.69628   1.50861  -0.33255
C    -1.56401   0.42047  -1.43558
C    -1.49706  -1.05539  -1.00011
H     1.56560  -2.92331   0.88361
H     1.67340  -3.65990  -0.75243
H     0.76755  -4.49701   0.55235
H    -0.78000   3.36041   0.37448
H     0.12679   2.56000  -0.92698
H    -2.07413   1.05976   0.60139
H    -2.48067   2.20760  -0.65746
H    -0.70681   0.64480  -2.09188
H    -2.45242   0.50398  -2.07852
H    -2.09708  -1.22225  -0.09271
H    -1.90790  -1.70430  -1.78951
