34
Generated by autodE on: 2022-10-21. E = -1117.414310 Ha. Imaginary frequency = -299.6 cm-1
C    -1.87931   4.78418   0.96835
O    -1.88753   3.34688   0.90536
C    -0.72174   2.74335   1.12900
O     0.32816   3.29523   1.36388
N    -0.80972   1.34640   1.07088
N    -1.88874   0.76178   0.79865
N    -2.31486  -0.23876   0.42111
C    -0.30438  -1.16548  -0.05801
C     0.48578  -0.25579   0.21533
C     1.82713   0.34772   0.14542
F     2.23073   0.77255   1.38271
F     1.78993   1.47090  -0.64341
C     2.83443  -0.65371  -0.40176
C     2.68209  -1.04542  -1.87908
C     1.35959  -1.65939  -2.37924
C     0.78171  -2.82029  -1.54754
C    -0.48620  -2.46573  -0.76524
F    -1.53152  -2.28022  -1.68409
O    -0.79491  -3.53018   0.05506
C    -1.93719  -3.39381   0.90004
H    -2.91170   5.09443   0.77189
H    -1.20414   5.19465   0.20442
H    -1.56236   5.12010   1.96577
H     3.82557  -0.19544  -0.25609
H     2.78810  -1.53700   0.25270
H     3.49532  -1.76192  -2.07961
H     2.89775  -0.16015  -2.49821
H     1.54982  -2.01903  -3.40159
H     0.59771  -0.87234  -2.48906
H     0.50472  -3.67243  -2.18612
H     1.51276  -3.19320  -0.81492
H    -1.77367  -2.62287   1.67014
H    -2.07628  -4.36670   1.38889
H    -2.83756  -3.14610   0.31847
