35
Generated by autodE on: 2022-07-27. E = -932.864935 Ha
C     4.47053  -0.26837   1.31701
N     3.66733  -0.00882   0.13978
C     2.32156  -0.15261   0.15940
O     1.71894  -0.42770   1.21488
C     1.62074   0.00878  -1.12173
C     2.35247   0.11033  -2.31627
N     3.01435   0.20453  -3.27871
N     0.24243  -0.15134  -1.19238
C    -0.28539  -0.74653  -2.43856
C    -0.57734   0.16783  -0.19563
C    -0.15459   1.21327   0.79079
O     0.52991   2.17941   0.51529
O    -0.71409   1.01711   1.98220
C    -0.41567   1.98615   2.99689
C    -1.92145  -0.41435  -0.07532
C    -2.11739  -1.80291  -0.20813
C    -3.39233  -2.35112  -0.07198
C    -4.48859  -1.52523   0.19659
C    -4.30253  -0.14525   0.33767
C    -3.02968   0.40767   0.21034
H     5.48433   0.11526   1.14664
H     4.53744  -1.34526   1.54914
H     4.04084   0.23961   2.19234
H     4.14296   0.11962  -0.74719
H    -1.36874  -0.61724  -2.48439
H    -0.01712  -1.80904  -2.49058
H     0.17270  -0.21751  -3.28357
H    -0.75191   2.98581   2.68686
H    -0.95915   1.66210   3.89152
H     0.66621   2.00513   3.19237
H    -1.26318  -2.45465  -0.39798
H    -3.52904  -3.43043  -0.16901
H    -5.48660  -1.95657   0.30210
H    -5.15518   0.50416   0.54781
H    -2.89211   1.48524   0.31784
