45
Generated by autodE on: 2022-06-01. E = -1255.220717 Ha. Imaginary frequency = -256.3 cm-1
C     4.59400   1.25308   0.56572
N     3.65345   0.85176  -0.46329
C     2.33699   0.76631  -0.19550
O     1.88784   1.06433   0.91752
C     1.47667   0.22737  -1.30195
C     2.16093  -0.20154  -2.47191
N     2.79045  -0.60166  -3.36804
C     1.11155  -1.73887   0.04471
C     2.13256  -2.50444  -0.44941
N     3.00590  -3.14054  -0.90066
C     0.15057  -1.30847   0.72518
C    -0.59311  -1.47021   1.98424
C     0.23675  -1.22461   3.21664
O    -1.75966  -1.82009   2.01988
C    -0.70079   0.51533  -0.31426
C    -0.41943   1.64275   0.65642
O    -0.14665   2.76357   0.28040
O    -0.74354   1.32025   1.90077
C    -0.61378   2.34650   2.89314
C    -2.15654   0.21997  -0.43717
C    -2.60331  -1.06494  -0.79877
C    -3.96552  -1.34283  -0.88292
C    -4.90630  -0.34579  -0.60342
C    -4.47458   0.93202  -0.23777
C    -3.11053   1.21379  -0.15215
N     0.11003   0.38132  -1.40227
C    -0.46844  -0.06025  -2.68959
H     4.37266   2.26727   0.93293
H     5.60418   1.24050   0.14019
H     4.55776   0.56449   1.42436
H     4.01042   0.62933  -1.38646
H    -0.42342  -1.01494   4.06930
H     0.80787  -2.14677   3.42185
H     0.95709  -0.41082   3.06431
H    -1.28423   3.18728   2.66442
H    -0.89541   1.88182   3.84454
H     0.42586   2.70076   2.93317
H    -1.87792  -1.85369  -0.99808
H    -4.29476  -2.34668  -1.15968
H    -5.97426  -0.56644  -0.66694
H    -5.20166   1.71747  -0.02093
H    -2.79122   2.22188   0.11768
H    -1.50473   0.27600  -2.75524
H    -0.41747  -1.15387  -2.78227
H     0.10243   0.40480  -3.50077
