79
Generated by autodE on: 2022-07-03. E = -2036.519616 Ha
C    -1.22454 -10.73053   5.68797
O    -1.51280  -9.51319   4.98061
C    -1.24076  -9.49019   3.68258
O    -0.70918 -10.40360   3.08921
C    -1.53960  -8.09757   3.06173
C    -0.28477  -7.37861   3.64171
O     0.84183  -7.60106   3.24549
O    -0.53170  -6.65779   4.72520
C     0.60030  -6.03445   5.35096
C    -2.85570  -7.41789   3.59317
C    -3.97992  -7.04446   2.61483
C    -5.05196  -8.10534   2.33821
C    -4.82277  -9.08962   1.19011
C    -3.49568  -9.86765   1.10160
F    -3.66248 -10.73649   0.00191
C    -3.37257 -10.84211   2.30205
C    -2.98096 -12.25802   2.00345
O    -3.68385 -10.47920   3.42003
C    -2.30294  -8.96642   0.75878
C    -1.50061  -8.21049   1.53600
C    -0.57837  -7.35265   0.65629
C    -0.75349  -5.83222   0.99417
C    -0.73254  -4.80856  -0.10383
O    -0.90705  -5.48847   2.15299
C     0.91583  -7.75324   0.76999
O     1.31466  -8.89231   0.68221
O     1.71091  -6.68350   0.79063
C     3.12374  -6.92637   0.84983
N    -1.02576  -7.65150  -0.69036
C    -0.13734  -7.44600  -1.81447
C    -1.97676  -8.77487  -0.74121
C    -1.29867 -10.02838  -1.33760
C    -0.65374 -10.95706  -0.50931
C     0.03547 -12.04759  -1.04522
C     0.11031 -12.22313  -2.42979
C    -0.50278 -11.28876  -3.26850
C    -1.19660 -10.20327  -2.72610
C    -3.22931  -8.32003  -1.53288
C    -4.02498  -9.18742  -2.29525
C    -5.18619  -8.72980  -2.92408
C    -5.58103  -7.39504  -2.79950
C    -4.79912  -6.52157  -2.03851
C    -3.63654  -6.98306  -1.41737
H    -1.45717 -10.52756   6.73920
H    -1.85952 -11.54195   5.30625
H    -0.16522 -10.99821   5.57249
H     1.08276  -5.33974   4.64886
H     0.20239  -5.49009   6.21466
H     1.32456  -6.79450   5.67615
H    -2.54108  -6.48658   4.06789
H    -3.26892  -8.04128   4.39481
H    -3.57440  -6.63999   1.67475
H    -4.49782  -6.19856   3.09410
H    -5.26029  -8.64815   3.27064
H    -5.98601  -7.58035   2.07887
H    -4.92507  -8.55742   0.23786
H    -5.61564  -9.85463   1.21098
H    -2.76166 -12.77948   2.94335
H    -2.12596 -12.30667   1.31730
H    -3.82584 -12.75446   1.49842
H    -1.08349  -3.85059   0.30083
H     0.30729  -4.69011  -0.44770
H    -1.33581  -5.10793  -0.96862
H     3.60050  -5.93972   0.85073
H     3.44975  -7.50850  -0.02355
H     3.37120  -7.47134   1.77199
H     0.59660  -8.26001  -1.95880
H    -0.72664  -7.34962  -2.73843
H     0.42379  -6.51373  -1.68740
H    -0.67252 -10.82297   0.57014
H     0.51901 -12.76080  -0.37315
H     0.64794 -13.07573  -2.85157
H    -0.44113 -11.40044  -4.35378
H    -1.65652  -9.48229  -3.40178
H    -3.75654 -10.23739  -2.38650
H    -5.78808  -9.42676  -3.51242
H    -6.49068  -7.03989  -3.28965
H    -5.09474  -5.47598  -1.92323
H    -3.04209  -6.30167  -0.81280
