42
Generated by autodE on: 2022-07-03. E = -1016.362523 Ha
C     4.04109   0.76554   2.00972
O     2.88886   0.31761   1.29688
C     2.84720   0.61422  -0.03929
O     3.74309   1.28194  -0.55736
C     1.67173   0.09641  -0.67123
C     1.24792   0.36101  -2.01275
C     2.11809   1.21713  -2.90975
O     0.17037  -0.08488  -2.46741
N     0.81476  -0.78585   0.06888
C     1.36307  -2.11590   0.36864
C    -0.45544  -0.48591   0.22637
C    -1.46991  -1.52771   0.46846
C    -1.56419  -2.63603  -0.39265
C    -2.56430  -3.58699  -0.19546
C    -3.46554  -3.44836   0.86582
C    -3.38012  -2.34338   1.71979
C    -2.39847  -1.37470   1.51315
C    -0.90776   0.91706   0.18118
C    -0.19658   1.92101   0.86459
C    -0.66362   3.23320   0.85424
C    -1.82918   3.56038   0.14936
C    -2.53955   2.56584  -0.52885
C    -2.08914   1.24488  -0.50370
H     3.91153   0.42210   3.04367
H     4.96131   0.33521   1.58647
H     4.11744   1.86308   1.98895
H     3.12772   0.79622  -3.01893
H     1.63401   1.28877  -3.89315
H     2.24115   2.22498  -2.48475
H     0.74296  -2.63221   1.10930
H     2.37197  -1.97372   0.77157
H     1.42729  -2.71026  -0.55300
H    -0.87466  -2.72646  -1.23269
H    -2.64386  -4.43746  -0.87587
H    -4.24379  -4.19895   1.02153
H    -4.08721  -2.23160   2.54443
H    -2.33646  -0.50407   2.16827
H     0.70547   1.66253   1.41962
H    -0.11774   4.00570   1.40017
H    -2.18709   4.59244   0.13675
H    -3.45017   2.81783  -1.07650
H    -2.64017   0.46540  -1.03187
