68
Generated by autodE on: 2022-07-01. E = -1693.753116 Ha
C    55.44443  48.76662   8.12889
O    54.27757  48.30990   8.83773
C    53.29099  47.81277   8.10260
O    53.30386  47.72449   6.89303
C    52.12080  47.39505   8.94480
N    51.47936  48.26145   9.64747
C    50.35678  47.52637  10.28695
C    49.14865  48.19825   9.60309
O    48.59574  47.74763   8.62195
O    48.85991  49.37987  10.12849
C    47.80430  50.12998   9.50371
C    50.48169  47.69456  11.80608
C    51.71098  47.34633  12.38813
C    51.89396  47.41980  13.76895
C    50.85056  47.85732  14.59189
C    49.63146  48.21947  14.01691
C    49.44546  48.13714  12.63413
C    50.50738  46.06409   9.83758
C    51.58978  46.02755   9.01980
C    52.18145  44.87261   8.27726
F    53.58196  45.03423   8.26105
C    51.67571  44.74889   6.84740
C    50.14703  44.75882   6.75922
C    49.41513  43.81587   7.73939
C    48.75099  44.47415   8.95958
C    49.60481  44.88510  10.21395
C    50.43799  43.68615  10.72181
C    51.68937  43.85277  11.33331
C    52.38596  42.76587  11.86834
C    51.84223  41.48068  11.80650
C    50.59153  41.30035  11.20960
C    49.89857  42.39095  10.67804
C    48.61173  45.26758  11.34874
C    47.40573  45.93309  11.06919
C    46.50682  46.26445  12.08726
C    46.78721  45.93299  13.41412
C    47.98063  45.26973  13.70772
C    48.87682  44.94172  12.68900
H    56.13891  49.12693   8.89574
H    55.17604  49.58039   7.44064
H    55.89246  47.93710   7.56374
H    46.86293  49.56418   9.54379
H    48.06098  50.34786   8.45751
H    47.71713  51.05821  10.07907
H    52.53731  47.01839  11.75494
H    52.85635  47.13755  14.20210
H    50.98979  47.91562  15.67390
H    48.80467  48.55545  14.64664
H    48.47662  48.39613  12.21626
H    51.98988  43.94178   8.82228
H    52.08027  43.81027   6.43438
H    52.08849  45.58034   6.25720
H    49.87891  44.48590   5.72699
H    49.78011  45.78729   6.90433
H    50.07462  42.98739   8.04351
H    48.58927  43.33509   7.19215
H    48.23164  45.37183   8.60712
H    47.96732  43.79846   9.32953
H    52.13375  44.84434  11.39735
H    53.35912  42.92988  12.33738
H    52.38558  40.62855  12.22144
H    50.14728  40.30346  11.15629
H    48.91775  42.22040  10.23469
H    47.15096  46.20905  10.04865
H    45.57980  46.78465  11.83400
H    46.08493  46.18997  14.21054
H    48.22475  45.00886  14.74013
H    49.80248  44.43395  12.95414
