68
Generated by autodE on: 2022-07-01. E = -1693.631384 Ha. Imaginary frequency = -236.0 cm-1
C    55.51330  48.34398   7.39220
O    54.42514  48.01687   8.27745
C    53.28825  48.67641   8.08653
O    53.09517  49.55960   7.27982
C    52.22960  48.13222   8.94592
N    51.62783  48.48074   9.92552
C    50.76334  48.27892  10.89730
C    49.51315  49.05893  10.70436
O    49.25245  49.63297   9.65977
O    48.73132  49.10667  11.78375
C    47.59272  49.97795  11.72580
C    51.23770  47.62652  12.13125
C    52.62147  47.41467  12.31380
C    53.10157  46.76090  13.44723
C    52.21601  46.30390  14.42868
C    50.84393  46.50696  14.25727
C    50.35453  47.15922  13.12569
C    50.55999  45.77708   9.29886
C    51.43504  46.11743   8.49625
C    52.31629  45.65937   7.40294
F    52.45696  46.64910   6.41255
C    51.74819  44.39276   6.76657
C    51.53638  43.26184   7.79601
C    50.08093  42.89044   8.13010
C    49.09362  43.97396   8.58571
C    49.50628  44.87421   9.81201
C    50.04198  43.98632  10.94165
C    51.30124  44.19242  11.51466
C    51.77808  43.35230  12.52665
C    50.99973  42.28676  12.98147
C    49.74036  42.06613  12.41166
C    49.27009  42.90437  11.39974
C    48.27188  45.70180  10.23258
C    47.70127  46.57723   9.29255
C    46.55255  47.30805   9.59460
C    45.95485  47.19068  10.85427
C    46.53145  46.35024  11.80659
C    47.67831  45.60887  11.49733
H    55.22708  48.11478   6.35593
H    55.77602  49.40687   7.48295
H    56.35222  47.71386   7.70669
H    47.92870  51.02562  11.74659
H    47.00417  49.79795  10.81921
H    46.99630  49.75285  12.61681
H    53.32919  47.76839  11.56201
H    54.17724  46.61045  13.56484
H    52.59242  45.78989  15.31574
H    50.13867  46.14287  15.00810
H    49.28337  47.28721  13.00265
H    53.33007  45.47505   7.79468
H    52.44935  44.07776   5.97853
H    50.80165  44.66041   6.26987
H    52.01557  42.34540   7.41719
H    52.07495  43.50604   8.72578
H    50.11275  42.09454   8.89118
H    49.62944  42.42793   7.23494
H    48.14372  43.47754   8.83971
H    48.86950  44.65178   7.74981
H    51.91806  45.02244  11.17223
H    52.76223  43.54085  12.96101
H    51.36957  41.62974  13.77223
H    49.12125  41.23355  12.75456
H    48.28683  42.71657  10.96498
H    48.16939  46.69861   8.31387
H    46.12797  47.98091   8.84587
H    45.05877  47.76667  11.09554
H    46.09028  46.26452  12.80261
H    48.10899  44.96113  12.25902
