21
Generated by autodE on: 2022-06-01. E = -797.432672 Ha
C     3.30205  -0.09478   0.44234
C     2.01316   0.55387   0.02748
O     1.90025   1.76211  -0.13422
C     0.86033  -0.35211  -0.17892
C    -0.45264  -0.06666  -0.23171
C    -1.16579   1.24128  -0.10221
F    -0.95283   2.04665  -1.15677
F    -0.80325   1.91995   1.00042
F    -2.49709   1.04622  -0.01862
C    -1.16585  -1.43798  -0.31358
C    -0.97085  -2.11826   1.06174
C     0.33017  -2.41390   1.11340
C     0.90606  -1.90521  -0.22754
O    -0.20518  -2.15145  -1.10421
H     4.05643   0.66935   0.66847
H     3.66387  -0.74644  -0.37053
H     3.13828  -0.74257   1.31940
H    -2.16793  -1.44716  -0.75244
H    -1.75344  -2.24757   1.80793
H     0.91771  -2.85953   1.91484
H     1.83258  -2.35950  -0.59038
