20
Generated by autodE on: 2022-06-01. E = -661.173982 Ha
C     2.09640  -2.20210  -1.32989
N     1.02240  -2.66150  -0.46575
C     0.01002  -1.94547   0.06730
O    -0.98826  -2.49040   0.56446
C     0.13687  -0.47447   0.05828
C     1.27665   0.33449   0.32865
O     2.45516   0.14348   0.54609
O     0.76106   1.67327   0.34690
C    -0.55415   1.61849   0.13898
C    -1.34558   2.78227   0.07895
N    -1.99034   3.75114   0.03598
N    -0.95663   0.36361  -0.01840
C    -2.34388  -0.04144  -0.25637
H     2.29316  -2.97591  -2.08465
H     3.02667  -2.00530  -0.77750
H     1.80192  -1.28346  -1.85438
H     0.91482  -3.66631  -0.34863
H    -2.37557  -0.69577  -1.13526
H    -2.71187  -0.58615   0.61924
H    -2.94683   0.85609  -0.43326
