20
Generated by autodE on: 2022-07-27. E = -661.182098 Ha
C    -3.12262   2.65117   0.21797
N    -2.01881   1.76778   0.53133
C    -1.38095   1.07172  -0.43273
O    -1.69762   1.13618  -1.63053
C    -0.27858   0.23112   0.05278
C     0.17846   0.08852   1.39248
O    -0.15926   0.55635   2.46516
O     1.26314  -0.82483   1.31005
C     1.41354  -1.17689   0.02905
C     2.42089  -2.07036  -0.38025
N     3.25807  -2.81073  -0.70808
N     0.51573  -0.56845  -0.73853
C     0.41786  -0.74214  -2.19002
H    -3.93737   2.10943  -0.28816
H    -3.50947   3.07745   1.15140
H    -2.80631   3.47515  -0.44232
H    -1.70112   1.67216   1.49346
H     1.19303  -1.44791  -2.50812
H     0.56150   0.22923  -2.67527
H    -0.57637  -1.12962  -2.43667
