41
Generated by autodE on: 2022-06-01. E = -1458.605905 Ha. Imaginary frequency = -371.8 cm-1
C    -4.92503   0.90092   0.75889
N    -3.85339  -0.02821   1.05508
C    -3.12623  -0.59353   0.07549
O    -3.33550  -0.40304  -1.12995
C    -2.00371  -1.43399   0.54669
C    -1.64265  -1.70877   1.92274
O    -2.09730  -1.33310   2.98509
O    -0.55366  -2.57057   1.85357
C    -0.20602  -2.65683   0.51480
C     0.67271  -3.71587   0.14002
N     1.45328  -4.51793  -0.17246
C     0.91087  -0.86679   0.53533
C     1.36611  -0.54215  -0.90476
O     0.12550  -0.12840  -1.49010
C    -0.18191   0.88272  -0.52827
C     1.12204   1.71047  -0.59580
C     1.19430   3.17340  -0.28984
F     1.57941   3.89933  -1.35236
F     2.04216   3.44969   0.71564
F    -0.01673   3.63308   0.08495
C     2.10254   0.81955  -0.83888
C     3.56904   1.02658  -0.88854
C     4.41825  -0.20897  -0.81485
O     4.03979   2.15196  -0.98625
C    -0.08614   0.08232   0.78155
N    -1.29984  -2.30924  -0.23076
C    -1.47683  -2.60667  -1.64888
H    -5.68087   0.43781   0.10603
H    -5.40354   1.19961   1.69911
H    -4.54601   1.80246   0.25053
H    -3.59985  -0.22512   2.02192
H     1.61234  -1.23176   1.28598
H     1.84450  -1.34278  -1.47665
H    -1.11584   1.40535  -0.75349
H     4.13006  -0.81914   0.05705
H     4.23992  -0.82939  -1.70922
H     5.47991   0.06211  -0.75695
H    -0.36738   0.49984   1.74662
H    -0.77543  -3.40589  -1.91716
H    -1.28216  -1.71916  -2.25622
H    -2.50345  -2.95689  -1.80926
