52
Generated by autodE on: 2022-06-24. E = -1151.616363 Ha
C    -2.81151   0.41775   1.96321
C    -2.69789   0.70939   0.65934
C    -3.44904   1.83628   0.00963
C    -1.77388  -0.05218  -0.27853
C    -1.26609  -1.34220   0.30850
C    -2.16027  -2.54689   0.42083
O    -3.26548  -2.56179  -0.13395
N    -1.67372  -3.55636   1.15557
C    -2.39771  -4.79721   1.33597
N    -0.05899  -1.34222   0.72516
C     0.50921   0.00206   0.51754
C     0.44358   0.78993   1.84053
O     0.38635   2.00062   1.89837
O     0.50045   0.00420   2.91106
C     0.43448   0.65345   4.19114
C     1.97536  -0.04258   0.09868
C     2.67636   1.15679  -0.10281
C     4.00103   1.13773  -0.54086
C     4.64511  -0.08087  -0.78355
C     3.95291  -1.27688  -0.58037
C     2.62493  -1.25859  -0.14020
C    -0.43010   0.68912  -0.54789
C     0.03782   0.47196  -1.95466
C     0.51049   1.39930  -2.80652
C     0.67313   2.85824  -2.47883
C     0.96211   1.01406  -4.18996
H    -3.46645   1.00534   2.61285
H    -2.26157  -0.40192   2.43255
H    -4.05042   2.39996   0.73718
H    -4.11885   1.44810  -0.77687
H    -2.75466   2.53420  -0.48823
H    -2.31555  -0.24030  -1.21745
H    -0.74084  -3.44477   1.54137
H    -2.44529  -5.37911   0.40043
H    -1.89230  -5.39948   2.10035
H    -3.42960  -4.59814   1.66228
H     0.49098  -0.14730   4.93713
H     1.27638   1.34982   4.31185
H    -0.51418   1.20081   4.28846
H     2.17936   2.11094   0.07554
H     4.53152   2.07995  -0.69752
H     5.68146  -0.09610  -1.12901
H     4.44595  -2.23428  -0.76581
H     2.08738  -2.19363   0.01429
H    -0.50584   1.75569  -0.32076
H    -0.00624  -0.56716  -2.30314
H     0.27375   3.13694  -1.49526
H     0.17813   3.48249  -3.24261
H     1.74269   3.13176  -2.49980
H     0.83176  -0.06094  -4.38358
H     0.40568   1.57834  -4.95900
H     2.02813   1.26580  -4.33265
