23
Generated by autodE on: 2022-06-24. E = -351.521383 Ha
C     3.61324  -1.07785  -0.28713
C     2.57349  -0.25004  -0.04342
C     2.79296   1.17102   0.40916
C     1.20340  -0.72842  -0.21716
C     0.07867  -0.00087  -0.00175
C    -1.25908  -0.52470  -0.18797
C    -2.42924   0.13384   0.00913
C    -2.53348   1.56111   0.46683
C    -3.74609  -0.54963  -0.22875
H     4.64812  -0.74634  -0.16466
H     3.45047  -2.10914  -0.61529
H     2.34656   1.88747  -0.30037
H     2.31418   1.35574   1.38518
H     3.86433   1.39842   0.50145
H     1.09782  -1.76825  -0.54941
H     0.17680   1.03638   0.32965
H    -1.31634  -1.56711  -0.52411
H    -3.08651   2.16117  -0.27735
H    -3.11787   1.62020   1.40204
H    -1.56227   2.04218   0.63990
H    -4.33723  -0.00682  -0.98821
H    -3.62087  -1.58984  -0.56357
H    -4.35881  -0.54988   0.69074
