29
Generated by autodE on: 2022-06-24. E = -800.015535 Ha
C     3.80048   1.24496   0.84089
N     3.83733  -0.20690   0.91371
C     2.89803  -1.01141   0.39472
O     2.84004  -2.23760   0.51462
C     1.88125  -0.33893  -0.44074
N     0.74789   0.00941  -0.28337
C    -0.49556   0.38647  -0.20593
C    -0.72215   1.81173   0.10162
O    -1.81220   2.34017   0.24103
O     0.43542   2.48386   0.22394
C     0.34022   3.87978   0.53147
C    -1.55200  -0.62667  -0.38750
C    -2.89924  -0.27854  -0.60975
C    -3.86339  -1.27113  -0.79723
C    -3.51118  -2.62337  -0.77138
C    -2.17559  -2.97884  -0.55234
C    -1.20700  -1.99570  -0.35892
H     3.46550   1.56797  -0.15611
H     3.12416   1.68190   1.59277
H     4.81220   1.63679   1.00347
H     4.51973  -0.65698   1.52007
H    -0.17433   4.03080   1.49166
H     1.37214   4.24393   0.59506
H    -0.20317   4.41469  -0.26108
H    -3.18698   0.76987  -0.63789
H    -4.90226  -0.97967  -0.96993
H    -4.27042  -3.39499  -0.91770
H    -1.88500  -4.03166  -0.52395
H    -0.17265  -2.29272  -0.17326
