52
Generated by autodE on: 2022-06-24. E = -1151.538064 Ha. Imaginary frequency = -325.5 cm-1
C    -2.92036   0.60258   1.71656
C    -2.90648  -0.12150   0.58220
C    -4.09589  -0.93900   0.14842
C    -1.74107  -0.18850  -0.33947
C    -0.71066  -1.77331   0.70910
C    -1.51523  -2.99974   0.91771
O    -1.50574  -3.88757   0.06186
N    -2.24992  -3.00415   2.04117
C    -3.25758  -4.02138   2.28217
N     0.39530  -1.40669   1.03258
C     1.23186  -0.35771   1.02322
C     1.04668   0.60818   2.10906
O     1.63475   1.67658   2.23204
O     0.11541   0.20271   2.99817
C    -0.18970   1.10817   4.06221
C     2.34010  -0.35410   0.07429
C     3.31717   0.66350   0.04394
C     4.31750   0.66192  -0.92895
C     4.36983  -0.34086  -1.90064
C     3.40449  -1.35524  -1.88434
C     2.40687  -1.36429  -0.91332
C    -0.78943   0.82252  -0.48803
C     0.03679   0.90777  -1.66019
C     0.91844   1.89328  -1.98193
C     1.68133   1.84457  -3.27226
C     1.17343   3.09968  -1.12230
H    -3.80623   0.62312   2.35711
H    -2.06330   1.20099   2.02868
H    -4.87807  -0.96813   0.92023
H    -3.80609  -1.97333  -0.09894
H    -4.53102  -0.51678  -0.77437
H    -1.89151  -0.83374  -1.21208
H    -2.26456  -2.15342   2.59940
H    -2.83223  -5.02356   2.13463
H    -3.60961  -3.93319   3.31699
H    -4.11691  -3.90367   1.60081
H    -0.99697   0.63798   4.63579
H     0.69029   1.26203   4.70427
H    -0.52310   2.07916   3.66844
H     3.28211   1.45956   0.78251
H     5.06002   1.46364  -0.93017
H     5.15177  -0.33380  -2.66325
H     3.42910  -2.14763  -2.63634
H     1.66342  -2.16337  -0.91838
H    -0.77588   1.64500   0.22996
H    -0.06485   0.07705  -2.36799
H     2.76873   1.81069  -3.08140
H     1.50176   2.75637  -3.87073
H     1.41222   0.96882  -3.88073
H     0.66702   3.98705  -1.54577
H     2.24889   3.33706  -1.10113
H     0.83436   2.97336  -0.08661
