33
Generated by autodE on: 2022-06-16. E = -690.298832 Ha
C     3.35837   0.49197   1.88912
O     2.43575   0.65618   0.80063
C     1.57466  -0.33840   0.58011
O     1.55150  -1.35729   1.24302
C     0.64125  -0.04989  -0.59743
C     1.49570   0.06909  -1.86814
N    -0.33443  -1.13837  -0.74710
C    -1.64092  -0.72095  -0.23592
C    -2.76891  -1.58899  -0.79672
C    -1.69783  -0.82407   1.24964
N    -1.72272  -0.92796   2.40653
C    -1.67712   0.78677  -0.61669
C    -2.08976   1.02769  -2.06671
C    -0.23200   1.21654  -0.26499
C     0.23921   2.53331  -0.86500
H     3.99092  -0.39205   1.72497
H     3.97147   1.40024   1.90500
H     2.81455   0.38267   2.83836
H     2.01453  -0.88439  -2.05311
H     2.25243   0.85948  -1.77986
H     0.85390   0.28469  -2.73271
H    -0.00464  -1.99412  -0.30286
H    -2.73281  -1.58015  -1.89346
H    -3.74986  -1.21993  -0.46231
H    -2.65262  -2.62823  -0.45417
H    -2.38710   1.31455   0.03785
H    -3.13124   0.71849  -2.23675
H    -2.02643   2.09969  -2.30285
H    -1.44993   0.48503  -2.77727
H    -0.21063   1.33563   0.82969
H     0.27388   2.50925  -1.96277
H    -0.44150   3.34648  -0.56743
H     1.24454   2.78759  -0.49863
