21
Generated by autodE on: 2022-06-16. E = -532.937432 Ha
C     3.88671   0.62253  -0.54137
O     2.70961   0.10729   0.08749
C     1.53438   0.42690  -0.48330
O     1.45697   1.12525  -1.49680
C     0.38423  -0.12610   0.20695
C     0.44457  -0.97472   1.42772
N    -0.77256   0.21265  -0.38131
C    -2.06576  -0.03112  -0.13980
C    -3.10746   0.54083  -1.06001
C    -2.50472  -0.80838   0.95427
N    -2.99377  -1.42880   1.81739
H     3.97117   0.25332  -1.57430
H     4.73223   0.26192   0.05645
H     3.87415   1.72263  -0.55115
H    -0.08624  -0.50716   2.27430
H     1.48763  -1.13199   1.72312
H    -0.01794  -1.96161   1.25714
H    -0.60424   0.79824  -1.21153
H    -3.71170  -0.25635  -1.52363
H    -3.79834   1.20640  -0.51655
H    -2.62948   1.12153  -1.86269
