21
Generated by autodE on: 2022-07-27. E = -532.927576 Ha
C     3.06573   1.14955   1.11130
O     2.18079   1.07693  -0.00822
C     1.09525   0.27738   0.13398
O     0.86954  -0.33537   1.17510
C     0.33461   0.19671  -1.09285
C     0.88160   0.71677  -2.38755
N    -0.84023  -0.46130  -1.13112
C    -1.75421  -0.84120  -0.22084
C    -2.83248  -1.79929  -0.63761
C    -1.79368  -0.28909   1.07256
N    -1.96468   0.17467   2.13321
H     2.54162   1.52918   2.00132
H     3.49225   0.16125   1.34082
H     3.86483   1.84319   0.82295
H     0.82141   1.81802  -2.44065
H     1.93955   0.44398  -2.51712
H     0.30917   0.31510  -3.23809
H    -1.11738  -0.72174  -2.08392
H    -2.95168  -1.78556  -1.73276
H    -2.59134  -2.83529  -0.34106
H    -3.79542  -1.53528  -0.17644
