49
Generated by autodE on: 2022-06-23. E = -1091.468999 Ha
C    -2.98808  -2.18683  -2.47814
N    -2.48633  -1.12119  -1.63587
C    -2.49335  -1.19551  -0.30053
O    -3.02562  -2.11927   0.33137
C    -1.84711  -0.00714   0.44503
C    -2.97908   0.91872   0.90286
N    -0.88676   0.69624  -0.41752
C     0.49360   0.60047   0.10598
C     0.72048   1.91482   0.91365
O     0.28769   2.08318   2.06209
N     1.29171   2.92798   0.23923
C     1.43210   4.24749   0.82359
C     1.53190   0.45042  -1.00477
C     1.16014   0.22945  -2.33633
C     2.12603   0.04464  -3.33100
C     3.48466   0.08016  -3.00955
C     3.86950   0.31030  -1.68444
C     2.90308   0.49635  -0.69443
C     0.43154  -0.69478   1.02088
C     0.53841  -1.95594   0.14173
C     1.50954  -0.76430   2.10571
C    -0.98567  -0.53768   1.61679
C    -1.59542  -1.64635   2.42489
O    -1.03688  -2.67073   2.77869
H    -3.08232  -1.82130  -3.50858
H    -3.97567  -2.51727  -2.12631
H    -2.31386  -3.06047  -2.47335
H    -1.88156  -0.39852  -2.01988
H    -3.69252   0.37675   1.53950
H    -3.52691   1.31401   0.03354
H    -2.55930   1.76078   1.47243
H    -1.16243   1.66079  -0.58407
H     1.66773   2.75624  -0.68660
H     2.06332   4.22028   1.72612
H     0.45178   4.65964   1.11021
H     1.89668   4.91371   0.08657
H     0.10274   0.19833  -2.59408
H     1.81089  -0.12675  -4.36320
H     4.24004  -0.06313  -3.78583
H     4.92872   0.34925  -1.41922
H     3.22350   0.69238   0.32967
H    -0.09745  -1.90668  -0.75143
H     0.24740  -2.83804   0.72522
H     1.57214  -2.09782  -0.20308
H     1.33955  -1.65606   2.72522
H     1.49622   0.11656   2.75951
H     2.51099  -0.85852   1.66243
H    -0.93723   0.29209   2.34070
H    -2.61334  -1.40872   2.80801
