14
Generated by autodE on: 2022-06-23. E = -270.687343 Ha
C    -1.41172  -1.34583   0.10320
C    -0.97130   0.08740   0.08671
C    -2.08187   1.08716   0.19944
C     0.31712   0.50661  -0.01989
C     1.48296  -0.35142  -0.13747
O     2.63128   0.07622  -0.22807
H    -2.11703  -1.52207  -0.72673
H    -1.97420  -1.54585   1.03098
H    -0.59441  -2.07201   0.02725
H    -2.80244   0.94743  -0.62499
H    -2.64770   0.92117   1.13254
H    -1.71588   2.12292   0.18249
H     0.53323   1.58032  -0.02106
H     1.30517  -1.45017  -0.14461
