35
Generated by autodE on: 2022-07-27. E = -820.734367 Ha
C    -3.29761  -2.55148  -1.66861
N    -2.81101  -2.04092  -0.40521
C    -2.11465  -0.88454  -0.28528
O    -1.80205  -0.19294  -1.26305
C    -1.80593  -0.47279   1.09581
C    -2.70809  -0.84040   2.23602
N    -0.77232   0.32464   1.35767
C     0.34319   0.73669   0.70973
C     1.06678   1.73327   1.50476
O     0.57481   2.17288   2.57107
N     2.28530   2.14310   1.08297
C     3.07595   3.08631   1.84428
C     0.89043   0.06920  -0.47999
C     1.38061   0.80487  -1.57558
C     1.95017   0.15893  -2.67657
C     2.03055  -1.23520  -2.71282
C     1.53567  -1.97999  -1.63453
C     0.97395  -1.33765  -0.53318
H    -4.39933  -2.58580  -1.69269
H    -2.91793  -3.56860  -1.85411
H    -2.94826  -1.89437  -2.47336
H    -3.01480  -2.57378   0.43309
H    -2.57861  -1.89564   2.54074
H    -3.76986  -0.70483   1.97621
H    -2.48426  -0.22366   3.11976
H    -0.78896   0.77296   2.28896
H     2.69280   1.71269   0.26105
H     3.96094   3.36237   1.25726
H     2.49998   3.99878   2.06303
H     3.41239   2.66461   2.80712
H     1.29871   1.89361  -1.57225
H     2.32264   0.75168  -3.51566
H     2.47131  -1.74050  -3.57526
H     1.59383  -3.07119  -1.65139
H     0.59417  -1.93217   0.30081
