45
Generated by autodE on: 2022-05-31. E = -1510.773653 Ha
C    -3.11574  -1.67394  -2.50850
N    -2.66140  -0.97719  -1.32351
C    -1.58584  -1.38342  -0.64154
O    -1.01136  -2.45442  -0.86023
C    -1.06527  -0.46230   0.51023
C    -2.21921   0.35353   1.13356
O    -2.94817   1.07670   0.43514
N    -2.34963   0.23149   2.45460
C    -3.31044   0.99754   3.22007
N    -0.38895  -1.27783   1.51031
C     1.01980  -1.45573   1.14980
C     1.43401  -0.21445   0.30957
C     2.20391  -0.75985  -0.88283
O     1.71492  -1.32633  -1.83637
O     3.52564  -0.64316  -0.71046
C     4.36139  -1.21527  -1.72623
C     2.19439   0.82758   1.17097
C     2.55225   2.06602   0.31755
C     1.19383   2.80612   0.18532
C     0.20050   1.83444   0.85293
C     1.05341   1.36929   2.05009
C     0.06364   0.52846   0.00946
Cl   -0.22520   0.96257  -1.73454
H    -3.21411  -2.75116  -2.31150
H    -2.40901  -1.54367  -3.34640
H    -4.09368  -1.27579  -2.80701
H    -3.01511  -0.04676  -1.09897
H    -1.62020  -0.31456   2.91132
H    -2.96167   2.02983   3.39241
H    -4.26719   1.04529   2.68200
H    -3.46857   0.51317   4.19202
H    -0.84420  -2.18751   1.56830
H     1.16630  -2.37609   0.56675
H     1.64540  -1.52401   2.05229
H     4.17274  -2.29481  -1.81616
H     4.17413  -0.73027  -2.69505
H     5.39370  -1.03475  -1.40512
H     3.04503   0.37743   1.69591
H     2.97806   1.79265  -0.65688
H     3.29962   2.68131   0.83920
H     0.92893   3.05034  -0.84917
H     1.19236   3.74320   0.76058
H    -0.76834   2.29533   1.07071
H     1.36630   2.21745   2.67589
H     0.57678   0.61471   2.68471
