23
Generated by autodE on: 2022-05-31. E = -960.479088 Ha
C     3.69047  -0.40668  -0.84211
O     2.27230  -0.31326  -1.01540
C     1.57463   0.22442   0.00476
O     2.10580   0.62142   1.02769
C     0.14094   0.25960  -0.29363
C    -0.88513   0.41656   0.57719
Cl   -0.82909   0.63654   2.28525
C    -2.18553   0.15146  -0.14649
C    -2.19433  -1.39160  -0.41579
C    -1.04272  -1.57428  -1.44477
C    -0.50612  -0.11938  -1.62436
C    -1.81763   0.68815  -1.54519
H     4.13094   0.59163  -0.70256
H     3.93493  -1.03377   0.02801
H     4.07891  -0.86578  -1.75879
H    -3.08288   0.54182   0.34675
H    -2.04541  -1.96275   0.51137
H    -3.16698  -1.68025  -0.83974
H    -0.25248  -2.25252  -1.09389
H    -1.41964  -1.95877  -2.40395
H     0.12998   0.03208  -2.50320
H    -2.54902   0.40546  -2.31692
H    -1.65675   1.77584  -1.55929
