22
Generated by autodE on: 2022-07-27. E = -550.236472 Ha
C     2.45237  -1.17896   1.08401
N     1.51964  -1.05803   0.18387
C     0.41085  -0.27344  -0.02423
C    -0.16721  -0.56452  -1.34706
O     0.34420  -1.47104  -2.05184
N    -1.22728   0.16276  -1.74741
C    -1.89521  -0.02074  -3.01510
C    -0.15239   0.66817   0.92564
O    -1.04026   1.49205   0.59542
N     0.29700   0.64986   2.21415
C    -0.31791   1.49913   3.21669
H     3.22837  -1.92242   0.90361
H     2.49465  -0.53900   1.96230
H     1.59254  -1.67677  -0.64826
H    -1.52226   0.88995  -1.09215
H    -1.42079  -0.84598  -3.55925
H    -1.83372   0.88813  -3.63645
H    -2.96155  -0.26206  -2.87354
H     0.76172  -0.18525   2.55234
H    -1.37559   1.24030   3.39854
H     0.23735   1.39287   4.15744
H    -0.27999   2.55219   2.90361
