28
Generated by autodE on: 2022-07-27. E = -761.903780 Ha
C     3.23480   4.12315   0.28051
O     2.87538   2.85346  -0.26609
C     1.74537   2.29470   0.21577
O     1.04748   2.83759   1.07907
N     1.51684   1.09420  -0.37681
N     0.38846   0.55648   0.10718
C    -0.09038  -0.59516  -0.26682
C     0.73591  -1.35746  -1.29112
C     0.50832  -0.99081  -2.72175
O     1.48486  -2.23483  -0.91012
C    -1.33847  -1.14333   0.25382
C    -2.24466  -0.35612   0.99773
C    -3.42557  -0.91094   1.48178
C    -3.73291  -2.25381   1.22875
C    -2.84860  -3.03906   0.48447
C    -1.66135  -2.49254  -0.00174
H     3.41225   4.05057   1.36435
H     4.15979   4.42182  -0.22814
H     2.44879   4.87066   0.09429
H    -0.10021   1.12047   0.82424
H    -0.52938  -1.26008  -2.98417
H     0.60625   0.09773  -2.85189
H     1.21228  -1.52772  -3.37126
H    -2.04170   0.70000   1.18751
H    -4.11715  -0.28867   2.05366
H    -4.66290  -2.68321   1.60763
H    -3.08160  -4.08633   0.28106
H    -0.97665  -3.12334  -0.56998
