14
Generated by autodE on: 2022-06-17. E = -270.687346 Ha
C    -1.58473  -1.38194  -1.06575
C    -0.81524  -0.23225  -0.48998
C    -1.45441   1.11064  -0.68120
C     0.36518  -0.45068   0.14727
C     1.20624   0.56847   0.74979
O     2.26572   0.32141   1.32105
H    -2.59429  -1.42255  -0.62126
H    -1.08280  -2.34545  -0.90224
H    -1.73310  -1.23335  -2.14944
H    -2.45704   1.10803  -0.22072
H    -1.61222   1.29174  -1.75795
H    -0.88182   1.94804  -0.26638
H     0.74596  -1.47387   0.23466
H     0.85480   1.62219   0.67991
