24
Generated by autodE on: 2022-06-17. E = -626.436014 Ha
C     3.72607  -0.56324   0.55201
N     2.38322  -0.89460   0.13186
C     1.38473   0.00617   0.20263
O     1.58975   1.17100   0.59850
C     0.02818  -0.48675  -0.16760
C    -0.22887  -1.81137  -0.68543
C    -1.56148  -2.14782  -1.32756
O     0.64979  -2.70026  -0.70534
N    -1.01929   0.40526   0.03874
C    -2.27541  -0.05267   0.67729
C    -0.87723   1.69859  -0.18687
C    -1.82846   2.64294   0.25896
N    -2.59178   3.45962   0.59103
H     3.79306  -0.39757   1.64125
H     4.08076   0.35334   0.05533
H     4.39610  -1.39061   0.28555
H     2.11207  -1.84677  -0.12695
H    -2.18852  -2.71402  -0.62038
H    -1.35144  -2.81098  -2.17863
H    -2.12805  -1.27796  -1.68114
H    -2.44137   0.55403   1.57755
H    -3.11792   0.07740  -0.01260
H    -2.17270  -1.09585   0.97935
H    -0.01589   2.05713  -0.74518
