24
Generated by autodE on: 2022-07-27. E = -626.436479 Ha
C     3.25354  -1.73676   0.85814
N     2.19340  -0.76060   0.74208
C     1.25497  -0.86546  -0.21866
O     1.29728  -1.76631  -1.07674
C     0.15217   0.13326  -0.18936
C     0.06545   1.20851   0.78609
C    -0.78698   2.43750   0.53644
O     0.78864   1.22410   1.80091
N    -0.78395   0.03686  -1.20272
C    -0.38446  -0.22335  -2.60666
C    -2.07819   0.22302  -0.99429
C    -2.66304   0.15476   0.28844
N    -3.21078   0.07192   1.31487
H     3.89789  -1.46229   1.70275
H     2.85971  -2.75284   1.03140
H     3.86797  -1.77222  -0.05562
H     2.02365  -0.05899   1.46554
H    -0.15010   3.30418   0.76668
H    -1.18063   2.53724  -0.48291
H    -1.63171   2.45665   1.24263
H     0.66160   0.05811  -2.74446
H    -0.52615  -1.28436  -2.83817
H    -1.03042   0.38684  -3.25092
H    -2.73173   0.38618  -1.85364
