38
Generated by autodE on: 2022-06-17. E = -897.098616 Ha. Imaginary frequency = -366.8 cm-1
C     4.10104  -0.50086   0.43709
N     2.80854   0.13502   0.57389
C     1.92095   0.12282  -0.44148
O     2.22352  -0.35137  -1.54613
C     0.55113   0.65573  -0.12583
C     0.48991   1.68588   0.95302
C    -0.07261   3.05696   0.64313
O     1.03718   1.51554   2.04380
N    -0.38406   0.78078  -1.16162
C    -0.07897   0.55061  -2.58434
C    -1.69418   0.61325  -0.83419
C    -2.27895   1.18350   0.34654
N    -2.83016   1.60254   1.28084
C    -1.64390  -1.33363   0.03393
C    -1.89616  -2.10726  -1.18398
O    -3.01674  -2.43956  -1.55353
C    -0.39571  -1.37359   0.73295
C    -0.43600  -1.11883   2.21391
C     0.67288  -2.34938   0.30329
H     4.65124  -0.38840   1.37964
H     4.69038  -0.04219  -0.37242
H     4.00138  -1.57589   0.21106
H     2.48690   0.46860   1.48046
H     0.80794   3.71094   0.52056
H    -0.67186   3.12386  -0.26973
H    -0.64726   3.42565   1.50342
H     0.05909  -0.51682  -2.80081
H     0.82960   1.09104  -2.85961
H    -0.92363   0.93550  -3.16804
H    -2.39458   0.59683  -1.67488
H    -2.54502  -1.20098   0.63978
H    -1.00798  -2.37931  -1.79659
H    -0.69211  -2.06484   2.72630
H    -1.18942  -0.36970   2.49120
H     0.54207  -0.79552   2.59231
H     0.88278  -2.33241  -0.77145
H     1.61036  -2.16775   0.84376
H     0.33809  -3.36871   0.56629
