39
Generated by autodE on: 2022-05-30. E = -1138.747288 Ha
C    -3.50284   0.93662   3.40282
N    -3.00560   0.47861   2.11959
C    -2.07427  -0.46913   2.02044
O    -1.55759  -1.05638   2.96900
C    -1.67754  -0.84502   0.55520
C    -2.39842  -2.07783   0.23189
N    -2.96987  -3.05728  -0.00974
N    -2.04557   0.22143  -0.39693
N    -0.92361   1.07416  -0.37354
C    -1.01026   2.43055  -0.47515
C    -2.38145   3.02257  -0.67015
O     0.01597   3.11247  -0.42751
C     0.32502   0.36990  -0.11314
C     1.04385  -0.07892  -1.42197
O     0.20595  -1.17075  -1.83350
C     0.38250  -1.96732  -0.65044
C     1.89369  -1.98881  -0.50349
C     2.31021  -0.80752  -0.99041
C     3.67253  -0.26022  -0.94379
O     4.67076  -0.89410  -0.65312
O     3.68612   1.04311  -1.25760
C     4.96040   1.70075  -1.23206
C    -0.12999  -1.00120   0.46460
H    -4.20639   1.76069   3.23636
H    -2.67723   1.29331   4.03752
H    -4.02096   0.12604   3.93897
H    -3.34247   0.89109   1.25347
H    -2.10944  -0.19338  -1.33118
H    -2.88104   2.58882  -1.54830
H    -3.01847   2.82597   0.20509
H    -2.27281   4.10591  -0.80244
H     0.96884   0.97064   0.53691
H     1.12616   0.69151  -2.19378
H    -0.13294  -2.92961  -0.72923
H     2.47897  -2.76078  -0.00466
H     4.76747   2.74465  -1.50451
H     5.40162   1.64508  -0.22631
H     5.64584   1.23818  -1.95697
H     0.27824  -1.24680   1.44840
