19
Generated by autodE on: 2022-05-30. E = -535.502988 Ha
C     3.51252   0.40347  -0.26975
O     2.12935   0.04945  -0.39328
C     1.33482   0.34571   0.64876
O     1.73981   0.88565   1.66447
C    -0.05160  -0.05494   0.40135
C    -1.13233   0.23357   1.14364
C    -2.32011  -0.33858   0.34601
C    -2.47040   0.53768  -0.92108
C    -1.40070   0.24786  -1.66670
C    -0.60983  -0.79289  -0.84104
O    -1.69597  -1.50793  -0.22114
H     3.98997   0.09438  -1.20682
H     3.62245   1.48854  -0.12728
H     3.97057  -0.12176   0.58118
H    -1.19411   0.80394   2.06966
H    -3.22929  -0.58044   0.90625
H    -3.26565   1.26311  -1.08806
H    -1.07821   0.66721  -2.61897
H     0.07658  -1.45612  -1.37558
