39
Generated by autodE on: 2022-05-30. E = -1138.654809 Ha. Imaginary frequency = -285.4 cm-1
C    -2.31807   0.66580   3.99052
N    -2.22367   0.50607   2.55265
C    -2.41426  -0.68654   1.97552
O    -2.72783  -1.71296   2.59108
C    -2.24225  -0.77175   0.48311
C    -2.69178  -1.99134  -0.10600
N    -3.01344  -2.99074  -0.60615
N    -2.12284   0.28251  -0.34918
N    -1.39606   1.31014   0.05009
C    -1.23914   2.37393  -0.83456
C    -2.17653   2.49699  -2.00693
O    -0.34482   3.18129  -0.61059
C     0.52376   0.21673   0.49304
C     1.10820   0.20340  -0.93271
O     0.21390  -0.73503  -1.55971
C     0.43900  -1.80639  -0.62086
C     1.97083  -1.90781  -0.67814
C     2.39383  -0.64834  -0.87748
C     3.77684  -0.16410  -0.91527
O     4.76789  -0.87327  -0.90259
O     3.82835   1.17618  -0.96151
C     5.13244   1.77088  -0.99114
C     0.09624  -1.08224   0.70016
H    -2.22238   1.73075   4.23425
H    -1.52249   0.10852   4.51242
H    -3.28721   0.30068   4.36149
H    -1.85692   1.25402   1.96229
H    -2.15130   0.05726  -1.35160
H    -1.99137   1.67882  -2.72435
H    -3.22712   2.43017  -1.68755
H    -1.99300   3.45291  -2.51168
H     0.79174   0.95126   1.24797
H     1.16375   1.15385  -1.46943
H    -0.13309  -2.70432  -0.87470
H     2.56109  -2.80963  -0.51975
H     4.97037   2.85447  -1.02161
H     5.70163   1.49658  -0.09092
H     5.68468   1.44356  -1.88417
H     0.00385  -1.59332   1.65664
