41
Generated by autodE on: 2022-06-01. E = -3639.210837 Ha
C     0.32483   2.14026   4.72878
O     0.27269   1.01093   3.83338
C    -0.09881   1.24909   2.59213
O    -0.37301   2.33888   2.14213
C    -0.11063  -0.03060   1.73285
C    -1.01270  -1.19644   2.26751
C    -0.82583  -1.65187   3.67709
O    -1.80200  -1.70060   1.49983
N     1.29385  -0.54445   1.73544
N     1.73845  -0.51521   0.57326
C     0.77151  -0.02578  -0.37734
C    -0.36722   0.28261   0.28626
C    -1.69598   0.85273  -0.20249
C    -2.62783   1.08443   0.92517
N    -3.41240   1.24516   1.76199
C    -1.48211   2.19865  -0.77708
N    -1.35662   3.26758  -1.20678
C    -2.48837  -0.10128  -1.19653
C    -1.67220  -1.02612  -2.08847
C    -0.87698  -0.39021  -3.22501
C     0.27141   0.54929  -2.85085
C     1.27487   0.11220  -1.78768
C     2.49035   1.03914  -1.78493
Br    1.95741  -1.74436  -2.30311
H    -0.66865   2.60299   4.80441
H     1.05398   2.87546   4.36192
H     0.63746   1.73530   5.69703
H    -1.28753  -2.64085   3.79363
H    -1.32861  -0.93474   4.34585
H     0.23557  -1.66984   3.95582
H    -3.15447   0.54338  -1.78795
H    -3.11904  -0.72591  -0.55339
H    -2.40536  -1.71403  -2.53990
H    -1.02424  -1.66303  -1.46731
H    -1.56447   0.17535  -3.87558
H    -0.46882  -1.20617  -3.84035
H    -0.10984   1.52816  -2.52891
H     0.84858   0.76138  -3.76283
H     2.95044   1.07062  -2.78182
H     3.23945   0.72085  -1.04916
H     2.14930   2.05405  -1.52192
