25
Generated by autodE on: 2022-06-01. E = -3109.615137 Ha
C     1.25305  -1.39314  -2.37580
C     0.39807  -0.47873  -1.51248
Br    0.71116   1.43048  -2.15301
C     0.71468  -0.48550  -0.09861
C     0.58406  -0.49248   1.10510
C    -0.19463  -0.52871   2.35020
C    -0.26563  -1.91832   2.85353
N    -0.35685  -3.01234   3.22383
C     0.38090   0.32665   3.40809
N     0.81015   1.02536   4.22639
C    -1.64724  -0.01805   1.99151
C    -2.28700  -0.69541   0.76656
C    -2.05497  -0.06523  -0.63600
C    -1.11318  -0.78509  -1.61882
H     2.31726  -1.13073  -2.30631
H     1.12330  -2.43006  -2.02671
H     0.93394  -1.33462  -3.42571
H    -2.26271  -0.17894   2.88856
H    -1.55968   1.06703   1.83450
H    -2.02896  -1.76792   0.75247
H    -3.36954  -0.66350   0.95996
H    -3.03515  -0.03119  -1.13446
H    -1.74411   0.98734  -0.53129
H    -1.20868  -1.87652  -1.48449
H    -1.41421  -0.56984  -2.65517
