16
Generated by autodE on: 2022-06-01. E = -529.530919 Ha
C     3.08724   1.02044  -0.14342
O     1.95060   0.14380  -0.12783
C     0.74759   0.72013   0.00072
O     0.57748   1.91989   0.10141
C    -0.33047  -0.27701   0.00419
N     0.02453  -1.54985  -0.10865
N     0.26544  -2.64313  -0.20121
C    -1.78683  -0.05885   0.11790
C    -2.27612   1.35570   0.24498
O    -2.54911  -1.01987   0.10514
H     3.96395   0.37138  -0.24912
H     3.14662   1.59014   0.79504
H     3.02469   1.71636  -0.99233
H    -3.37145   1.33915   0.31438
H    -1.84524   1.83450   1.13694
H    -1.95802   1.95334  -0.62228
