41
Generated by autodE on: 2022-06-01. E = -3639.126195 Ha. Imaginary frequency = -434.1 cm-1
C     1.00861   3.35827   2.91539
O     1.07426   2.00416   2.43664
C     0.13357   1.17031   2.87669
O    -0.74022   1.47321   3.65941
C     0.25916  -0.17336   2.23530
C    -0.47505  -1.40431   2.67609
C    -1.71139  -1.24528   3.50919
O    -0.04338  -2.49510   2.33633
N     1.47090  -0.42592   1.69593
N     2.02874  -0.40749   0.68909
C     0.53312   0.22840  -0.61693
C    -0.50269   0.30135   0.08093
C    -1.98497   0.47042  -0.00081
C    -2.65285  -0.79220   0.38810
N    -3.17109  -1.80076   0.62421
C    -2.45331   1.56260   0.87591
N    -2.81499   2.46281   1.50857
C    -2.41885   0.80305  -1.47440
C    -1.90904  -0.23807  -2.48600
C    -0.88245   0.28621  -3.49716
C     0.33040   1.05400  -2.96784
C     1.23860   0.42321  -1.89920
C     2.51334   1.24785  -1.74356
Br    1.79330  -1.43529  -2.51470
H     0.05317   3.81463   2.61960
H     1.84652   3.88232   2.44272
H     1.10873   3.38271   4.00962
H    -2.26515  -2.19219   3.49936
H    -2.34467  -0.41603   3.17235
H    -1.40076  -1.00901   4.54072
H    -2.03376   1.80973  -1.68864
H    -3.51596   0.86792  -1.47461
H    -2.76771  -0.63042  -3.05065
H    -1.48952  -1.10680  -1.95568
H    -1.39340   0.96759  -4.19791
H    -0.53225  -0.56609  -4.09992
H     0.01088   2.01663  -2.53345
H     0.97084   1.30851  -3.82604
H     3.01365   1.35552  -2.71562
H     3.21130   0.79789  -1.02888
H     2.23653   2.25091  -1.38000
