40
Generated by autodE on: 2022-06-20. E = -1118.841839 Ha. Imaginary frequency = -354.9 cm-1
C     2.40678   3.43241   1.21660
N     1.82994   2.11076   1.07519
C     2.36860   1.22918   0.19092
O     3.40107   1.48216  -0.44776
C     1.62660  -0.04240   0.05177
C     1.86442  -0.96185  -1.04547
O     2.58453  -0.76138  -2.01617
O     1.14851  -2.10295  -0.90549
C     1.29413  -3.08856  -1.92874
N     0.86092  -0.47539   1.07984
C    -0.27938  -0.62831   1.46441
C    -0.86621  -1.25365   2.57554
N    -1.46270  -1.74553   3.44750
C    -1.80137   0.32415   0.24375
C    -1.88896   1.48460   1.17972
N    -2.92697   1.49175   2.03365
O    -1.03164   2.38732   1.19282
C    -2.92026  -0.70760   0.20380
C    -2.62829  -1.74899  -0.84255
C    -1.81507  -1.49198  -1.87692
N    -1.14789  -0.26103  -1.99981
C    -0.46297   0.06327  -3.24625
C    -1.09897   0.57630  -0.95140
H     2.31694   4.03348   0.29414
H     1.88884   3.96037   2.02806
H     3.47547   3.36523   1.46705
H     0.82222   2.04261   1.25360
H     0.61457  -3.90559  -1.65886
H     2.33014  -3.45773  -1.96750
H     1.02025  -2.68483  -2.91363
H    -3.65023   0.78285   2.02501
H    -3.00217   2.25350   2.70082
H    -3.89072  -0.21418  -0.01133
H    -3.05408  -1.18452   1.18864
H    -3.12364  -2.71954  -0.78368
H    -1.61463  -2.20351  -2.67790
H     0.31983   0.80518  -3.04930
H    -0.00271  -0.84123  -3.66338
H    -1.17159   0.47089  -3.98497
H    -0.52788   1.49537  -1.07587
