49
Generated by autodE on: 2022-05-31. E = -1113.033939 Ha
C    -0.57746   4.04754   2.06389
C    -1.40538   3.03276   1.33706
O    -2.62603   3.01837   1.37013
C    -0.69098   1.98280   0.53271
N     0.57520   1.98495   0.38862
C     1.01138   0.89461  -0.46961
C     2.19935   0.15279   0.10058
C     2.48928   0.15643   1.47033
C     3.56539  -0.58303   1.97003
C     4.36029  -1.34018   1.10499
C     4.07968  -1.34400  -0.26593
C     3.01031  -0.59706  -0.76341
C    -0.27400   0.01166  -0.83260
C    -0.11030  -1.40112  -0.30705
C    -0.14288  -1.66103   1.07295
C     0.11790  -2.93685   1.57574
C     0.42927  -3.98564   0.70568
C     0.48630  -3.73878  -0.66809
C     0.22400  -2.45954  -1.16639
C    -0.59635   0.13502  -2.34821
C    -1.90408  -0.62047  -2.68905
C    -3.01740   0.29539  -2.10401
C    -2.21627   1.44216  -1.46528
C    -1.06526   1.59696  -2.46729
C    -1.45754   0.88844  -0.20016
C    -2.38614   0.20120   0.69092
N    -3.15381  -0.33910   1.37410
H     0.09576   3.54234   2.77426
H    -1.23435   4.74563   2.59770
H     0.06113   4.59380   1.35292
H     1.36336   1.35815  -1.40394
H     1.86447   0.73457   2.15266
H     3.77888  -0.57161   3.04161
H     5.19785  -1.92294   1.49576
H     4.69848  -1.92906  -0.95056
H     2.79205  -0.60187  -1.83416
H    -0.34493  -0.85172   1.77488
H     0.08799  -3.10785   2.65446
H     0.63529  -4.98482   1.09664
H     0.74346  -4.54400  -1.36044
H     0.30150  -2.28916  -2.23993
H     0.26065  -0.14236  -2.97563
H    -1.93489  -1.63145  -2.26641
H    -1.99990  -0.71691  -3.78027
H    -3.66873  -0.22271  -1.38706
H    -3.66161   0.70414  -2.89573
H    -2.80204   2.33658  -1.22464
H    -0.31869   2.35089  -2.18657
H    -1.43351   1.83749  -3.47500
