21
Generated by autodE on: 2022-05-31. E = -516.634327 Ha
C    -3.24281   0.11693   1.29367
C    -3.20328   0.26397  -0.20523
O    -4.14386  -0.00733  -0.94715
C    -1.97428   0.83578  -0.73012
N    -0.91597   0.36560  -1.10109
C     0.26439  -0.03186  -1.40635
C     1.33364  -0.13638  -0.41950
C     1.12852   0.16658   0.94258
C     2.17977   0.06004   1.85141
C     3.44820  -0.35281   1.42353
C     3.65858  -0.65859   0.07438
C     2.61203  -0.55184  -0.84165
H    -2.82102   1.00139   1.79366
H    -2.62512  -0.75197   1.57860
H    -4.27939  -0.04933   1.61864
H     0.45652  -0.30039  -2.44982
H     0.14004   0.48100   1.28604
H     2.00909   0.29711   2.90424
H     4.26809  -0.43785   2.14034
H     4.64504  -0.98194  -0.26637
H     2.77606  -0.78808  -1.89592
