28
Generated by autodE on: 2022-05-31. E = -596.319128 Ha
N    -0.12376  -1.96941  -2.79725
C    -0.51594  -1.46393  -1.82065
C    -1.04971  -0.87257  -0.65340
C    -0.39978  -0.14963   0.30995
C     1.02253   0.16073   0.44457
C     1.42670   1.29323   1.18226
C     2.77749   1.62079   1.30491
C     3.75378   0.81702   0.70876
C     3.36856  -0.31953  -0.01193
C     2.01997  -0.64519  -0.14489
C    -1.49453   0.44331   1.18524
C    -2.18202   1.54950   0.31718
C    -2.91693   0.72817  -0.77948
C    -2.55281  -0.74280  -0.40789
C    -2.55816  -0.67087   1.12997
H     0.67613   1.93155   1.65036
H     3.06887   2.50813   1.87162
H     4.81160   1.07052   0.80998
H     4.12600  -0.96033  -0.46925
H     1.74092  -1.54499  -0.69386
H    -1.16927   0.77954   2.17587
H    -2.89019   2.11579   0.93946
H    -1.44870   2.25869  -0.09116
H    -4.00664   0.86949  -0.72665
H    -2.59169   0.97966  -1.79871
H    -3.17034  -1.50877  -0.89165
H    -3.52813  -0.35836   1.54497
H    -2.22968  -1.60545   1.60747
