41
Generated by autodE on: 2022-06-01. E = -1855.715483 Ha
C    -2.45765   3.93483   2.37716
N    -1.39562   3.05253   1.93128
C    -1.65592   1.82244   1.48586
O    -2.77394   1.30367   1.45682
C    -0.46460   0.99987   1.03024
O     0.82029   1.75863   1.13528
C     1.75293   0.78034   1.15920
O     2.93581   0.95152   1.18682
N     1.04532  -0.51871   1.14583
C     0.52201  -0.58167  -0.23788
C    -0.42254   0.37082  -0.38264
C    -1.22151   0.82536  -1.57332
C    -1.57481   2.31845  -1.51125
C    -2.48318  -0.05276  -1.78062
C    -2.27587  -1.29896  -2.64323
C    -1.20894  -2.29724  -2.17813
C     0.25334  -1.86230  -2.43187
C     1.06886  -1.60286  -1.17178
Cl    2.76049  -1.08465  -1.66229
Cl    1.23364  -3.18346  -0.26698
N    -0.19560  -0.16542   1.84566
C    -0.00955   0.04363   3.27712
H    -3.07429   3.44305   3.14376
H    -3.11360   4.21887   1.53842
H    -2.01023   4.84059   2.80262
H    -0.43823   3.38879   1.89989
H    -0.57230   0.69928  -2.45037
H    -2.40690   2.51506  -0.82118
H    -1.89337   2.65223  -2.50998
H    -0.71170   2.93069  -1.20945
H    -2.88923  -0.32859  -0.79418
H    -3.25057   0.57214  -2.26532
H    -3.24031  -1.83023  -2.70002
H    -2.03939  -0.98458  -3.67534
H    -1.37223  -3.24514  -2.71171
H    -1.35618  -2.52898  -1.11121
H     0.79572  -2.63627  -2.99095
H     0.29994  -0.95533  -3.05052
H     0.35487  -0.89440   3.71455
H     0.69157   0.85762   3.53203
H    -0.99085   0.27151   3.71478
