23
Generated by autodE on: 2022-06-01. E = -1270.739602 Ha
C    -2.69399   0.10386  -2.88584
C    -1.55893  -0.67245  -2.21272
C    -1.37238  -0.37323  -0.79767
C    -0.84018  -0.14594   0.26996
C     0.31369   0.06677   1.10947
Cl    0.55521   1.86960   1.36773
Cl    0.11322  -0.69180   2.75938
C     1.55492  -0.52738   0.42259
C     1.75398  -0.12720  -1.05331
C     1.05913  -0.97628  -2.15674
C    -0.17838  -0.39037  -2.86995
H    -3.66597  -0.13596  -2.42912
H    -2.74241  -0.15342  -3.95489
H    -2.52928   1.18927  -2.79943
H    -1.76645  -1.75401  -2.29947
H     2.42842  -0.23016   1.02174
H     1.46073  -1.62184   0.50243
H     1.50476   0.93933  -1.17975
H     2.83881  -0.19507  -1.22604
H     1.81235  -1.14628  -2.94161
H     0.81892  -1.97869  -1.76143
H    -0.22930  -0.79187  -3.89513
H    -0.06049   0.70261  -2.96668
