18
Generated by autodE on: 2022-07-27. E = -584.948748 Ha
C    -2.44055   2.63818  -0.87154
N    -1.25851   1.82616  -0.65243
C    -1.35106   0.59840  -0.12385
O    -2.40820   0.06032   0.21173
C    -0.03564  -0.08838   0.03207
O     1.09661   0.46649  -0.37635
C     2.14799  -0.47602  -0.05573
O     3.30076  -0.21396  -0.32743
N     1.56763  -1.53477   0.52650
N     0.23751  -1.25954   0.56216
C    -0.66724  -2.23870   1.14982
H    -2.95396   2.85224   0.07893
H    -3.15191   2.12285  -1.53498
H    -2.13692   3.58337  -1.33551
H    -0.34342   2.19709  -0.89164
H    -0.58765  -3.17034   0.57431
H    -0.35120  -2.41857   2.18560
H    -1.68495  -1.84440   1.11345
