41
Generated by autodE on: 2022-06-01. E = -1855.667244 Ha. Imaginary frequency = -421.4 cm-1
C    -1.76299   4.76151   0.98635
N    -0.85441   3.65480   0.74817
C    -0.85875   2.57203   1.53378
O    -1.59589   2.42801   2.51140
C     0.10729   1.49410   1.11819
O     1.14643   1.88019   0.30628
C     2.08321   0.84682   0.39106
O     3.09046   0.83992  -0.27012
N     1.63909  -0.04525   1.35339
C     0.11183  -0.76640  -0.26292
C    -0.74491   0.14870  -0.17821
C    -2.03017   0.63758  -0.75831
C    -3.18793   0.50742   0.24252
C    -2.37073  -0.10720  -2.07293
C    -1.18572  -0.40049  -3.01177
C    -0.74530  -1.87471  -3.06604
C    -0.54811  -2.63505  -1.74862
C     0.49511  -2.07143  -0.77424
Cl    2.12447  -2.01297  -1.59194
Cl    0.62721  -3.24146   0.63718
N     0.64056   0.58826   1.98967
C    -0.12032  -0.17033   2.96469
H    -2.80717   4.41351   0.98627
H    -1.63085   5.50232   0.18949
H    -1.55990   5.23864   1.95773
H    -0.20124   3.69883  -0.02820
H    -1.88918   1.70598  -0.99255
H    -3.34601  -0.55130   0.50144
H    -4.11417   0.88997  -0.21360
H    -3.00450   1.06374   1.16983
H    -2.87979  -1.04980  -1.81164
H    -3.12536   0.50459  -2.59148
H    -1.45546  -0.11336  -4.04023
H    -0.32849   0.23773  -2.74542
H     0.17781  -1.94947  -3.66209
H    -1.51146  -2.44573  -3.61714
H    -1.49142  -2.68741  -1.18442
H    -0.25257  -3.67012  -1.97560
H    -0.77008  -0.88850   2.43828
H     0.59007  -0.71358   3.59772
H    -0.72731   0.51576   3.56069
