19
Generated by autodE on: 2022-05-29. E = -477.554072 Ha
C     3.28182   0.82502   1.46238
C     1.99571   0.53843   0.87830
N     0.96126   0.32390   0.40527
C    -0.24468  -0.04952  -0.11237
C    -0.57068  -1.44585   0.11443
C    -1.88132  -1.98221  -0.40741
O     0.21181  -2.18925   0.72704
C    -1.01897   0.95972  -0.79895
C    -0.41940   2.35092  -0.87839
O    -2.12499   0.72874  -1.30960
H     3.19458   1.65832   2.17690
H     3.62266  -0.07451   1.99979
H     4.01137   1.07549   0.67674
H    -1.95523  -3.04397  -0.13516
H    -1.94527  -1.86844  -1.49982
H    -2.73078  -1.42426   0.01357
H     0.55564   2.33205  -1.39129
H    -0.24879   2.76412   0.12889
H    -1.10741   3.00575  -1.42846
