20
Generated by autodE on: 2022-05-29. E = -771.828691 Ha
C     2.23421  -0.24245  -0.98971
C     0.84763   0.17038  -0.64472
C     0.22825   0.22159   0.54817
Cl    0.89935  -0.21735   2.09781
C    -1.25390   0.47370   0.34806
C    -1.82425  -0.83928  -0.27872
C    -1.13430  -0.87992  -1.67404
C    -0.25931   0.41661  -1.66950
C    -1.18338   1.38077  -0.89762
H     2.83270  -0.44114  -0.08876
H     2.74454   0.53097  -1.58876
H     2.22175  -1.15931  -1.60552
H    -1.79623   0.84481   1.22626
H    -1.59096  -1.71432   0.34488
H    -2.91874  -0.77264  -0.37184
H    -1.87364  -0.83741  -2.48817
H    -0.52151  -1.78056  -1.82477
H     0.09046   0.73372  -2.66112
H    -2.16166   1.52807  -1.38148
H    -0.71590   2.35508  -0.69297
