49
Generated by autodE on: 2022-06-03. E = -1335.795903 Ha
C     4.72528  -0.63365   0.47053
O     3.37632  -0.69855  -0.02876
C     2.50387   0.16724   0.47099
O     2.78497   1.02241   1.27749
C     1.12118  -0.05707  -0.17182
C     1.37427   0.21949  -1.69340
C     1.53873  -0.95109  -2.60859
O     1.43964   1.37305  -2.06917
N     0.68828  -1.43403   0.02213
C     1.14494  -2.16115   1.22061
N    -0.69883  -1.38447  -0.17697
C    -1.41595  -2.47067  -0.57582
C    -0.65048  -3.70192  -0.97463
O    -2.65072  -2.41404  -0.59380
C    -1.32196  -0.10139   0.17506
C    -2.40099   0.29231  -0.86216
C    -2.12177   0.11491  -2.33133
O    -3.48526   0.68067  -0.46689
C    -1.89024  -0.15998   1.64015
C    -2.39722   1.21382   2.03982
C    -1.29759   1.94785   2.24762
C    -0.13020   1.01348   1.95639
O    -0.65870  -0.24463   2.36697
C    -0.06758   0.84304   0.36131
C    -0.17610   2.23132  -0.28377
C     0.82833   3.28125   0.10807
O    -1.12743   2.51105  -0.99337
H     5.15652   0.35536   0.26360
H     5.27693  -1.41484  -0.06312
H     4.73323  -0.82593   1.55236
H     1.85086  -0.59436  -3.59820
H     2.26313  -1.66730  -2.19983
H     0.57484  -1.47703  -2.69111
H     1.98943  -2.81102   0.95323
H     0.32519  -2.78660   1.58971
H     1.44647  -1.49841   2.04418
H    -1.29474  -4.30869  -1.62369
H    -0.40415  -4.29556  -0.08004
H     0.29059  -3.45242  -1.48036
H    -1.08128   0.32880  -2.59595
H    -2.34918  -0.92396  -2.61466
H    -2.79179   0.77906  -2.89248
H    -2.53354  -1.02660   1.81860
H    -3.44139   1.51364   2.08229
H    -1.21492   3.00620   2.49031
H     0.83118   1.22841   2.42345
H     0.86201   4.04938  -0.67524
H     1.82369   2.86933   0.29765
H     0.48010   3.75997   1.03861
