23
Generated by autodE on: 2022-06-03. E = -612.959773 Ha
C     2.41726  -1.34101   1.34787
C     1.90136  -0.10291   0.66718
O     2.48076   0.97238   0.73865
C     0.65566  -0.27716  -0.11661
C    -0.42456   0.51569  -0.31073
C    -0.87355   1.82127   0.22027
C     0.10148   2.79833   0.80421
O    -2.07680   2.06525   0.16620
C    -1.43119  -0.38119  -1.07548
C    -1.91959  -1.45456  -0.08012
C    -0.85987  -2.24334   0.11715
C     0.25128  -1.63449  -0.76766
O    -0.51590  -1.14728  -1.87339
H     3.22833  -1.07804   2.03905
H     2.79934  -2.04186   0.58651
H     1.60574  -1.85975   1.88334
H     0.58571   2.36286   1.69206
H     0.90492   3.01609   0.08610
H    -0.42991   3.71816   1.08103
H    -2.18278   0.14039  -1.67479
H    -2.90810  -1.47738   0.37651
H    -0.73141  -3.09806   0.77973
H     1.07038  -2.28919  -1.08088
