49
Generated by autodE on: 2022-06-03. E = -1335.730235 Ha. Imaginary frequency = -131.8 cm-1
C     4.88669  -0.77246   1.07273
O     3.66674  -0.94711   0.32556
C     2.67971  -0.09780   0.58229
O     2.74285   0.80465   1.38607
C     1.48256  -0.39130  -0.29435
C     1.62188   0.18207  -1.65366
C     0.87080  -0.36676  -2.82583
O     2.44660   1.08458  -1.78935
N     0.65714  -1.38240   0.06038
C     0.98069  -2.23293   1.22891
N    -0.54092  -1.41106  -0.48603
C    -1.27181  -2.57322  -0.62094
C    -0.54014  -3.85947  -0.92477
O    -2.49787  -2.51786  -0.58973
C    -1.58081   0.31493   0.16652
C    -2.79001   0.26429  -0.72850
C    -2.69238   0.16178  -2.21663
O    -3.87238   0.36591  -0.16352
C    -1.84703  -0.06531   1.65655
C    -2.52196   1.15021   2.31228
C    -1.55600   2.07215   2.40027
C    -0.31381   1.40323   1.78983
O    -0.52141   0.03740   2.18095
C    -0.58183   1.29680   0.26214
C    -0.19479   2.34501  -0.67835
C     0.72580   3.41406  -0.14343
O    -0.56777   2.37456  -1.85457
H     5.30917   0.22252   0.87538
H     5.56634  -1.55608   0.72097
H     4.68915  -0.88694   2.14776
H     1.46898  -0.17201  -3.72623
H     0.64134  -1.43508  -2.72978
H    -0.07689   0.18059  -2.91631
H     1.65584  -3.03442   0.90380
H     0.05243  -2.64423   1.63395
H     1.45913  -1.62935   2.00644
H    -1.13725  -4.42490  -1.65340
H    -0.47704  -4.46122  -0.00442
H     0.47351  -3.69722  -1.31251
H    -2.29305   1.11293  -2.59720
H    -1.99710  -0.62923  -2.51972
H    -3.69190  -0.02442  -2.63000
H    -2.29304  -1.05145   1.81608
H    -3.57705   1.21347   2.57101
H    -1.60794   3.10403   2.74601
H     0.66997   1.76426   2.09248
H     0.97024   4.12392  -0.94371
H     1.64761   2.95662   0.24635
H     0.24849   3.95038   0.69321
