44
Generated by autodE on: 2022-06-02. E = -1315.277259 Ha. Imaginary frequency = -125.1 cm-1
C    -5.57960  -0.84094   1.17891
O    -4.17555  -0.57217   1.06005
C    -3.79597   0.21521   0.04473
O    -4.57100   0.70572  -0.75558
C    -2.33770   0.39951   0.03839
C    -1.54764   0.88102  -0.93738
C    -1.89367   1.37082  -2.30511
F    -0.77681   1.61886  -3.01830
F    -2.60308   2.51336  -2.27620
F    -2.61289   0.47642  -3.00939
C    -0.10288   0.66682  -0.42425
O    -0.32121   0.89949   0.97457
C    -1.35003  -0.09519   1.12618
C    -0.64571  -1.34060   0.55467
C     0.15136  -0.85692  -0.43360
C     2.39695  -0.74807   0.66569
C     3.74147  -0.32371   0.28457
C     4.84038  -0.40529   1.16620
C     6.10171   0.02335   0.75842
C     6.28553   0.53532  -0.53321
C     5.20437   0.61989  -1.41588
C     3.93835   0.19489  -1.00834
N     2.01911  -1.26241   1.71770
C     1.15263  -1.78862   2.52355
C     1.01859  -3.28529   2.58900
C     0.58626  -0.96358   3.64484
H    -5.68864  -1.49882   2.04856
H    -6.13655   0.09429   1.33546
H    -5.95304  -1.34067   0.27332
H     0.66789   1.31896  -0.84452
H    -1.74117  -0.13669   2.14630
H    -0.96715  -2.36248   0.74133
H     0.60760  -1.38310  -1.26834
H     4.69011  -0.80579   2.17121
H     6.94829  -0.04068   1.44617
H     7.27627   0.86998  -0.84996
H     5.34841   1.01971  -2.42209
H     3.08519   0.25924  -1.68720
H     1.32756  -3.75548   1.64445
H     1.63758  -3.70404   3.40410
H    -0.02584  -3.56076   2.80248
H     0.63394   0.10865   3.41312
H     1.13768  -1.14488   4.58588
H    -0.46248  -1.24453   3.82723
