34
Generated by autodE on: 2022-06-17. E = -728.355327 Ha
C    -4.58666   1.07285  -2.20932
C    -4.10892   0.62251  -1.03156
C    -4.93622   0.65553   0.22586
C    -2.74350   0.08947  -0.96226
C    -2.15197  -0.38727   0.14641
C    -0.76125  -0.91564   0.21624
O    -0.18862  -1.07570  -1.11072
N     1.16976  -0.85425  -1.04099
C     1.47525  -0.34160   0.09474
C     2.89092   0.02672   0.40318
O     3.16768   0.72295   1.38862
N     3.81892  -0.44756  -0.44442
C     5.22520  -0.13720  -0.28603
C     0.28074  -0.04449   0.98184
C     0.43072  -0.51093   2.43046
C    -0.02341   1.46124   0.91113
H    -5.59753   1.48084  -2.29721
H    -3.97465   1.04423  -3.11603
H    -5.06404  -0.35725   0.64308
H    -4.44417   1.25771   1.00784
H    -5.93210   1.08030   0.03675
H    -2.18014   0.08776  -1.90026
H    -2.68248  -0.40775   1.10293
H    -0.77066  -1.92017   0.67841
H     3.50740  -0.99256  -1.24229
H     5.58954  -0.45418   0.70356
H     5.79437  -0.66682  -1.05918
H     5.41300   0.94439  -0.38439
H     1.17711   0.09433   2.96163
H     0.73753  -1.56667   2.47867
H    -0.53370  -0.40806   2.95244
H     0.82740   2.03412   1.30560
H    -0.21162   1.78085  -0.12430
H    -0.91437   1.69768   1.51207
