23
Generated by autodE on: 2022-06-17. E = -351.521383 Ha
C     3.57785   0.71569   0.99195
C     2.55321   0.37114   0.18127
C     2.78301   0.02516  -1.26774
C     1.18980   0.32966   0.70611
C     0.07843   0.00719  -0.00226
C    -1.25238  -0.01735   0.56970
C    -2.41080  -0.32344  -0.06749
C    -3.72083  -0.30488   0.66830
C    -2.50821  -0.70002  -1.51863
H     3.40763   0.96621   2.04361
H     4.60751   0.75551   0.62579
H     3.84798   0.09640  -1.53004
H     2.43886  -0.99839  -1.49121
H     2.21678   0.69899  -1.93206
H     1.07731   0.58580   1.76653
H     0.18201  -0.24900  -1.06015
H    -1.31469   0.24204   1.63352
H    -4.21150  -1.29364   0.61885
H    -4.42332   0.40724   0.19901
H    -3.60025  -0.02871   1.72613
H    -3.18721  -0.00814  -2.04764
H    -2.95444  -1.70487  -1.62325
H    -1.54339  -0.69851  -2.04179
