58
Generated by autodE on: 2022-06-27. E = -1474.708263 Ha
C    -2.66064   4.44845  -1.28377
N    -2.09073   3.33993  -0.54519
C    -0.76455   3.18316  -0.41781
O     0.05754   4.01288  -0.80605
C    -0.36063   1.90719   0.38227
C    -0.11805   2.48581   1.80405
C    -1.08348   2.10402   2.88762
O     0.73393   3.34392   1.94996
O    -1.42824   0.97243   0.38863
C    -1.30048  -0.04045  -0.64318
C    -2.49627   0.08439  -1.58605
C    -1.32880  -1.41846   0.02612
C    -1.28001  -1.55918   1.41761
C    -1.20484  -2.82473   2.00649
C    -1.18853  -3.97320   1.21196
C    -1.28023  -3.84456  -0.17756
C    -1.36162  -2.58027  -0.76365
C     0.10915   0.28980  -1.33836
C    -0.04347   1.10180  -2.63123
C     0.87401  -0.97926  -1.71668
O     0.87026  -1.40551  -2.85776
C     1.62990  -1.73732  -0.67334
O     1.98751  -2.93482  -1.12294
C     2.65071  -3.91407  -0.31378
C     1.84790  -1.18937   0.55909
O     2.40862  -1.89731   1.57552
C     3.67870  -1.43316   2.04770
C     1.30966   0.13291   0.90712
O     1.31364   0.48566   2.08034
C     0.82466   1.08357  -0.20203
C     2.07197   1.86211  -0.64374
H    -2.22714   5.40026  -0.94391
H    -3.74463   4.46915  -1.11710
H    -2.46928   4.35293  -2.36590
H    -2.68120   2.57022  -0.24671
H    -0.85023   2.67924   3.79277
H    -2.11257   2.31727   2.55958
H    -1.02193   1.02954   3.10298
H    -2.56600   1.08702  -2.02163
H    -2.42950  -0.64520  -2.40353
H    -3.41558  -0.11682  -1.01732
H    -1.28242  -0.67216   2.04473
H    -1.15120  -2.90862   3.09444
H    -1.11609  -4.96207   1.67037
H    -1.28386  -4.73333  -0.81271
H    -1.41911  -2.50496  -1.84973
H    -0.57566   2.04573  -2.48169
H    -0.59128   0.51907  -3.37919
H     0.94489   1.32946  -3.05090
H     2.79633  -4.77749  -0.97488
H     3.62483  -3.54583   0.03563
H     2.02291  -4.19950   0.54014
H     3.94914  -2.07623   2.89509
H     3.62529  -0.38765   2.38452
H     4.43947  -1.52912   1.25582
H     1.83556   2.58227  -1.43128
H     2.48732   2.41080   0.21152
H     2.83425   1.15996  -1.01219
