32
Generated by autodE on: 2022-06-27. E = -785.180847 Ha
C    -1.15808  -1.74581   1.64204
N    -1.89165  -2.04093   0.42706
C    -2.28546  -1.17353  -0.55662
O    -3.20503  -1.50157  -1.33066
C    -1.64282   0.13535  -0.63106
O    -0.35016   0.34514  -0.14941
C     0.69623  -0.38162  -0.36761
C     0.62588  -1.51853  -1.30524
C     1.89558   0.05418   0.32341
C     1.86764   1.21486   1.13295
C     3.01704   1.63861   1.78868
C     4.20784   0.90959   1.66583
C     4.24362  -0.24753   0.88063
C     3.09967  -0.67549   0.21182
C    -2.30776   1.34606  -1.00083
C    -1.51362   2.63504  -0.86005
O    -3.47773   1.38423  -1.43074
H    -1.52314  -2.40177   2.44389
H    -1.31285  -0.70435   1.95727
H    -0.07138  -1.91883   1.54391
H    -2.37094  -2.93583   0.38124
H     0.22813  -2.42221  -0.81311
H    -0.08645  -1.26362  -2.10841
H     1.60899  -1.75132  -1.72691
H     0.93889   1.77522   1.23814
H     2.98831   2.53883   2.40587
H     5.10748   1.24257   2.18822
H     5.16857  -0.82030   0.78964
H     3.14214  -1.58212  -0.39126
H    -0.63710   2.63530  -1.52748
H    -1.13674   2.76592   0.16671
H    -2.16782   3.47777  -1.11988
