32
Generated by autodE on: 2022-07-27. E = -785.193943 Ha
C    -0.48192   4.65532  -0.14035
N     0.35222   3.53085   0.22144
C    -0.05233   2.25581  -0.00758
O    -1.06394   1.99068  -0.69282
C     0.75394   1.21443   0.61835
O     0.33536  -0.10096   0.40252
C     0.10936  -0.62339  -0.75752
C     0.58044   0.03107  -1.99495
C    -0.54732  -1.91699  -0.72565
C    -0.92287  -2.49490   0.51024
C    -1.54323  -3.73790   0.54121
C    -1.81573  -4.41787  -0.65358
C    -1.46425  -3.84895  -1.88253
C    -0.83344  -2.60867  -1.92354
C     1.68414   1.37154   1.67741
C     2.20664   0.11814   2.35060
O     2.10429   2.49824   2.04992
H    -0.77259   4.60025  -1.20006
H    -1.41054   4.70687   0.45669
H     0.08097   5.58473   0.01710
H     1.08743   3.62587   0.92718
H     1.40411   0.71879  -1.74914
H     0.91159  -0.71961  -2.72288
H    -0.22452   0.63319  -2.44392
H    -0.72464  -1.95772   1.43767
H    -1.82467  -4.18042   1.49884
H    -2.30919  -5.39196  -0.62542
H    -1.68315  -4.37576  -2.81332
H    -0.56771  -2.17576  -2.88772
H     1.38278  -0.52288   2.70223
H     2.83678   0.40847   3.20168
H     2.80530  -0.48266   1.64687
