40
Generated by autodE on: 2022-06-20. E = -1159.892815 Ha
C     4.46217   1.20685  -0.82255
N     3.02729   1.13969  -0.62305
C     2.44055   0.27332   0.20910
O     3.01590  -0.56580   0.90485
C     0.93119   0.37576   0.30161
O     0.30214   1.14284  -0.74004
C    -0.99562   1.10282  -0.19411
C    -1.98704   1.97971  -0.95683
C    -1.88410   1.93943  -2.44477
O    -2.79899   2.62829  -0.33047
O    -0.80350   1.61050   1.14650
C     0.44507   1.20289   1.51036
O     1.00708   1.56714   2.50256
C    -1.30821  -0.43087  -0.01564
N    -2.09687  -1.05748  -1.05178
C    -3.53685  -0.95598  -0.84613
C    -1.62601  -2.19155  -1.69787
C    -0.33507  -2.56845  -1.72546
C     0.70114  -1.70745  -1.07320
C     0.15436  -0.97650   0.17490
C     0.19336  -1.80272   1.46225
N     0.14484  -3.13375   1.32274
O     0.21751  -1.24084   2.56027
H     4.69252   1.24612  -1.89665
H     4.92516   0.31332  -0.38738
H     4.89031   2.09896  -0.33838
H     2.43034   1.79382  -1.12126
H    -1.97521   0.89541  -2.78490
H    -0.88652   2.29023  -2.75428
H    -2.66657   2.56385  -2.89323
H    -1.85670  -0.50752   0.93528
H    -3.83079   0.08898  -0.67745
H    -3.87258  -1.54884   0.02590
H    -4.06218  -1.31345  -1.74168
H    -2.40125  -2.76473  -2.21190
H    -0.03801  -3.45461  -2.28731
H     1.59171  -2.28157  -0.78346
H     1.04621  -0.94257  -1.78876
H     0.00332  -3.56628   0.41422
H     0.08846  -3.71041   2.15732
