20
Generated by autodE on: 2022-06-20. E = -702.138834 Ha
C     4.26660   0.63808   0.68827
N     2.97156   0.37808   0.09641
C     1.81726   0.39812   0.80050
O     1.73255   0.64608   2.00993
C     0.62502   0.09270   0.00887
O    -0.59369   0.07460   0.64888
C    -1.51151  -0.23312  -0.20968
C    -2.95828  -0.33245   0.15140
C    -3.30933  -0.02804   1.57082
O    -3.73717  -0.64524  -0.72776
O    -1.04107  -0.43159  -1.39798
C     0.43051  -0.22765  -1.34264
O     1.10282  -0.35884  -2.33750
H     4.75907   1.49411   0.20072
H     4.92743  -0.23863   0.59701
H     4.13169   0.86746   1.75155
H     2.92755   0.15203  -0.89404
H    -3.00350   1.00187   1.81760
H    -4.39037  -0.14660   1.71115
H    -2.75907  -0.70088   2.24829
