49
Generated by autodE on: 2022-06-24. E = -1129.260308 Ha
C    -4.42761  -2.16381  -2.02931
C    -3.80981  -1.34945  -1.15014
C    -4.50834  -0.82406   0.07584
C    -2.41067  -0.96945  -1.37165
C    -1.69786  -0.14889  -0.58148
C    -0.25304   0.17661  -0.82867
C     0.68833  -0.12094   0.40673
C    -0.09252  -0.86104   1.51393
O    -0.39027  -0.34693   2.57285
O    -0.41169  -2.10211   1.17918
C    -1.24928  -2.83036   2.09177
C     1.91465  -0.96624   0.03025
C     3.17495  -0.65285   0.55445
C     4.29268  -1.43131   0.23802
C     4.16424  -2.53731  -0.60567
C     2.90708  -2.86212  -1.12556
C     1.79085  -2.08568  -0.80729
N     1.07985   1.19708   0.92048
C     0.30965   2.24975   0.28465
C    -0.95518   2.55444   1.00770
N    -1.92371   2.76121   1.61087
C     1.08250   3.50902   0.24527
N     1.69193   4.49435   0.21646
C     0.03256   1.67796  -1.15940
C    -1.10760   2.39251  -1.87689
C     1.31317   1.77884  -2.00071
H    -3.90449  -2.54359  -2.91230
H    -5.46796  -2.47077  -1.88988
H    -4.51131   0.27843   0.09228
H    -3.98744  -1.15046   0.99195
H    -5.54870  -1.17489   0.12383
H    -1.92437  -1.41011  -2.24988
H    -2.17022   0.29325   0.29933
H     0.07879  -0.41770  -1.68621
H    -1.41997  -3.80757   1.62674
H    -0.74633  -2.94907   3.06148
H    -2.20277  -2.30052   2.23034
H     3.28435   0.21500   1.20428
H     5.26845  -1.16746   0.65305
H     5.03763  -3.14358  -0.85724
H     2.79242  -3.72536  -1.78545
H     0.81691  -2.36091  -1.21343
H     1.03340   1.24023   1.93716
H    -2.05369   2.34936  -1.32142
H    -0.84741   3.44949  -2.04291
H    -1.27275   1.92225  -2.85728
H     2.17995   1.33166  -1.49644
H     1.54795   2.82633  -2.23872
H     1.15417   1.24374  -2.94784
