23
Generated by autodE on: 2022-06-24. E = -351.521385 Ha
C     3.73282  -0.59847  -0.08070
C     2.58324   0.10989  -0.02997
C     2.59367   1.61486   0.05377
C     1.29678  -0.58328  -0.05420
C     0.07763   0.01005  -0.00490
C    -1.16985  -0.72609  -0.03021
C    -2.42370  -0.20959   0.02176
C    -2.73373   1.25722   0.11830
C    -3.62754  -1.10807  -0.01356
H     3.72238  -1.69116  -0.14121
H     4.70866  -0.10521  -0.06317
H     3.62083   2.00582   0.06545
H     2.06139   2.06431  -0.80102
H     2.07909   1.96572   0.96378
H     1.34307  -1.67719  -0.11720
H     0.02301   1.10025   0.05871
H    -1.07496  -1.81662  -0.09815
H    -1.84207   1.89687   0.13951
H    -3.36236   1.57163  -0.73357
H    -3.32636   1.46329   1.02715
H    -4.24755  -0.96733   0.89012
H    -3.35163  -2.17042  -0.08444
H    -4.27783  -0.85767  -0.87103
