26
Generated by autodE on: 2022-06-24. E = -777.704446 Ha
C     3.40738  -2.28243  -1.12929
O     2.11386  -1.72120  -0.84924
C     2.09188  -0.51498  -0.30263
O     3.08342   0.14837  -0.04187
C     0.71510  -0.01655  -0.04203
N     0.72411   1.20294   0.45930
C    -0.24319   2.03597   0.94857
C    -1.58479   1.64538   1.14165
N    -2.70422   1.38137   1.34232
C     0.14770   3.33417   1.34556
N     0.45427   4.41138   1.67670
C    -0.49858  -0.77563  -0.36718
C    -1.47101  -0.21676  -1.21663
C    -2.61185  -0.94655  -1.54974
C    -2.79703  -2.23306  -1.03486
C    -1.83140  -2.79529  -0.19218
C    -0.68271  -2.07659   0.13531
H     3.99155  -2.37071  -0.20240
H     3.94707  -1.64948  -1.84786
H     3.21669  -3.27225  -1.55813
H     1.68261   1.58162   0.51786
H    -1.32580   0.78597  -1.62341
H    -3.35922  -0.50766  -2.21413
H    -3.69389  -2.80086  -1.29288
H    -1.97413  -3.80010   0.21132
H     0.07262  -2.51341   0.79015
