49
Generated by autodE on: 2022-06-24. E = -1129.207292 Ha. Imaginary frequency = -382.3 cm-1
C    -3.80171  -3.17129  -1.65668
C    -3.58354  -1.92199  -1.19094
C    -4.63164  -1.18364  -0.39858
C    -2.29636  -1.27197  -1.42275
C    -1.94929  -0.04912  -0.95439
C    -0.64549   0.56382  -1.15459
C     0.39809  -0.10489   0.78581
C    -0.70028  -0.87134   1.44081
O    -1.53137  -0.34104   2.16145
O    -0.70236  -2.15818   1.12538
C    -1.76604  -2.96603   1.65411
C     1.61112  -0.82420   0.31179
C     1.56457  -1.78771  -0.71173
C     2.71849  -2.47136  -1.09219
C     3.93770  -2.21414  -0.45454
C     3.99036  -1.27414   0.57734
C     2.83672  -0.58860   0.96117
N     0.51691   1.14406   1.32639
C     0.98744   2.21080   0.57302
C     0.75743   3.51383   1.11294
N     0.53304   4.58711   1.50423
C     2.20838   2.11164  -0.16690
N     3.17518   2.11247  -0.81470
C    -0.48470   1.98316  -1.14123
C    -1.59753   2.83262  -0.58102
C     0.28929   2.60789  -2.27267
H    -3.03348  -3.70458  -2.22498
H    -4.74841  -3.68935  -1.48042
H    -4.91180  -0.23909  -0.89382
H    -4.25208  -0.91327   0.60085
H    -5.53843  -1.79173  -0.27332
H    -1.56285  -1.84501  -2.00106
H    -2.67796   0.51581  -0.37098
H     0.03624   0.02177  -1.81308
H    -2.74150  -2.51419   1.43658
H    -1.64309  -3.07854   2.74095
H    -1.67812  -3.93814   1.15694
H     0.62231  -2.00331  -1.21277
H     2.66535  -3.21052  -1.89481
H     4.84011  -2.74998  -0.75773
H     4.93293  -1.07291   1.09158
H     2.88353   0.13354   1.77779
H    -0.28213   1.38578   1.91925
H    -1.92866   2.48722   0.40979
H    -1.30029   3.88710  -0.50625
H    -2.47129   2.78459  -1.25418
H     0.68054   3.60213  -2.00777
H     1.11866   1.97235  -2.61099
H    -0.39585   2.74440  -3.12889
