20
Generated by autodE on: 2022-06-18. E = -603.163319 Ha
C    -3.99502  -0.01087  -1.28237
N    -2.74721   0.53926  -0.78913
C    -1.65415  -0.20361  -0.56689
O    -1.56622  -1.42230  -0.75236
C    -0.45462   0.52871  -0.05289
C    -0.40800   1.91873   0.21300
N    -0.40992   3.06483   0.41866
N     0.60803  -0.22236   0.15411
N     1.76753   0.15028   0.59181
C     2.63671  -0.94919   0.67572
C     4.00005  -0.59193   1.17599
O     2.29420  -2.08681   0.36431
H    -4.28239   0.47146  -2.22898
H    -4.80358   0.14387  -0.55152
H    -3.86840  -1.08584  -1.45244
H    -2.71074   1.53743  -0.59989
H     0.47397  -1.23605  -0.06908
H     4.63491  -1.48479   1.22352
H     3.91926  -0.13058   2.17320
H     4.45325   0.15999   0.51035
