37
Generated by autodE on: 2022-05-26. E = -992.844625 Ha
C    -4.35956   1.31032   0.95388
O    -2.99674   0.95312   0.68156
C    -2.05283   1.73178   1.20455
O    -2.28712   2.72725   1.87022
C    -0.67775   1.31034   0.88747
C    -0.17260   0.19798   0.29202
C    -0.87028  -0.99612  -0.21595
C    -0.68642  -1.39504  -1.55095
C    -1.32610  -2.53575  -2.03831
C    -2.13770  -3.30020  -1.19425
C    -2.31581  -2.91374   0.13860
C    -1.69044  -1.76535   0.62566
C     1.30598   0.41406   0.21416
C     2.26952  -0.54650  -0.35908
C     3.34255  -0.07499  -1.13504
C     4.27037  -0.96857  -1.67067
C     4.14452  -2.34049  -1.42700
C     3.08681  -2.81548  -0.64516
C     2.14828  -1.92675  -0.11862
N     1.68367   1.54755   0.71596
C     0.48809   2.21060   1.22447
C     0.35972   3.56498   0.67734
N     0.27499   4.63362   0.23546
H    -4.58312   2.30750   0.54817
H    -4.54814   1.30480   2.03701
H    -4.97266   0.55012   0.45683
H    -0.04564  -0.80349  -2.20758
H    -1.18516  -2.83168  -3.08030
H    -2.62990  -4.19849  -1.57412
H    -2.94511  -3.51047   0.80284
H    -1.82578  -1.46359   1.66557
H     3.43522   0.99538  -1.32518
H     5.09430  -0.59355  -2.28201
H     4.87166  -3.03971  -1.84647
H     2.99033  -3.88477  -0.44433
H     1.33131  -2.30494   0.49635
H     0.58108   2.31456   2.32223
