20
Generated by autodE on: 2022-05-26. E = -536.522087 Ha
C     4.75428   0.28532  -0.20039
O     3.32856   0.40656  -0.32947
C     2.59143  -0.43434   0.40612
O     3.05761  -1.27310   1.15522
C     1.17919  -0.22584   0.20529
C    -0.02404  -0.08938   0.07403
C    -1.43097   0.07520  -0.08262
C    -1.93748   1.02486  -0.99545
C    -3.31405   1.18130  -1.14386
C    -4.19646   0.39977  -0.38920
C    -3.70076  -0.54355   0.51814
C    -2.32621  -0.70998   0.67472
H     5.06328   0.47188   0.83827
H     5.08375  -0.71846  -0.50548
H     5.18084   1.04408  -0.86627
H    -1.24284   1.63074  -1.57987
H    -3.70235   1.91686  -1.85159
H    -5.27486   0.52652  -0.50875
H    -4.39047  -1.15254   1.10649
H    -1.93184  -1.44359   1.38001
