52
Generated by autodE on: 2022-06-22. E = -1130.724138 Ha
C     2.33875   2.72297   1.03612
C     1.21450   2.36089   0.40249
C     0.19777   3.36626  -0.06712
C     0.94904   0.89096   0.15214
C    -0.52309   0.45475   0.16643
C    -1.12380   0.53198   1.53636
C    -2.31676   1.06059   1.86376
C    -2.77718   1.08607   3.29599
C    -3.29042   1.64605   0.87855
C    -0.48309  -0.94830  -0.53056
C    -0.29514  -2.07197   0.51567
C    -1.46395  -2.51957   1.35142
O     0.81034  -2.56006   0.68421
C    -1.73866  -1.11824  -1.44671
C    -2.34023  -2.47841  -1.65408
O    -2.16087  -0.14616  -2.04399
N     0.69677  -0.87748  -1.37847
C     0.79990  -1.64034  -2.60429
C     1.46298   0.32875  -1.21616
C     1.24659   1.26234  -2.34829
N     1.01241   1.90752  -3.28405
C     2.98593   0.06380  -1.09158
O     3.80395   0.91868  -1.43754
N     3.27910  -1.11546  -0.53458
C     4.63319  -1.50184  -0.19425
H     3.05564   1.97853   1.39438
H     2.57716   3.77572   1.21427
H     0.55785   4.39210   0.09526
H    -0.75172   3.24481   0.47971
H    -0.03707   3.24738  -1.13583
H     1.48663   0.30997   0.91422
H    -1.07804   1.08876  -0.53374
H    -0.50335   0.12404   2.34274
H    -2.03145   0.65266   3.97847
H    -3.72222   0.52630   3.41007
H    -2.98941   2.12010   3.61985
H    -2.94162   1.61015  -0.16052
H    -4.25039   1.10331   0.93123
H    -3.51433   2.69511   1.13838
H    -1.16534  -2.49499   2.40966
H    -2.36286  -1.90963   1.21135
H    -1.68924  -3.56752   1.09671
H    -1.61662  -3.29019  -1.50249
H    -3.15705  -2.61236  -0.92581
H    -2.77355  -2.53132  -2.66202
H     0.50595  -2.68403  -2.42066
H     0.17865  -1.23706  -3.42700
H     1.84505  -1.64925  -2.94547
H     2.48573  -1.69722  -0.24774
H     4.70495  -2.59711  -0.16895
H     4.93658  -1.10722   0.79049
H     5.33235  -1.11504  -0.94822
