23
Generated by autodE on: 2022-06-22. E = -351.521384 Ha
C    -3.36471   0.09602  -1.72323
C    -2.44905   0.33695  -0.75913
C    -2.80517   1.11357   0.48270
C    -1.08231  -0.15832  -0.91008
C    -0.07539   0.01410  -0.01714
C     1.26443  -0.49948  -0.21633
C     2.32182  -0.37208   0.62475
C     2.27637   0.34680   1.94319
C     3.65839  -0.96226   0.27394
H    -4.39398   0.45495  -1.63580
H    -3.10325  -0.46801  -2.62389
H    -3.85937   1.42420   0.46954
H    -2.17934   2.01627   0.57983
H    -2.63234   0.51248   1.39086
H    -0.87384  -0.71557  -1.83135
H    -0.27542   0.56913   0.90338
H     1.42672  -1.04810  -1.15207
H     1.28895   0.75822   2.18900
H     3.00586   1.17608   1.95083
H     2.57863  -0.33277   2.75943
H     4.43620  -0.17809   0.24291
H     3.64393  -1.47662  -0.69815
H     3.98327  -1.68278   1.04597
