29
Generated by autodE on: 2022-06-22. E = -779.152404 Ha
C     3.68390  -1.30126   0.98559
N     2.84105  -0.55521   0.06992
C     1.62122  -0.13652   0.43690
O     1.15521  -0.29318   1.56454
C     0.86952   0.65741  -0.60515
C     1.61893   1.41922  -1.53952
N     2.28047   2.01402  -2.29298
N    -0.44698   0.84441  -0.52574
C    -1.03063   1.99690  -1.24505
C    -1.28998  -0.08643   0.05741
C    -0.99284  -1.49550  -0.21629
C    -2.02884  -2.54610   0.09725
O     0.07167  -1.83915  -0.74385
C    -2.42936   0.37467   0.85240
C    -2.37173   1.76347   1.46338
O    -3.38699  -0.35409   1.12408
H     3.22770  -2.27008   1.24625
H     4.65344  -1.48006   0.50625
H     3.84210  -0.73597   1.91585
H     3.13408  -0.45986  -0.89779
H    -0.63043   2.93429  -0.84011
H    -0.76923   1.90967  -2.30906
H    -2.11861   1.96250  -1.15963
H    -2.19516  -2.59611   1.18415
H    -1.65033  -3.51108  -0.26436
H    -2.99964  -2.31531  -0.35999
H    -1.36076   2.18746   1.50645
H    -2.78009   1.69011   2.48155
H    -3.02355   2.44949   0.89967
