52
Generated by autodE on: 2022-06-22. E = -1130.648063 Ha. Imaginary frequency = -332.3 cm-1
C     2.04236   3.58729  -0.63871
C     0.96940   2.78153  -0.74719
C    -0.12471   3.06169  -1.74295
C     0.84452   1.61488   0.16505
C    -0.45399   1.11705   0.48996
C    -0.82307   0.73068   1.81625
C    -2.10014   0.59977   2.27897
C    -2.35064   0.21015   3.70314
C    -3.32901   0.81646   1.44973
C    -0.36374  -1.04262  -1.00182
C    -0.18497  -2.15731  -0.05468
C    -1.19081  -2.42844   1.03592
O     0.83015  -2.86029  -0.10675
C    -1.65144  -0.75805  -1.64367
C    -2.86170  -1.63214  -1.38199
O    -1.78173   0.18473  -2.43796
N     0.78939  -0.53839  -1.61183
C     0.87445  -0.34917  -3.06901
C     1.77550   0.03873  -0.82885
C     2.83920   0.66741  -1.56673
N     3.70001   1.24264  -2.09593
C     2.35437  -0.73619   0.39452
O     1.88568  -0.66946   1.52399
N     3.45179  -1.45348   0.09677
C     4.02196  -2.36950   1.06793
H     2.82706   3.39567   0.09864
H     2.16300   4.46129  -1.28490
H     0.19269   3.82283  -2.46951
H    -1.03030   3.43423  -1.23386
H    -0.43013   2.15521  -2.28277
H     1.54978   1.63543   0.99816
H    -1.25486   1.33791  -0.21187
H    -0.00598   0.55493   2.51849
H    -1.41892   0.10974   4.27761
H    -2.89231  -0.75245   3.74169
H    -3.00246   0.94708   4.20482
H    -3.12411   1.01372   0.39077
H    -3.99231  -0.06205   1.51952
H    -3.90685   1.66659   1.85447
H    -0.65220  -2.28729   1.98703
H    -2.06133  -1.77050   1.03768
H    -1.51067  -3.48074   0.99125
H    -3.52129  -1.54424  -2.25624
H    -2.61271  -2.68746  -1.21415
H    -3.42002  -1.26338  -0.50961
H     1.84192  -0.73925  -3.41574
H     0.08141  -0.92049  -3.55607
H     0.78953   0.70667  -3.35955
H     3.70935  -1.57317  -0.87846
H     4.96773  -2.76188   0.67501
H     3.33584  -3.20900   1.26781
H     4.21564  -1.84760   2.01541
