61
Generated by autodE on: 2022-06-30. E = -2031.637016 Ha
C     1.29167  -1.39331  -1.81177
N     0.29081  -1.06431  -0.81298
C     0.19567   0.17168  -0.30518
O     0.94113   1.08699  -0.64568
C    -0.83574   0.35653   0.86213
C    -2.23350  -0.26483   0.71333
C    -2.70317  -0.89237  -0.44475
C    -3.99652  -1.42505  -0.48397
C    -4.83379  -1.33405   0.62816
C    -4.37018  -0.70337   1.78834
C    -3.08111  -0.17527   1.82943
N    -0.16446  -0.39288   1.92814
C     0.21058   0.45155   2.81615
C     0.88908  -0.05553   4.05999
O     1.07989   0.62064   5.05279
O     1.23778  -1.32797   3.95936
C     1.86169  -1.91846   5.11314
C    -0.15470   1.86490   2.50645
C    -0.85262   1.82910   1.33286
C    -1.47035   2.99628   0.54178
C    -2.29559   2.55794  -0.72069
F    -2.65837   3.65275  -1.41370
F    -1.57289   1.79732  -1.55676
F    -3.41605   1.88057  -0.45847
C    -2.50138   3.82458   1.43054
F    -3.76048   3.78901   0.97340
F    -2.18121   5.12872   1.48027
F    -2.56016   3.37269   2.69185
C    -0.34110   3.92037  -0.07002
C     0.99812   4.07536   0.64612
C     1.06306   4.92162   1.91375
C     0.22542   4.46802   3.10774
C     0.29617   2.95304   3.49264
C    -0.54276   2.81986   4.69347
N    -1.25365   2.77446   5.60935
C     1.81710   2.73051   3.80391
C     2.38535   3.32531   5.05687
O     2.51086   2.20387   2.95815
H     1.11791  -2.41849  -2.16022
H     1.22323  -0.70723  -2.66887
H     2.31085  -1.32282  -1.39776
H    -0.27792  -1.80824  -0.42458
H    -2.08734  -0.94664  -1.33971
H    -4.34873  -1.90564  -1.39958
H    -5.84449  -1.74707   0.59258
H    -5.01698  -0.61940   2.66466
H    -2.73659   0.32590   2.73628
H     2.79090  -1.38433   5.35699
H     2.07657  -2.95654   4.83701
H     1.17874  -1.88258   5.97366
H    -0.10132   3.47054  -1.03929
H    -0.78293   4.90208  -0.27893
H     1.66153   4.55304  -0.09311
H     1.43474   3.08585   0.82751
H     2.12093   4.97823   2.21658
H     0.75639   5.95614   1.68749
H     0.56495   5.01620   3.99857
H    -0.81782   4.75459   3.00084
H     3.23269   2.71001   5.38693
H     1.64579   3.42483   5.86039
H     2.77142   4.32906   4.81190
