32
Generated by autodE on: 2022-06-30. E = -1231.524290 Ha
C     3.43951   1.20013  -0.48582
C     3.12520   0.10173  -1.44849
O     3.54132   0.04204  -2.58019
C     2.18433  -1.06624  -0.92267
C     3.08388  -2.08072  -0.35893
N     3.81027  -2.88248   0.06000
C     1.21836  -0.56574   0.05209
C     0.17507  -0.10122   0.44646
C    -1.20321   0.37464   0.42436
C    -2.07795  -0.49237   1.36205
F    -1.58567  -0.53338   2.60715
F    -2.14018  -1.75484   0.91728
F    -3.33250  -0.02851   1.43511
C    -1.24628   1.85709   0.87134
F    -2.45833   2.39463   0.69427
F    -0.37392   2.58076   0.15255
F    -0.91718   2.00388   2.16155
C    -1.70129   0.26844  -1.06191
C    -1.18088  -0.92459  -1.88878
C     0.19809  -0.77683  -2.59308
C     1.35388  -1.67127  -2.10326
H     4.24896   1.82670  -0.88046
H     3.70585   0.78363   0.49840
H     2.53281   1.81069  -0.34105
H    -1.40956   1.20007  -1.56672
H    -2.80042   0.25543  -1.03641
H    -1.20164  -1.84367  -1.28591
H    -1.93581  -1.07446  -2.67502
H     0.51496   0.27918  -2.59265
H     0.05497  -1.03555  -3.65286
H     0.96712  -2.64829  -1.77878
H     2.06858  -1.84989  -2.91800
