48
Generated by autodE on: 2022-10-08. E = -1464.495617 Ha
C     1.35217   3.57099  -1.82773
N     1.17250   2.53564  -0.83471
C     1.68000   1.30457  -0.93966
O     2.49500   0.95143  -1.80677
C     1.20771   0.31354   0.14370
C     2.33670   0.15322   1.19402
O     2.06728   0.09345   2.39638
N     3.59124   0.14680   0.71512
C     4.70636  -0.27278   1.53808
N     0.01710   0.80452   0.83876
C    -1.13836   0.08859   0.27439
C    -2.27205   0.07187   1.29462
O    -2.38300   0.82992   2.23640
O    -3.20010  -0.82959   0.95803
C    -4.31725  -0.96552   1.84533
C    -1.67471   0.85179  -0.95252
C    -2.05909   2.19193  -0.77588
C    -2.51980   2.95490  -1.84850
C    -2.60556   2.38824  -3.12571
C    -2.23686   1.05461  -3.30950
C    -1.77936   0.28962  -2.22953
C    -0.61000  -1.33119  -0.03551
C    -0.63706  -2.25081   1.20912
O    -0.65289  -1.70744   2.34750
O    -0.66183  -3.48528   0.98102
C     0.81379  -1.03793  -0.56907
C     1.78985  -2.23065  -0.44442
O     2.25794  -2.49636   0.69339
O     2.01895  -2.86800  -1.50413
H     1.45390   4.55143  -1.34085
H     0.49411   3.61292  -2.51958
H     2.26089   3.36447  -2.40718
H     0.43898   2.61867  -0.13151
H     3.68895   0.10887  -0.29755
H     5.64713  -0.02666   1.02913
H     4.68174   0.24314   2.50768
H     4.67347  -1.36042   1.72304
H     0.11600   0.51315   1.81422
H    -4.86018  -0.01379   1.93560
H    -3.97170  -1.28809   2.83851
H    -4.96463  -1.73164   1.40324
H    -1.98442   2.64230   0.21582
H    -2.81025   3.99593  -1.68842
H    -2.95962   2.98382  -3.97042
H    -2.30107   0.59910  -4.30056
H    -1.50026  -0.74898  -2.40286
H    -1.19462  -1.84564  -0.80524
H     0.73336  -0.82920  -1.64118
