38
Generated by autodE on: 2022-10-08. E = -1009.394973 Ha
C     4.05323   3.42871  -0.23207
N     2.91474   2.61555  -0.60192
C     2.44716   1.64777   0.20357
O     2.97914   1.36116   1.29633
C     1.25134   0.89544  -0.24710
N     0.82823   0.04166   0.69700
C    -0.22656  -0.74432   0.92672
C    -0.08271  -1.51167   2.16974
O     0.92162  -1.47249   2.87288
O    -1.16143  -2.24088   2.47243
C    -1.09840  -3.01269   3.67851
C    -1.44578  -0.74703   0.10192
C    -2.00043  -1.94979  -0.37005
C    -3.13387  -1.93295  -1.18553
C    -3.73345  -0.71897  -1.53330
C    -3.19558   0.48230  -1.05695
C    -2.06003   0.46990  -0.24875
C     0.70072   1.03324  -1.61074
O     0.71617   2.13037  -2.20442
N     0.25159  -0.08062  -2.22116
C    -0.47430  -0.01496  -3.47457
H     4.32369   4.06876  -1.08095
H     4.91861   2.79947   0.02556
H     3.83469   4.07168   0.63768
H     2.34125   2.84898  -1.41235
H     1.51336   0.03157   1.48059
H    -0.97208  -2.35485   4.55070
H    -0.26380  -3.72757   3.63715
H    -2.05278  -3.54779   3.74332
H    -1.52775  -2.89780  -0.10917
H    -3.54755  -2.87407  -1.55493
H    -4.61771  -0.70753  -2.17456
H    -3.66185   1.43445  -1.31991
H    -1.63954   1.41257   0.10784
H     0.22590  -0.95454  -1.70970
H     0.17370   0.32760  -4.29613
H    -1.32773   0.67766  -3.39885
H    -0.85176  -1.01632  -3.71351
