10
Generated by autodE on: 2022-10-08. E = -455.046605 Ha
O     2.80239   0.09695   0.40591
C     1.56367  -0.09370   0.23868
O     0.98222  -1.21403   0.28955
C     0.73562   1.13867  -0.04054
C    -0.59303   1.16841  -0.23787
C    -1.56112  -0.00002  -0.22796
O    -1.78282  -0.56098  -1.33180
O    -2.12556  -0.24913   0.86886
H     1.30385   2.07550  -0.07376
H    -1.06867   2.14089  -0.42725
