54
Generated by autodE on: 2022-06-07. E = -1468.456876 Ha
C     2.47957   3.27184  -0.93614
N     2.21622   1.98891  -0.31377
C     1.19413   1.20720  -0.67657
O     0.44216   1.46503  -1.62249
C     0.93308  -0.03586   0.22167
C     2.24065  -0.61873   0.73740
C     2.52273  -0.72831   2.10462
C     3.72897  -1.28939   2.53994
C     4.66934  -1.74384   1.61495
C     4.40177  -1.62523   0.24628
C     3.20214  -1.06299  -0.18734
N     0.05013   0.41443   1.29618
C    -1.30951   0.48857   0.77512
C    -2.31187   0.44073   1.93820
C    -1.59708   1.84355   0.10122
O    -2.47790   2.01458  -0.71650
O    -0.87413   2.83309   0.61382
C    -1.09276   4.13943   0.06061
C    -1.43617  -0.72320  -0.24997
C    -2.37204  -0.47144  -1.41835
O    -2.05299  -0.24472  -2.56372
O    -3.64188  -0.61190  -1.01991
C    -4.65532  -0.34605  -1.99870
C    -1.88929  -2.04958   0.49426
C    -1.95731  -3.15414  -0.54672
C    -0.68403  -3.47237  -0.80652
C     0.13977  -2.55081   0.07683
O    -0.69833  -2.37889   1.21491
C     0.06225  -1.09638  -0.58455
C     0.46303  -1.22061  -1.97891
N     0.90039  -1.44021  -3.03213
H     3.54517   3.51390  -0.83178
H     2.22523   3.22535  -2.00289
H     1.88706   4.07726  -0.47168
H     2.76578   1.71572   0.49493
H     1.81346  -0.37097   2.85091
H     3.92922  -1.36604   3.61102
H     5.60998  -2.18246   1.95566
H     5.13324  -1.96918  -0.48842
H     3.01459  -0.96990  -1.25811
H     0.04913  -0.30040   2.02227
H    -3.33937   0.38926   1.55601
H    -2.11970  -0.42654   2.58377
H    -2.20532   1.34922   2.54716
H    -0.84599   4.13718  -1.01038
H    -2.13908   4.44657   0.19884
H    -0.42256   4.81357   0.60547
H    -4.58225   0.69617  -2.34138
H    -5.61380  -0.51469  -1.49483
H    -4.55051  -1.02502  -2.85677
H    -2.74906  -1.93605   1.15583
H    -2.87067  -3.51760  -1.01540
H    -0.27927  -4.16321  -1.54461
H     1.14930  -2.86490   0.35066
