34
Generated by autodE on: 2022-07-27. E = -840.593438 Ha
C     1.52258   1.87985  -2.58683
N     1.30820   1.02101  -1.44147
C     0.16403   0.33827  -1.23122
O    -0.78848   0.36045  -2.02505
C     0.11982  -0.48630   0.01095
N    -1.06047  -0.64371   0.63757
C    -2.22555   0.03719   0.61432
C    -3.46112  -0.68141   1.05453
C    -2.34186   1.41029   0.17742
O    -3.41437   1.94251  -0.10308
O    -1.18146   2.10281   0.19176
C    -1.20106   3.42099  -0.35724
C     1.25215  -1.26848   0.49931
C     1.33866  -1.63864   1.86263
C     2.38239  -2.44121   2.32519
C     3.38153  -2.87795   1.45071
C     3.32082  -2.50634   0.10148
C     2.27384  -1.71911  -0.37125
H     0.71009   1.72124  -3.30512
H     1.53138   2.94224  -2.29218
H     2.48167   1.64658  -3.07456
H     2.02273   0.99301  -0.72159
H    -1.09806  -1.47687   1.23499
H    -3.20302  -1.54084   1.69464
H    -4.03267  -1.07895   0.19512
H    -4.13502  -0.01507   1.61282
H    -1.45509   3.38635  -1.42744
H    -1.92558   4.05934   0.16897
H    -0.18780   3.81990  -0.22787
H     0.59907  -1.26630   2.57509
H     2.42434  -2.70908   3.38374
H     4.20361  -3.49751   1.81594
H     4.09146  -2.84644  -0.59458
H     2.23055  -1.46904  -1.43193
