34
Generated by autodE on: 2022-06-07. E = -840.609125 Ha
C    -3.65776  -2.69299   0.55497
N    -2.81460  -1.53257   0.35604
C    -1.47005  -1.61758   0.41740
O    -0.89044  -2.70043   0.64569
C    -0.68716  -0.38698   0.17914
N     0.62429  -0.63431   0.16709
C     1.74661   0.09514   0.10001
C     1.76756   1.58524   0.12259
C     2.93897  -0.73221   0.07163
O     2.93108  -1.96475   0.10713
O     4.08216  -0.02119   0.00476
C     5.29980  -0.77034  -0.01926
C    -1.28723   0.91675  -0.15497
C    -2.19316   1.54410   0.72221
C    -2.78439   2.76197   0.38125
C    -2.48142   3.37468  -0.83913
C    -1.58893   2.75721  -1.72144
C    -1.00027   1.53696  -1.38687
H    -4.70625  -2.37119   0.56789
H    -3.52674  -3.43575  -0.24969
H    -3.42731  -3.18937   1.51035
H    -3.24461  -0.64382   0.12564
H     0.80631  -1.64858   0.27532
H     1.54458   2.03387  -0.86121
H     2.75992   1.93425   0.43246
H     1.02213   1.97840   0.82986
H     5.32881  -1.44213  -0.89012
H     6.10877  -0.03304  -0.08718
H     5.41099  -1.36663   0.89883
H    -2.41805   1.07986   1.68461
H    -3.47791   3.23969   1.07722
H    -2.94217   4.32933  -1.10330
H    -1.35470   3.22544  -2.68039
H    -0.31994   1.04904  -2.08743
