20
Generated by autodE on: 2022-06-07. E = -627.786332 Ha
C     3.62768  -0.22908   0.13458
O     2.25140   0.10927  -0.09518
C     1.35199  -0.85346   0.10894
O     1.62560  -1.98578   0.46297
C    -0.02695  -0.40481  -0.13306
C    -0.53603   0.82636  -0.34919
C     0.11150   2.07563  -0.44791
N     0.59682   3.13059  -0.53982
C    -2.08287   0.60697  -0.38490
C    -2.50253   0.24756   1.05557
C    -1.99063  -0.96745   1.26856
C    -1.26217  -1.32750  -0.04420
O    -2.11075  -0.68089  -1.00799
H     4.20057   0.67822  -0.08747
H     3.77716  -0.52954   1.18163
H     3.93576  -1.04885  -0.53018
H    -2.66425   1.35960  -0.92546
H    -3.04831   0.90827   1.72747
H    -1.99702  -1.58506   2.16549
H    -1.09159  -2.38472  -0.26704
