54
Generated by autodE on: 2022-06-05. E = -1319.850156 Ha
C     2.49663  -1.49486   2.46070
C     1.40583  -0.49343   2.19762
O     0.70528  -0.08274   3.10516
C     1.09249  -0.06342   0.72746
C     2.34750  -0.00834  -0.13083
C     2.36794  -0.51101  -1.43717
C     3.50987  -0.37014  -2.23122
C     4.63977   0.28285  -1.73175
C     4.62069   0.79869  -0.43169
C     3.48199   0.65325   0.36279
N     0.09251  -1.00454   0.21277
C     0.37678  -2.43299   0.25334
C    -1.26551  -0.60059   0.54805
C    -1.67695  -1.22367   1.84280
N    -1.95785  -1.80485   2.80690
C    -2.28346  -1.07389  -0.50449
C    -1.87478  -1.32973  -1.81893
C    -2.81330  -1.68250  -2.79143
C    -4.16900  -1.77781  -2.46334
C    -4.58038  -1.52477  -1.15175
C    -3.64139  -1.18029  -0.17611
C    -1.21912   0.98277   0.67825
C    -2.03825   1.50107   1.85245
C    -1.62087   1.67333  -0.68053
C    -1.51581   3.17799  -0.49467
C    -0.20496   3.44464  -0.50434
C     0.46793   2.09370  -0.69402
O    -0.47326   1.39147  -1.49313
C     0.33063   1.31446   0.69663
C     0.76008   2.21040   1.76206
N     1.12970   2.99388   2.53503
H     2.84595  -2.01656   1.56371
H     2.14110  -2.20987   3.21651
H     3.35409  -0.95124   2.89112
H     1.48194  -1.00108  -1.83950
H     3.51210  -0.76947  -3.24808
H     5.53125   0.39326  -2.35347
H     5.49549   1.31789  -0.03362
H     3.47647   1.07299   1.37136
H    -0.33466  -2.96241  -0.39456
H     0.30008  -2.87066   1.26605
H     1.38619  -2.62302  -0.13039
H    -0.82209  -1.23620  -2.07931
H    -2.48117  -1.88146  -3.81299
H    -4.90151  -2.05166  -3.22613
H    -5.63638  -1.59886  -0.88229
H    -3.97506  -0.98956   0.84561
H    -3.09313   1.21281   1.72880
H    -1.67383   1.09881   2.80531
H    -1.98653   2.59590   1.90727
H    -2.54058   1.29328  -1.13034
H    -2.35336   3.85125  -0.31679
H     0.31166   4.38766  -0.33143
H     1.47125   2.07926  -1.12366
