37
Generated by autodE on: 2022-06-05. E = -880.641787 Ha
C    -2.72684  -1.69626  -2.20914
C    -1.40137  -2.05474  -1.57309
O    -0.78802  -3.05398  -1.97609
C    -0.88228  -1.22017  -0.49180
C    -1.32530   0.17280  -0.30797
C    -1.59888   0.67118   0.98208
C    -2.03647   1.98079   1.16141
C    -2.20141   2.82855   0.05786
C    -1.92694   2.35012  -1.22518
C    -1.48690   1.03705  -1.40606
N     0.08019  -1.73820   0.33480
C     0.07752  -3.18430   0.65278
C     1.02061  -0.98141   0.96163
C     1.62368  -1.48883   2.13906
N     2.16672  -1.85139   3.10862
C     1.48360   0.33072   0.49312
C     1.88736   1.30708   1.42510
C     2.38138   2.53829   0.99497
C     2.48835   2.81512  -0.37152
C     2.10011   1.84723  -1.30555
C     1.59476   0.62065  -0.88239
H    -3.25104  -2.63621  -2.43713
H    -3.35854  -1.05779  -1.57964
H    -2.55507  -1.17886  -3.16699
H    -1.46870   0.02295   1.85103
H    -2.25250   2.34498   2.16851
H    -2.53887   3.85754   0.20175
H    -2.04204   3.00520  -2.09182
H    -1.24593   0.68432  -2.40977
H    -0.87642  -3.62719   0.36375
H     0.90644  -3.68511   0.13864
H     0.20291  -3.29290   1.73715
H     1.80322   1.09980   2.49382
H     2.67990   3.28710   1.73204
H     2.87213   3.78049  -0.70896
H     2.18599   2.05259  -2.37494
H     1.29327  -0.12343  -1.62077
