37
Generated by autodE on: 2022-07-27. E = -880.637858 Ha
C    -0.00919  -1.35551   2.38608
C     1.05692  -0.40467   1.87166
O     1.92710  -0.01665   2.66316
C     1.14468  -0.07972   0.44983
C     2.40508   0.37921  -0.14698
C     2.38653   1.33094  -1.18879
C     3.57159   1.77631  -1.77467
C     4.80362   1.28886  -1.32785
C     4.83818   0.34923  -0.29035
C     3.65633  -0.10317   0.29347
N     0.04427  -0.20736  -0.35808
C     0.18783  -0.81721  -1.69110
C    -1.18050   0.15140   0.09804
C    -1.23674   1.07474   1.17316
N    -1.36841   1.87327   2.01689
C    -2.47948  -0.35804  -0.39140
C    -2.84175  -0.39729  -1.75251
C    -4.10330  -0.85830  -2.13193
C    -5.02581  -1.27850  -1.16938
C    -4.68422  -1.22340   0.18569
C    -3.42702  -0.76208   0.57291
H     0.51953  -2.12861   2.96478
H    -0.61569  -1.83682   1.60939
H    -0.67634  -0.82635   3.08439
H     1.43288   1.73820  -1.53040
H     3.53226   2.51647  -2.57744
H     5.73251   1.64000  -1.78312
H     5.79627  -0.04088   0.06138
H     3.69765  -0.84392   1.09176
H    -0.52495  -1.64961  -1.76553
H    -0.01499  -0.09004  -2.48547
H     1.20419  -1.20744  -1.78726
H    -2.15786  -0.03493  -2.51786
H    -4.36950  -0.87683  -3.19108
H    -6.01137  -1.63795  -1.47364
H    -5.39915  -1.54372   0.94680
H    -3.16580  -0.72536   1.63237
