17
Generated by autodE on: 2022-06-05. E = -439.145383 Ha
C    -2.41377  -0.46429   0.03496
C    -0.96248  -0.28015   0.24265
C    -0.12039   0.70977  -0.12814
C    -0.41178   1.89066  -0.83650
N    -0.63851   2.87628  -1.41937
C     1.29678   0.21753   0.29730
C     1.64304  -0.97754  -0.61561
C     0.80556  -1.94965  -0.24172
C    -0.03105  -1.33104   0.89795
O     0.94338  -0.46632   1.50786
H    -2.87010   0.39236  -0.48023
H    -2.58816  -1.37685  -0.56246
H    -2.92449  -0.62322   0.99978
H     2.05829   0.98810   0.45190
H     2.37662  -0.95821  -1.42076
H     0.65887  -2.94611  -0.65639
H    -0.49989  -2.01055   1.61756
