43
Generated by autodE on: 2022-07-01. E = -813.800014 Ha
C     3.93594   1.48272   2.04259
C     2.68971   2.18392   1.48304
C     1.96554   1.33649   0.53305
C     1.12397   0.57035   0.11057
C    -0.11968  -0.21431   0.09421
C     0.05111  -1.62402  -0.49008
C    -1.06978  -2.45887  -0.62439
C    -0.93654  -3.75747  -1.11909
C     0.32146  -4.24272  -1.49519
C     1.44087  -3.41676  -1.37011
C     1.30525  -2.11693  -0.86953
C    -1.18038   0.53781  -0.73257
C    -2.48860   0.74895  -0.27949
C    -3.42749   1.40014  -1.08950
C    -3.07324   1.84740  -2.36349
C    -1.76836   1.63883  -2.82570
C    -0.83473   0.99178  -2.01592
C    -0.48021  -0.34063   1.61326
C    -0.48229   0.96561   2.43784
C     0.82710   1.37981   3.16960
C     1.65682   2.54577   2.58891
H     4.45399   2.14330   2.75514
H     3.66571   0.55263   2.56628
H     4.64003   1.22512   1.23666
H     3.01398   3.12089   1.00024
H    -2.05791  -2.08693  -0.34544
H    -1.82026  -4.39304  -1.21554
H     0.42582  -5.25760  -1.88622
H     2.42809  -3.78211  -1.66382
H     2.18448  -1.47674  -0.77301
H    -2.79363   0.40738   0.70951
H    -4.44227   1.55710  -0.71567
H    -3.80676   2.35603  -2.99355
H    -1.47701   1.98269  -3.82124
H     0.18214   0.83169  -2.38271
H    -1.46129  -0.83221   1.68733
H     0.24318  -1.04536   2.05204
H    -0.83723   1.80187   1.81337
H    -1.25559   0.83417   3.21122
H     1.47047   0.49390   3.30747
H     0.54037   1.68830   4.18750
H     0.96613   3.30588   2.18726
H     2.21451   3.03296   3.40645
