31
Generated by autodE on: 2022-07-27. E = -817.557706 Ha
C    -3.61496   0.26710   0.81313
N    -2.42832  -0.44007   0.38729
C    -1.19835   0.10157   0.54050
O    -1.05516   1.27666   0.94743
C    -0.05312  -0.76319   0.24168
N     1.21289  -0.26202   0.47162
C     1.69641   0.95882   0.41273
C     3.00518   1.27154   1.04992
C     0.99724   2.06432  -0.29272
O     1.12429   3.22931   0.03315
O     0.36571   1.66060  -1.39648
C    -0.39451   2.65208  -2.09826
C    -0.15437  -2.19143  -0.01500
O    -1.23193  -2.82834   0.04923
N     1.00299  -2.85383  -0.32683
C     0.97770  -4.27656  -0.60782
H    -4.50087  -0.28763   0.47754
H    -3.64623   1.27610   0.37513
H    -3.67062   0.37981   1.91065
H    -2.44333  -1.45177   0.23736
H     1.88029  -0.95467   0.83055
H     2.84755   1.91539   1.93255
H     3.65620   1.82755   0.35777
H     3.51412   0.35411   1.37933
H    -1.15846   3.08010  -1.43325
H     0.26001   3.45267  -2.47192
H    -0.87124   2.13019  -2.93589
H     1.77358  -2.33009  -0.72715
H     0.51184  -4.82581   0.22254
H     2.00933  -4.63137  -0.72828
H     0.41375  -4.51281  -1.52702
