31
Generated by autodE on: 2022-07-01. E = -817.567746 Ha
C    -3.99031  -1.82485  -1.49745
N    -3.09561  -0.83016  -0.94652
C    -1.79587  -1.09317  -0.72363
O    -1.28644  -2.21225  -0.94489
C    -0.95790   0.00306  -0.19139
N     0.33801  -0.35423  -0.11397
C     1.49539   0.27838   0.04273
C     1.63596   1.75897   0.05873
C     2.63723  -0.64184   0.06891
O     2.53390  -1.85998  -0.03371
O     3.81015  -0.01357   0.21355
C     4.98190  -0.83819   0.24016
C    -1.54006   1.24102   0.35588
O    -2.54847   1.77134  -0.15459
N    -1.00239   1.72614   1.49503
C    -1.44894   2.97847   2.07240
H    -5.00786  -1.41542  -1.51683
H    -3.70641  -2.10901  -2.52509
H    -3.99082  -2.74029  -0.88574
H    -3.39173   0.13801  -0.82530
H     0.44093  -1.37008  -0.30378
H     0.86941   2.22252  -0.58263
H     2.62914   2.03212  -0.31935
H     1.53208   2.20014   1.06440
H     4.93422  -1.54993   1.07730
H     5.82885  -0.15497   0.37205
H     5.08578  -1.39304  -0.70377
H    -0.23907   1.23216   1.94226
H    -0.82586   3.20606   2.94583
H    -1.35867   3.80275   1.34693
H    -2.50172   2.92289   2.39251
