39
Generated by autodE on: 2022-06-19. E = -1063.754907 Ha
C    -4.61686  -0.69537  -0.12412
N    -3.24201  -0.35671  -0.43510
C    -2.25322  -1.24934  -0.31630
O    -2.42608  -2.42207   0.03798
C    -0.84297  -0.75246  -0.61369
O    -0.85173   0.50193  -1.32940
N    -0.22384   1.48677  -0.52257
C    -1.06598   2.41607   0.06990
O    -0.71468   3.13069   0.98961
O    -2.25289   2.48206  -0.53941
C    -3.18746   3.43700  -0.01102
C     0.77229   0.78700   0.27975
C     2.03521   0.51034  -0.53959
C     2.78986  -0.67797  -0.00034
C     4.20938  -0.91117  -0.29747
N     4.81464  -0.01700  -1.12098
O     4.85457  -1.87547   0.16370
C     2.14487  -1.61095   0.75863
N     0.84236  -1.56237   1.13086
C     0.22819  -2.65936   1.86212
C    -0.00384  -0.48809   0.67412
H    -5.23948   0.19774  -0.25637
H    -4.99233  -1.49078  -0.78724
H    -4.71545  -1.04719   0.91500
H    -3.00685   0.59238  -0.71913
H    -0.34514  -1.49848  -1.25003
H    -3.41692   3.20620   1.03875
H    -2.77887   4.45413  -0.08826
H    -4.08857   3.34086  -0.62705
H     0.99663   1.38871   1.16618
H     2.65295   1.42130  -0.51996
H     1.74827   0.34940  -1.59362
H     4.32081   0.75212  -1.55481
H     5.78817  -0.16552  -1.36205
H     2.70267  -2.47332   1.12859
H    -0.33037  -3.33461   1.19561
H     1.00715  -3.23172   2.38295
H    -0.47655  -2.26163   2.60827
H    -0.69446  -0.22758   1.49050
