20
Generated by autodE on: 2022-06-19. E = -457.715324 Ha
C    -3.10550  -0.66450   0.07902
N    -1.82643   0.02494   0.12655
C    -1.79621   1.42503   0.14845
C    -0.65206   2.12601   0.10794
C     0.70913   1.47927   0.03348
C     0.57550  -0.03389  -0.02127
C     1.75852  -0.90361  -0.12217
N     2.96050  -0.27475  -0.15354
O     1.69429  -2.14851  -0.18001
C    -0.64305  -0.64267   0.02369
H    -3.75907  -0.32261   0.89631
H    -3.62562  -0.48716  -0.87771
H    -2.94033  -1.74321   0.19308
H    -2.77502   1.90503   0.20408
H    -0.70978   3.21658   0.13409
H     1.32756   1.79109   0.90044
H     1.26224   1.85963  -0.84961
H     3.05528   0.73121  -0.09805
H     3.80105  -0.83817  -0.21995
H    -0.71044  -1.73087  -0.01900
