19
Generated by autodE on: 2022-06-19. E = -605.943413 Ha
C    -3.62045   0.74405   0.13733
N    -2.24079   0.41088  -0.15020
C    -1.86575   0.03813  -1.38079
O    -2.61705  -0.05966  -2.35884
C    -0.42653  -0.28951  -1.59539
O     0.52458  -0.27033  -0.76067
N     0.34946   0.08997   0.55560
C     1.54644  -0.00280   1.22017
O     1.60657   0.28164   2.40937
O     2.60153  -0.41565   0.49785
C     3.84458  -0.51567   1.20195
H    -4.28326  -0.11034  -0.07346
H    -3.95750   1.59143  -0.48102
H    -3.70753   1.01443   1.19587
H    -1.50738   0.44913   0.56517
H    -0.12142  -0.59420  -2.60080
H     4.57771  -0.87310   0.46893
H     3.76508  -1.23034   2.03428
H     4.15128   0.46557   1.59324
