39
Generated by autodE on: 2022-06-19. E = -1063.669017 Ha. Imaginary frequency = -253.6 cm-1
C    -4.44393   0.51154   1.56927
N    -3.35235   0.01707   0.75446
C    -2.80979  -1.18900   0.97472
O    -3.21857  -1.99738   1.82026
C    -1.64767  -1.60447   0.12184
O    -1.14900  -0.94110  -0.89433
N    -1.04766   0.42758  -0.68724
C    -0.20467   0.90794  -1.65712
O     0.28911   0.30413  -2.60022
O     0.01173   2.22108  -1.42132
C     0.84449   2.89812  -2.36699
C    -0.10302   0.02628   1.65465
C     1.04222   0.94813   1.39222
C     2.01746   0.31453   0.42787
C     3.00947   1.11018  -0.31504
N     3.15081   2.40262   0.06722
O     3.70186   0.63882  -1.23735
C     1.99012  -1.02833   0.22420
N     1.12232  -1.88193   0.85798
C     1.13729  -3.30210   0.53458
C    -0.00623  -1.34826   1.49629
H    -5.25600  -0.22835   1.61823
H    -4.83145   1.43611   1.12410
H    -4.11571   0.72473   2.60102
H    -2.81223   0.64800   0.15721
H    -1.58370  -2.68508  -0.03059
H     1.04225   3.88997  -1.94400
H     1.78800   2.35772  -2.52201
H     0.32385   2.99889  -3.33181
H    -0.96126   0.41593   2.20328
H     0.66811   1.91373   1.01791
H     1.51891   1.17584   2.37082
H     2.57931   2.82709   0.78651
H     3.77735   2.99811  -0.46351
H     2.69988  -1.49718  -0.45877
H     0.69075  -3.86998   1.36204
H     0.57148  -3.51730  -0.38821
H     2.17326  -3.63744   0.39776
H    -0.55765  -2.02779   2.15025
