48
Generated by autodE on: 2022-06-04. E = -3705.696156 Ha
C    -3.46081   3.24715  -0.99308
O    -2.39590   2.53843  -0.34169
C    -2.60037   1.25203  -0.07385
O    -3.65065   0.68784  -0.30578
C    -1.42528   0.62975   0.72678
C    -2.00282   0.58656   2.15419
N    -0.20925   1.42431   0.72963
C     0.63461   1.15414  -0.43358
C     0.23306   1.97720  -1.68290
C     2.09185   1.55168  -0.15277
C     3.09699   1.21828  -1.07546
C     4.42630   1.57878  -0.84852
C     4.77243   2.30330   0.29705
C     3.77512   2.66303   1.20709
C     2.44654   2.28816   0.98355
C     0.43543  -0.41926  -0.59834
C     1.66132  -1.17010  -0.05126
C     2.11140  -0.96483   1.37527
O     2.29661  -1.90673  -0.78607
C     0.07852  -0.85019  -2.06521
C    -0.03645  -2.36511  -2.13297
C    -1.17905  -2.66203  -1.50640
C    -1.76811  -1.32390  -1.08446
O    -1.31164  -0.45769  -2.12713
C    -0.94433  -0.73874   0.11404
Br   -0.87752  -2.17506   1.49816
H    -3.09787   4.27122  -1.13532
H    -3.68658   2.78279  -1.96344
H    -4.36259   3.24355  -0.36442
H    -2.29448   1.60760   2.44525
H    -2.89035  -0.05681   2.20874
H    -1.24300   0.22927   2.85840
H    -0.40658   2.41635   0.84417
H     0.29038   3.04239  -1.41375
H    -0.77703   1.75657  -2.03351
H     0.93294   1.80702  -2.51075
H     2.84435   0.65024  -1.97294
H     5.19487   1.29351  -1.57091
H     5.81194   2.58835   0.47566
H     4.03094   3.23463   2.10270
H     1.68202   2.55355   1.71313
H     2.13744  -1.94597   1.87104
H     3.14121  -0.57918   1.35531
H     1.47142  -0.27964   1.93871
H     0.66615  -0.35901  -2.84429
H     0.70921  -3.03466  -2.55474
H    -1.60891  -3.63703  -1.28460
H    -2.84852  -1.26693  -0.95001
