18
Generated by autodE on: 2022-06-04. E = -3033.822811 Ha
C     2.74156  -1.94989   0.55412
C     2.02347  -0.68253   0.17104
O     2.58355   0.40824   0.15510
C     0.60151  -0.82560  -0.17724
C    -0.37325   0.10227  -0.26607
Br   -0.33132   1.94345  -0.00080
C    -1.69169  -0.67480  -0.48658
C    -1.98961  -1.41070   0.84056
C    -1.04195  -2.34803   0.92572
C    -0.17880  -2.16121  -0.34273
O    -1.18629  -1.75038  -1.28733
H     3.75819  -1.71835   0.89706
H     2.18623  -2.48315   1.34331
H     2.78992  -2.62745  -0.31471
H    -2.50888  -0.12995  -0.97020
H    -2.77968  -1.14103   1.53990
H    -0.84097  -3.06926   1.71683
H     0.39400  -3.02223  -0.69989
