30
Generated by autodE on: 2022-07-27. E = -671.812119 Ha
C    -4.75943  -0.71568  -0.70918
O    -3.68790  -1.09654   0.14667
C    -2.47652  -0.48808  -0.09231
O    -2.34032   0.27947  -1.05841
C    -1.51337  -0.80393   0.90359
C    -1.85757  -1.44963   2.21308
N    -0.21035  -0.38090   0.75866
C     0.56544  -0.30504  -0.32100
C     0.14564  -0.98420  -1.57022
C     1.83236   0.41728  -0.19006
C     2.93442   0.12996  -1.02699
C     4.15017   0.78965  -0.85990
C     4.30261   1.75937   0.13828
C     3.21760   2.06998   0.96326
C     1.99612   1.41781   0.79644
H    -4.96867   0.36377  -0.63845
H    -4.54152  -0.96257  -1.76006
H    -5.63776  -1.28231  -0.37343
H    -1.18292  -1.08067   3.00601
H    -2.89091  -1.22971   2.51391
H    -1.74584  -2.55011   2.19403
H     0.24848  -0.13366   1.64106
H     1.00378  -1.21967  -2.20985
H    -0.56845  -0.36808  -2.14353
H    -0.39900  -1.91117  -1.31792
H     2.84944  -0.63328  -1.80093
H     4.98992   0.54049  -1.51285
H     5.25654   2.27651   0.26346
H     3.31502   2.84087   1.73128
H     1.14964   1.71665   1.41776
