30
Generated by autodE on: 2022-06-04. E = -671.815814 Ha
C     4.86395   1.02670  -0.08110
O     3.93852  -0.05808  -0.07433
C     2.61974   0.27073  -0.07175
O     2.25357   1.46045  -0.07814
C     1.73106  -0.85140  -0.05904
C     2.18036  -2.27486  -0.01920
N     0.42465  -0.44327  -0.04284
C    -0.78008  -0.99342  -0.05318
C    -1.00392  -2.46633  -0.19165
C    -1.93826  -0.09501   0.04105
C    -1.81919   1.28117   0.35478
C    -2.93985   2.10465   0.42577
C    -4.22096   1.58690   0.19873
C    -4.36055   0.22899  -0.09955
C    -3.24094  -0.60041  -0.17586
H     4.73283   1.65606  -0.97479
H     4.74805   1.65455   0.81582
H     5.86390   0.57501  -0.08975
H     1.78694  -2.81225   0.86061
H     1.88041  -2.84547  -0.91519
H     3.27443  -2.30536   0.03723
H     0.42484   0.58471  -0.02647
H    -0.07841  -3.04276  -0.16392
H    -1.50825  -2.68797  -1.14779
H    -1.66532  -2.83527   0.60823
H    -0.84652   1.73080   0.56818
H    -2.81145   3.16136   0.67209
H    -5.09811   2.23480   0.26008
H    -5.35234  -0.19396  -0.27697
H    -3.38519  -1.65314  -0.41707
