28
Generated by autodE on: 2022-10-06. E = -1077.085332 Ha
C    -2.71611   2.24146   0.87284
N    -2.30074   1.20959  -0.05453
C    -1.09354   1.29321  -0.62801
O    -0.39570   2.30557  -0.65632
N    -0.70342   0.12671  -1.37511
O     0.63884   0.23346  -1.76475
N     1.41481  -0.43418  -0.72110
C     2.38311   0.31388  -0.09433
O     3.03562  -0.13139   0.83659
O     2.60229   1.49318  -0.68217
C     3.66772   2.27588  -0.12897
C     0.52359  -1.31906   0.02268
C     0.18224  -0.83704   1.46413
O    -0.20633  -1.73920   2.24244
O     0.27158   0.39086   1.70544
C    -0.73213  -1.27253  -0.88890
C    -1.96739  -1.98902  -0.28598
O    -3.01482  -1.35234   0.00138
O    -1.78811  -3.21638  -0.15401
H    -2.07389   2.26100   1.77131
H    -3.74991   2.04529   1.18640
H    -2.67615   3.23657   0.40555
H    -2.71924   0.25843   0.01312
H     3.45800   2.52563   0.92120
H     3.71101   3.19066  -0.73153
H     4.62282   1.73454  -0.19311
H     0.91508  -2.34198   0.06151
H    -0.49967  -1.86393  -1.78465
