18
Generated by autodE on: 2022-10-06. E = -621.917265 Ha
C     3.13758   0.45477   0.61134
N     2.19634  -0.65155   0.67487
C     1.13695  -0.81309  -0.12055
O     0.26265  -1.67226  -0.00129
N     1.19891  -0.00241  -1.30199
O     0.08682   0.34526  -1.85109
N    -1.12119   0.38408  -1.34584
C    -1.21991   0.50221   0.05107
O    -0.38969   1.02960   0.76906
O    -2.42172   0.10006   0.42627
C    -2.75027   0.27507   1.81683
H     2.71312   1.36687   1.06022
H     3.40568   0.67205  -0.43103
H     4.04571   0.17554   1.15925
H     2.21485  -1.25974   1.49113
H    -3.74856  -0.15772   1.94331
H    -2.01862  -0.25100   2.44597
H    -2.76052   1.34436   2.07142
