10
Generated by autodE on: 2022-10-06. E = -455.046601 Ha
O     2.23146  -0.46641  -0.41507
C     1.51587   0.43217   0.09818
O     1.67552   0.96951   1.22454
C     0.41211   1.00096  -0.77483
C    -0.87320   0.61392  -0.83518
C    -1.50443  -0.50005  -0.03312
O    -0.77918  -1.15763   0.76542
O    -2.73847  -0.69339  -0.23006
H     0.73549   1.82993  -1.41988
H    -1.55721   1.13182  -1.51750
