28
Generated by autodE on: 2022-10-06. E = -1076.956696 Ha. Imaginary frequency = -260.9 cm-1
C    -2.17657   2.88255  -0.45455
N    -1.78861   1.50670  -0.67649
C    -0.78210   1.21556  -1.49219
O    -0.16721   2.00692  -2.21238
N    -0.59694  -0.19299  -1.71236
O     0.61246  -0.58963  -2.05113
N     1.73356  -0.47194  -1.32792
C     1.91644   0.53968  -0.37901
O     1.16147   1.38579   0.06384
O     3.19561   0.41764   0.02144
C     3.61667   1.29074   1.07669
C     0.29717  -1.66141   0.55636
C     0.46529  -0.89815   1.84764
O     1.62270  -0.92625   2.34969
O    -0.53940  -0.30303   2.31579
C    -0.89549  -1.76431  -0.14000
C    -2.27673  -1.65040   0.51672
O    -2.96395  -0.59956   0.47174
O    -2.62339  -2.74020   1.02192
H    -1.36224   3.46314   0.01156
H    -3.04470   2.90097   0.21699
H    -2.45119   3.38499  -1.39629
H    -2.23843   0.72250  -0.14909
H     3.02484   1.10566   1.98290
H     3.51641   2.34268   0.77130
H     4.67132   1.05143   1.25821
H     1.14947  -2.26871   0.24759
H    -0.90222  -2.45243  -0.98885
