45
Generated by autodE on: 2022-06-01. E = -1303.478199 Ha
C     3.59669   3.33077   0.41649
O     2.41702   2.51142   0.38323
C     2.47925   1.34994   1.02502
O     3.45803   0.95794   1.62754
C     1.21374   0.51425   0.91583
N     0.00099   1.24523   0.60617
C    -0.42392   2.20674   1.61910
C    -0.95516   0.30188   0.05143
C    -1.60945  -0.55112   1.18174
O    -1.29053  -0.44000   2.34603
O    -2.54960  -1.39035   0.76516
C    -3.11455  -2.26863   1.75218
C    -2.03121   1.05229  -0.75946
O    -2.05581   2.25478  -0.89887
O    -2.90385   0.22858  -1.32755
C    -3.90471   0.82353  -2.16897
C    -0.04687  -0.56129  -0.93227
C    -0.02782   0.00741  -2.34731
C    -0.29499  -2.10383  -0.86204
C     0.71862  -2.79701  -1.76013
C     1.88811  -2.73174  -1.11258
C     1.58431  -1.98007   0.17558
O     0.23620  -2.38560   0.45170
C     1.35150  -0.49665  -0.23207
F     2.35872  -0.07625  -1.09969
H     4.43680   2.80703  -0.06162
H     3.34765   4.24036  -0.14162
H     3.86148   3.57936   1.45400
H     1.14338  -0.03238   1.87404
H    -0.21850   1.85371   2.64379
H     0.10028   3.16378   1.47310
H    -1.49933   2.40082   1.53816
H    -3.85795  -2.87532   1.22313
H    -2.32865  -2.90921   2.17711
H    -3.59270  -1.68851   2.55356
H    -4.52420  -0.00538  -2.52901
H    -4.51314   1.53555  -1.59398
H    -3.42994   1.34217  -3.01406
H     0.13750   1.09302  -2.33306
H    -0.97618  -0.19968  -2.86094
H     0.78247  -0.44784  -2.92924
H    -1.33826  -2.41303  -0.94924
H     0.50775  -3.18946  -2.75437
H     2.87613  -3.05068  -1.44212
H     2.24186  -2.12480   1.03901
