16
Generated by autodE on: 2022-06-01. E = -446.128259 Ha
C     2.45832   0.28713  -0.36761
C     1.04165   0.10421   0.03814
C     0.20584  -0.93089  -0.05571
F     0.42162  -2.15569  -0.54510
C    -1.19190  -0.44911   0.36669
C    -1.67819   0.53980  -0.72355
C    -0.86598   1.59459  -0.60844
C     0.10009   1.22985   0.54535
O    -0.79829   0.47808   1.39496
H     3.07566   0.64836   0.47243
H     2.89162  -0.65272  -0.74014
H     2.53633   1.04447  -1.16807
H    -1.89563  -1.21054   0.72099
H    -2.47774   0.34447  -1.43724
H    -0.81837   2.50577  -1.20390
H     0.58063   2.05601   1.08181
