29
Generated by autodE on: 2022-07-27. E = -857.256558 Ha
C     4.19067   2.34746   1.13589
O     2.90010   1.80489   0.81012
C     2.88396   0.58821   0.27574
O     3.88473  -0.07239   0.05742
C     1.55918   0.02957  -0.06635
N     0.37812   0.59178  -0.01217
C     0.21611   2.02147   0.35016
C    -0.78505  -0.18610  -0.16514
C    -0.77720  -1.50018   0.46274
O     0.15830  -1.96390   1.11286
O    -1.92095  -2.19338   0.30483
C    -1.98153  -3.47157   0.94315
C    -1.83399   0.41688  -0.97244
O    -1.65082   1.39333  -1.69716
O    -3.04265  -0.16922  -0.88289
C    -4.06626   0.35995  -1.72981
H     4.69495   1.71027   1.87619
H     3.99884   3.34203   1.55335
H     4.81049   2.42290   0.23129
H     1.60937  -0.99546  -0.42298
H     0.77601   2.65118  -0.34865
H    -0.84338   2.27366   0.32814
H     0.60820   2.15740   1.36375
H    -2.96440  -3.88647   0.68860
H    -1.18521  -4.13439   0.57300
H    -1.88817  -3.37203   2.03485
H    -4.95589  -0.25433  -1.54486
H    -4.27740   1.41096  -1.48248
H    -3.77598   0.29178  -2.78892
