45
Generated by autodE on: 2022-06-01. E = -1303.385984 Ha. Imaginary frequency = -258.2 cm-1
C     3.83374   2.89651   1.17982
O     2.50311   2.41362   0.94361
C     2.19013   1.23312   1.47620
O     2.97622   0.57127   2.13785
C     0.86905   0.68217   1.11841
N    -0.22832   1.35735   0.71926
C    -0.17471   2.81199   0.47403
C    -1.33942   0.60918   0.35705
C    -1.68199  -0.55970   1.19515
O    -1.30805  -0.71059   2.35007
O    -2.43996  -1.47442   0.57674
C    -2.80659  -2.62400   1.34808
C    -2.26969   1.17371  -0.62582
O    -1.99493   2.06577  -1.41827
O    -3.48893   0.60707  -0.60696
C    -4.40686   1.03853  -1.61644
C     0.21080  -0.83118  -1.31250
C    -0.38078  -0.31937  -2.57579
C     0.12372  -2.31153  -0.90617
C     1.16523  -3.04165  -1.78785
C     2.35418  -2.65896  -1.30950
C     2.02580  -1.70668  -0.13795
O     0.81750  -2.29903   0.36094
C     1.40998  -0.43503  -0.75138
F     2.21423   0.48893  -1.33004
H     4.57007   2.20190   0.75043
H     3.89187   3.87018   0.68042
H     4.01882   3.00778   2.25758
H     0.69899  -0.28539   1.57290
H     0.38683   3.27528   1.28911
H     0.31484   3.03573  -0.48110
H    -1.19059   3.20998   0.47054
H    -3.42265  -3.24444   0.68683
H    -1.91019  -3.17786   1.66260
H    -3.38325  -2.32970   2.23696
H    -5.31308   0.43781  -1.47421
H    -4.64045   2.10723  -1.50101
H    -3.99255   0.86565  -2.62051
H    -0.26356   0.76688  -2.67339
H    -1.44859  -0.56945  -2.65964
H     0.13903  -0.79531  -3.43041
H    -0.87307  -2.75375  -0.82674
H     0.92990  -3.67996  -2.63871
H     3.35760  -2.90551  -1.65436
H     2.77958  -1.56975   0.64426
