32
Generated by autodE on: 2022-06-19. E = -893.552439 Ha
C    -1.40564  -2.57855   4.07418
N    -1.58886  -2.08233   2.72623
C    -0.66115  -1.32890   2.12085
O     0.41906  -1.01378   2.66582
C    -0.93230  -0.84897   0.74383
N     0.12131  -0.14119   0.27457
C     0.53866   0.37172  -0.88027
C    -0.08870   0.04867  -2.11499
N    -0.47987  -0.21298  -3.18071
C     1.74512   1.21104  -0.90819
C     2.42506   1.43936  -2.12204
C     3.58062   2.21800  -2.15018
C     4.08136   2.78374  -0.97312
C     3.40785   2.57243   0.23478
C     2.24574   1.80383   0.27006
C    -2.22771  -0.95924   0.09922
O    -3.11639  -1.73129   0.45416
O    -2.39051  -0.08281  -0.89699
C    -3.59600  -0.16483  -1.66533
H    -1.31501  -1.75383   4.79950
H    -2.27344  -3.19164   4.34573
H    -0.49702  -3.19670   4.15255
H    -2.43473  -2.28985   2.19732
H     0.79338  -0.05050   1.06360
H     2.05204   0.99496  -3.04626
H     4.09596   2.38003  -3.09943
H     4.98645   3.39445  -0.99770
H     3.77996   3.02401   1.15696
H     1.71863   1.69149   1.21970
H    -3.49426   0.57887  -2.46383
H    -4.46880   0.06671  -1.03802
H    -3.70992  -1.16983  -2.09637
