32
Generated by autodE on: 2022-07-27. E = -893.552030 Ha
C    -4.25394   2.39297  -0.42028
N    -3.45315   1.21550  -0.15454
C    -2.11388   1.26252  -0.17197
O    -1.48796   2.32123  -0.39861
C    -1.33239   0.02483   0.08389
N    -0.00686   0.29516   0.02619
C     1.12219  -0.34840   0.31120
C     1.11631  -1.53931   1.08680
N     1.22009  -2.46112   1.79190
C     2.41245   0.24055  -0.07097
C     3.59857  -0.15571   0.58022
C     4.81997   0.41980   0.23555
C     4.88445   1.39784  -0.76272
C     3.71529   1.78782  -1.42436
C     2.49081   1.20977  -1.09305
C    -1.81041  -1.34671   0.08963
O    -1.10644  -2.32484  -0.12286
O    -3.13618  -1.45151   0.31580
C    -3.70632  -2.76394   0.21815
H    -4.09882   2.76607  -1.44572
H    -5.31244   2.13414  -0.29662
H    -4.00440   3.20903   0.27584
H    -3.89663   0.31922   0.02337
H     0.09860   1.28323  -0.27924
H     3.55971  -0.90849   1.36955
H     5.72786   0.10543   0.75498
H     5.84309   1.84713  -1.03102
H     3.75777   2.53640  -2.21859
H     1.60034   1.49908  -1.65496
H    -4.77508  -2.64244   0.42826
H    -3.56136  -3.17428  -0.79169
H    -3.24724  -3.43707   0.95605
