44
Generated by autodE on: 2022-06-19. E = -1050.837589 Ha. Imaginary frequency = -410.4 cm-1
C    -4.18370   1.88801  -1.39910
N    -3.34548   0.76627  -1.02620
C    -2.00829   0.86549  -1.02782
O    -1.41753   1.86289  -1.48462
C    -1.19454  -0.24982  -0.44311
C    -1.73099  -1.61477  -0.28612
O    -1.14281  -2.63149  -0.60655
O    -2.96176  -1.63311   0.25976
C    -3.58243  -2.91807   0.41248
N     0.12582  -0.10111  -0.79441
C     1.18158  -0.45836  -0.00867
C     1.18312  -1.72751   0.65842
N     1.26848  -2.71126   1.27528
C     2.51098   0.13531  -0.27421
C     3.61689  -0.24799   0.50960
C     4.85785   0.36362   0.33889
C     5.02523   1.36718  -0.62090
C     3.93642   1.74960  -1.40965
C     2.69130   1.14250  -1.24110
C     0.39091   0.57680   1.86361
C     0.88476   1.97960   1.66224
C    -0.97592   0.26868   1.79147
C    -2.04406   1.32587   1.89640
H    -4.09225   2.71810  -0.67810
H    -5.22886   1.55605  -1.42387
H    -3.90736   2.26837  -2.39308
H    -3.75834  -0.03509  -0.55709
H    -2.98052  -3.55378   1.07700
H    -3.69611  -3.41028  -0.56387
H    -4.56473  -2.72489   0.85819
H     0.23767   0.81174  -1.24894
H     3.50093  -1.02375   1.26820
H     5.70001   0.05326   0.96148
H     5.99800   1.84514  -0.75565
H     4.05391   2.52644  -2.16846
H     1.87070   1.46310  -1.88456
H     1.02616  -0.09272   2.44615
H     1.98198   2.03008   1.67184
H     0.51094   2.64885   2.45827
H     0.52839   2.39414   0.70439
H    -1.26228  -0.71660   2.17204
H    -2.10599   1.67933   2.94210
H    -1.83411   2.20471   1.27108
H    -3.03308   0.93405   1.62590
