31
Generated by autodE on: 2022-06-04. E = -767.948246 Ha
C    -3.17615  -0.68373  -2.01114
C    -2.21893   0.24914  -1.32927
O    -2.38456   1.46447  -1.35724
C    -1.04915  -0.31869  -0.59123
C    -0.90478  -1.81614  -0.49598
C    -0.96173  -2.43448   0.87233
O    -0.83437  -2.49186  -1.51142
C    -0.14751   0.52980  -0.03324
C    -0.33093   2.03638  -0.07381
C     0.25450   2.74961  -1.25737
O    -0.76437   2.61045   0.91225
C     1.10075   0.08748   0.62595
C     1.50374   0.65317   1.85097
C     2.66591   0.20910   2.48109
C     3.45456  -0.78372   1.88931
C     3.07645  -1.33070   0.65957
C     1.90818  -0.90035   0.02981
H    -3.56114  -1.42650  -1.29390
H    -4.00576  -0.10923  -2.44131
H    -2.65171  -1.24520  -2.79862
H    -0.44043  -1.83469   1.62943
H    -0.57101  -3.46043   0.84388
H    -2.02799  -2.46750   1.16060
H    -0.12115   3.78098  -1.30057
H     1.34940   2.77406  -1.11581
H     0.05098   2.21708  -2.19593
H     0.88772   1.42285   2.31694
H     2.95821   0.64151   3.44058
H     4.36713  -1.12483   2.38335
H     3.69640  -2.09369   0.18368
H     1.63313  -1.31275  -0.94164
