19
Generated by autodE on: 2022-06-04. E = -473.742079 Ha
C    -3.82865   0.34400  -0.03299
N    -2.60625  -0.43182  -0.08881
C    -1.39895   0.15774   0.00444
O    -1.28020   1.39361   0.14372
C    -0.19747  -0.69652  -0.06167
C    -0.12654  -2.17468  -0.19486
N     0.92253   0.00683   0.01277
C     2.20807  -0.39802  -0.01810
C     3.23810   0.54200   0.08500
N     4.11729   1.31407   0.16946
H    -3.88923   1.06233  -0.86674
H    -3.89569   0.91434   0.90699
H    -4.68451  -0.33895  -0.09324
H    -2.67085  -1.43344  -0.22408
H    -1.11355  -2.65148  -0.20151
H     0.39709  -2.45924  -1.12581
H     0.45300  -2.60951   0.63975
H     0.72948   1.01599   0.11052
H     2.43418  -1.45731  -0.12542
