19
Generated by autodE on: 2022-07-27. E = -473.733854 Ha
C     0.05546   3.59667  -0.86067
N     0.36783   2.22387  -1.19813
C     0.04822   1.20805  -0.35938
O    -0.52527   1.43176   0.72589
C     0.41333  -0.14200  -0.80598
C     1.08771  -0.39310  -2.12000
N     0.14058  -1.19364  -0.03372
C    -0.44305  -1.33262   1.17964
C    -0.58040  -2.60962   1.73198
N    -0.71017  -3.66820   2.22180
H     0.55878   3.90840   0.06914
H    -1.02790   3.73925  -0.71699
H     0.39077   4.24741  -1.67739
H     0.83872   2.03377  -2.07442
H     2.04993   0.14295  -2.18773
H     1.29148  -1.46435  -2.26327
H     0.46455  -0.05242  -2.96490
H     0.43759  -2.08077  -0.45099
H    -0.78879  -0.44403   1.69679
