47
Generated by autodE on: 2022-06-18. E = -795.399401 Ha
C    -3.30929  -2.23446   1.66921
C    -2.11630  -1.62375   1.58432
C    -1.35463  -1.22401   2.82148
C    -1.51996  -1.30529   0.22943
C    -0.64799  -0.04542   0.15368
C    -1.38104   1.24659   0.32837
C    -0.96332   2.33534   1.00134
C    -1.80133   3.58513   1.05622
C     0.35215   2.42968   1.72729
C     0.00738  -0.19416  -1.24928
C     1.30555   0.58019  -1.31343
C     1.30595   1.91096  -1.75535
C     2.47170   2.68239  -1.70751
C     3.65931   2.12827  -1.21980
C     3.67163   0.79702  -0.78680
C     2.50387   0.03143  -0.83334
N     0.13185  -1.64479  -1.47278
C    -0.59615  -2.39170  -0.41203
C    -1.41062  -3.52447  -1.02973
C     0.41236  -2.97852   0.58382
H    -3.75197  -2.49260   2.63645
H    -3.88361  -2.48992   0.77346
H    -1.27369  -0.12595   2.88719
H    -0.32464  -1.61069   2.81598
H    -1.85628  -1.58486   3.73134
H    -2.35387  -1.17076  -0.47980
H     0.15365  -0.12560   0.89912
H    -2.34823   1.30286  -0.18790
H    -2.74853   3.47303   0.50771
H    -1.25224   4.44316   0.62881
H    -2.03415   3.85836   2.10080
H     0.19517   2.73420   2.77678
H     0.92281   1.49224   1.71920
H     0.98459   3.20973   1.26796
H    -0.68464   0.24662  -1.98697
H     0.37862   2.34759  -2.13497
H     2.45269   3.71850  -2.05494
H     4.57218   2.72778  -1.18268
H     4.59711   0.35404  -0.40968
H     2.51085  -1.00720  -0.49765
H    -0.28131  -1.86923  -2.37411
H    -1.97000  -4.06881  -0.25416
H    -2.13355  -3.13325  -1.76359
H    -0.75215  -4.24527  -1.54103
H    -0.09232  -3.53692   1.38716
H     1.08502  -3.67201   0.05587
H     1.03417  -2.19609   1.04234
