24
Generated by autodE on: 2022-06-18. E = -443.816188 Ha
C    -3.83496   0.86677   0.68405
C    -2.87767   0.03568  -0.10062
C    -3.34035  -0.95029  -1.11223
N    -1.57702   0.17061   0.10276
C    -0.52266  -0.47151  -0.48225
C     0.83309  -0.18735  -0.14201
C     1.23797   0.78084   0.82433
C     2.58346   1.00679   1.10694
C     3.59541   0.29180   0.45127
C     3.22044  -0.66602  -0.50435
C     1.88125  -0.90201  -0.79553
H    -4.52586   0.23509   1.27227
H    -4.46843   1.48281   0.01972
H    -3.31197   1.54081   1.37996
H    -2.92167  -0.72748  -2.11311
H    -3.00324  -1.97507  -0.86117
H    -4.43587  -0.95353  -1.18584
H    -1.32722   0.86522   0.80947
H    -0.75799  -1.22251  -1.23281
H     0.48957   1.36844   1.36411
H     2.84745   1.75942   1.85572
H     4.64783   0.47546   0.67796
H     3.98932  -1.23868  -1.03141
H     1.61415  -1.65371  -1.54398
