36
Generated by autodE on: 2022-06-17. E = -804.626120 Ha
C     4.39891   0.72259   0.49841
C     4.15772  -0.61896  -0.13478
C     5.38101  -1.26834  -0.71899
C     2.95081  -1.23098  -0.19773
C     1.68862  -0.72331   0.31574
C     0.52510  -1.39213   0.20682
C    -0.84317  -0.96330   0.67631
C    -1.47034  -2.09662   1.50041
C    -0.90449   0.38356   1.46390
C    -1.80340   1.22300   0.54932
C    -2.33888   2.46565   1.09868
N    -2.75690   3.44551   1.55341
N    -2.77645   0.27210   0.07663
C    -1.77577  -0.61011  -0.57094
C    -2.31937  -1.74341  -1.39925
C    -0.96015   0.41471  -1.36711
O    -0.37557   0.31636  -2.41477
O    -0.98618   1.56690  -0.63824
H     5.15270   0.63577   1.30070
H     4.82059   1.42423  -0.24278
H     3.49660   1.17893   0.92541
H     5.15700  -2.24502  -1.17252
H     5.83672  -0.62139  -1.48993
H     6.15553  -1.41192   0.05566
H     2.90262  -2.21073  -0.68770
H     1.70545   0.25327   0.80542
H     0.53483  -2.36813  -0.29358
H    -2.51528  -1.87064   1.75490
H    -1.43702  -3.05133   0.95567
H    -0.90479  -2.22084   2.43649
H     0.05960   0.88059   1.60684
H    -1.38488   0.25619   2.44149
H    -3.38900   0.70036  -0.62429
H    -1.48976  -2.32420  -1.82708
H    -2.94408  -2.41196  -0.79306
H    -2.92600  -1.35258  -2.22995
