23
Generated by autodE on: 2022-06-17. E = -351.521384 Ha
C     3.64279  -1.00662   0.13112
C     2.56740  -0.25127  -0.18315
C     2.71130   1.02963  -0.96459
C     1.23221  -0.67129   0.23761
C     0.07791  -0.00330  -0.01191
C    -1.22251  -0.46416   0.42995
C    -2.41809   0.14485   0.22638
C    -2.59680   1.44054  -0.51288
C    -3.68874  -0.46196   0.75096
H     3.53493  -1.93603   0.69879
H     4.65291  -0.71573  -0.17042
H     3.76303   1.22677  -1.21572
H     2.32460   1.88950  -0.39271
H     2.13253   0.99046  -1.90240
H     1.18143  -1.60962   0.80302
H     0.12141   0.93299  -0.57473
H    -1.22516  -1.40818   0.98831
H    -3.07419   2.19057   0.14236
H    -1.65934   1.86664  -0.89279
H    -3.28258   1.30133  -1.36720
H    -4.19945   0.23430   1.44038
H    -4.40081  -0.65220  -0.07218
H    -3.50953  -1.40836   1.28196
