13
Generated by autodE on: 2022-06-17. E = -453.064697 Ha
C    -2.66867  -0.92115  -0.04251
C    -1.29633  -0.36169   0.00394
N    -0.15932  -1.04984  -0.26792
C     0.91818  -0.27086  -0.14305
C     2.25864  -0.61791  -0.33946
N     3.37875  -0.90542  -0.50323
O     0.52095   0.95945   0.21720
C    -0.89937   0.96644   0.32821
O    -1.49178   1.98543   0.64624
H    -2.93410  -1.26832  -1.05483
H    -2.78537  -1.77230   0.64817
H    -3.37971  -0.13703   0.25064
H    -0.11984  -2.03555  -0.53517
