31
Generated by autodE on: 2022-10-24. E = -913.372817 Ha
C     4.09160  -1.79735  -1.15684
N     2.87525  -1.12357  -0.74990
C     2.91334  -0.00784   0.01113
O     3.97480   0.49825   0.41421
C     1.63081   0.60762   0.36227
C     1.59937   1.75021   1.17529
N     1.59360   2.68202   1.88261
O     0.52873  -0.05865  -0.00756
C    -0.75244   0.10805   0.07214
C    -1.33582   1.42874   0.47287
O    -2.28604   1.54691   1.21591
O    -0.70543   2.42760  -0.13125
C    -1.11158   3.76437   0.21672
C    -1.57203  -1.03140  -0.27415
C    -2.96717  -0.89752  -0.46551
C    -3.73300  -2.00408  -0.82203
C    -3.13194  -3.25570  -0.99435
C    -1.75089  -3.39964  -0.80401
C    -0.97509  -2.30426  -0.44428
H     4.71216  -2.05259  -0.28429
H     3.82430  -2.72276  -1.68146
H     4.70008  -1.17254  -1.83192
H     1.98527  -1.44279  -1.11664
H    -0.45767   4.43270  -0.35327
H    -0.98140   3.92639   1.29525
H    -2.16270   3.92082  -0.06230
H    -3.44860   0.07175  -0.34177
H    -4.80844  -1.88782  -0.97106
H    -3.73845  -4.12040  -1.27237
H    -1.27998  -4.37695  -0.92877
H     0.09577  -2.42423  -0.27747
