46
Generated by autodE on: 2022-10-21. E = -1147.175046 Ha
C    -3.85846  -3.66349   0.59473
O    -2.55800  -3.13043   0.30114
C    -2.30111  -1.89190   0.73048
O    -3.12148  -1.20955   1.31221
C    -0.86629  -1.50603   0.42942
C     0.06206  -2.15048   1.50434
C     1.55152  -2.21062   1.14430
C     2.31892  -0.87203   1.11715
C     2.63944  -0.25756  -0.25236
C     1.45386   0.04311  -1.18968
O     1.75317   1.04161  -2.14954
C     2.95283   0.88620  -2.89349
O     1.12303  -1.16821  -1.83731
C     0.13452  -1.08369  -2.85749
C     0.30601   0.61846  -0.39213
C    -0.65672  -0.02589   0.30686
C    -1.44745   1.05923   1.02328
C    -1.48753   0.88091   2.47572
N    -1.48492   0.75946   3.62913
N    -0.81776   2.34170   0.69062
C     0.15997   2.05289  -0.10104
C     1.10079   3.12773  -0.59778
C     0.59643   4.02859  -1.67807
O     2.19243   3.23343  -0.06602
H    -3.86769  -4.67953   0.18398
H    -4.63932  -3.05354   0.11832
H    -4.02603  -3.69004   1.68106
H    -0.61067  -1.97986  -0.52432
H    -0.07571  -1.61909   2.45943
H    -0.29543  -3.18005   1.65753
H     2.01612  -2.85593   1.90673
H     1.67518  -2.73861   0.18555
H     1.78951  -0.13100   1.73844
H     3.29300  -1.02089   1.60897
H     3.15501   0.69828  -0.07892
H     3.32974  -0.91290  -0.80559
H     3.06185  -0.14205  -3.27350
H     2.88480   1.57509  -3.74672
H     3.84080   1.14877  -2.29559
H    -0.10134  -2.11555  -3.15053
H     0.50729  -0.53461  -3.73613
H    -0.78659  -0.59366  -2.50093
H    -2.49060   1.06787   0.66495
H     0.24896   3.41878  -2.52661
H     1.38149   4.72720  -1.99617
H    -0.27769   4.58472  -1.30021
