12
Generated by autodE on: 2022-10-21. E = -377.743268 Ha
C    -2.98735   0.21867   0.79208
C    -1.94184   0.13127  -0.28044
O    -2.08911   0.48630  -1.44125
C    -0.69212  -0.49468   0.12173
N     0.41971  -0.33091   0.51644
C     1.63879  -0.22772   0.95569
C     2.71493  -0.04522   0.05941
N     3.62357   0.10513  -0.65809
H    -3.80449   0.86500   0.44419
H    -3.37856  -0.79190   0.99684
H    -2.55718   0.60587   1.72890
H     1.81932  -0.28369   2.03257
