34
Generated by autodE on: 2022-10-21. E = -769.286414 Ha
C     4.85544   0.17842  -1.35965
O     3.93547  -0.25244  -0.34450
C     2.68961   0.22028  -0.42081
O     2.31804   1.00268  -1.27088
C     1.80891  -0.39734   0.65553
C     0.57481   0.35047   0.84174
C    -0.59421   0.66075   0.76358
C    -1.99037   0.45106   0.31883
O    -2.60972   1.61248  -0.17928
C    -2.71185   2.68522   0.74613
O    -2.67968  -0.05470   1.44890
C    -4.02029  -0.47747   1.22763
C    -1.91649  -0.54589  -0.85774
C    -1.15935  -1.85710  -0.57111
C     0.35492  -1.92868  -0.91907
C     1.38202  -1.84169   0.22805
H     4.49283  -0.11547  -2.35521
H     5.80527  -0.32168  -1.13836
H     4.98258   1.26990  -1.32337
H     2.40963  -0.46737   1.57451
H    -1.71957   2.95937   1.14712
H    -3.37611   2.43682   1.58964
H    -3.12733   3.54228   0.19910
H    -4.06412  -1.46161   0.73185
H    -4.49022  -0.56090   2.21755
H    -4.58359   0.25424   0.62724
H    -2.95126  -0.76438  -1.16140
H    -1.45190  -0.00783  -1.69760
H    -1.31674  -2.14468   0.48209
H    -1.66057  -2.63734  -1.16383
H     0.52763  -2.90485  -1.39809
H     0.59491  -1.17844  -1.69185
H     0.98502  -2.34470   1.12332
H     2.30123  -2.37593  -0.05685
