58
Generated by autodE on: 2022-06-08. E = -1574.024683 Ha
C    -2.48480   2.08678  -2.81822
N    -1.81675   1.97645  -1.53500
C    -0.62027   1.39141  -1.42526
O     0.07239   1.07812  -2.39298
C    -0.09720   1.09594   0.01994
C    -0.37311   2.34482   0.87625
C     0.77772   3.25659   1.16769
O    -1.51704   2.59410   1.21630
O     1.30933   0.93518  -0.06424
C     1.69186  -0.40926  -0.20840
C     1.91148  -0.73705  -1.71511
O     1.40622  -1.61490  -2.37025
O     2.82953   0.10931  -2.18031
C     3.13093   0.02519  -3.58095
C     3.07155  -0.63668   0.42509
O     3.69379  -1.65696   0.21660
O     3.47022   0.35414   1.20005
C     4.73983   0.18974   1.86020
C     0.59137  -1.23412   0.53866
F     0.37218  -2.43488  -0.09916
C     0.91502  -1.51515   2.02504
C    -0.15485  -2.48239   2.56746
C    -1.41921  -1.58567   2.65154
C    -0.91896  -0.21171   2.14901
C     0.51486  -0.19942   2.70579
C    -0.68481  -0.27349   0.60269
C    -1.91491  -0.71166  -0.18125
C    -1.82444  -1.36132  -1.42247
C    -2.97382  -1.64500  -2.16678
C    -4.23503  -1.27707  -1.69400
C    -4.33717  -0.62077  -0.46404
C    -3.19045  -0.34467   0.28208
H    -3.46550   2.55288  -2.66631
H    -2.62567   1.09431  -3.27532
H    -1.89912   2.70631  -3.51386
H    -2.35342   2.12886  -0.68579
H     1.58067   2.72791   1.70005
H     0.42423   4.11652   1.75005
H     1.21025   3.59639   0.21197
H     2.22830   0.24101  -4.17021
H     3.50872  -0.97550  -3.83413
H     3.89985   0.78260  -3.77007
H     5.53657   0.05169   1.11644
H     4.70411  -0.67852   2.53293
H     4.90048   1.11102   2.43030
H     1.93923  -1.87423   2.17839
H     0.15601  -2.84039   3.55896
H    -0.28808  -3.35861   1.92175
H    -2.25634  -1.97886   2.06323
H    -1.76760  -1.48050   3.68913
H    -1.55805   0.61876   2.45559
H     1.12328   0.66207   2.41234
H     0.53628  -0.28023   3.80189
H    -0.85372  -1.63336  -1.82805
H    -2.87550  -2.15132  -3.13003
H    -5.13093  -1.49453  -2.28026
H    -5.31468  -0.31731  -0.08178
H    -3.29451   0.18725   1.22734
