31
Generated by autodE on: 2022-07-27. E = -970.627810 Ha
C    -3.50736   0.10227  -2.51053
N    -2.66429   0.75366  -1.52891
C    -1.67614   0.09111  -0.91150
O    -1.36257  -1.08169  -1.17221
C    -0.99716   0.81046   0.19554
O     0.08792   0.30495   0.73288
C     0.98135  -0.55935   0.34985
C     1.18425  -0.95950  -1.06687
O     1.56092  -2.05538  -1.42097
O     1.00985   0.08686  -1.87542
C     1.05888  -0.17187  -3.28737
C     1.94632  -0.95990   1.38739
O     2.89684  -1.68983   1.17015
O     1.65570  -0.43711   2.58159
C     2.56059  -0.74877   3.65141
C    -1.56649   1.90915   0.98507
C    -0.86598   2.28559   2.26241
O    -2.56161   2.51746   0.58279
H    -4.17507  -0.64389  -2.04782
H    -4.11951   0.86122  -3.01251
H    -2.88944  -0.41388  -3.25950
H    -2.94337   1.64213  -1.10811
H     0.31297  -0.93372  -3.55415
H     2.06160  -0.51388  -3.57992
H     0.82299   0.78039  -3.77525
H     3.57301  -0.39070   3.41499
H     2.58734  -1.83407   3.82597
H     2.16993  -0.23093   4.53448
H     0.13287   2.69286   2.03739
H    -0.71639   1.40528   2.90520
H    -1.46228   3.04438   2.78401
