58
Generated by autodE on: 2022-06-08. E = -1573.939064 Ha. Imaginary frequency = -177.9 cm-1
C    -2.32483   1.51940  -3.23361
N    -1.51208   1.82683  -2.07816
C    -0.41352   1.13321  -1.73843
O     0.04053   0.19288  -2.41131
C     0.24212   1.54167  -0.47055
C    -0.25799   2.56383   0.45394
C     0.60473   3.00511   1.60671
O    -1.39138   3.04367   0.31367
O     1.45155   1.10267  -0.16071
C     2.09824  -0.01148  -0.44297
C     2.30968  -0.49074  -1.85411
O     2.34963  -1.64776  -2.20289
O     2.67166   0.54556  -2.62159
C     2.88747   0.25894  -4.01039
C     3.23967  -0.30445   0.45585
O     3.89957  -1.32437   0.35813
O     3.45097   0.63741   1.37384
C     4.45959   0.36179   2.35842
C     0.33665  -1.53085   0.56416
F     0.43045  -2.48370  -0.37722
C     0.93359  -1.80767   1.92466
C    -0.13589  -2.68325   2.65892
C    -1.30472  -1.68319   2.89361
C    -0.78415  -0.37357   2.21224
C     0.70259  -0.44424   2.59474
C    -0.78482  -0.71438   0.72064
C    -2.01808  -0.71648  -0.06551
C    -2.19450  -1.52736  -1.20938
C    -3.41001  -1.54216  -1.89106
C    -4.47595  -0.74466  -1.46265
C    -4.31195   0.07856  -0.34375
C    -3.10059   0.09323   0.34529
H    -3.36529   1.33211  -2.93045
H    -1.93395   0.62469  -3.73070
H    -2.31808   2.35614  -3.95145
H    -1.84575   2.49539  -1.38059
H     1.67457   2.84006   1.44353
H     0.29974   2.44336   2.50465
H     0.40171   4.06798   1.79698
H     1.96631  -0.13896  -4.45981
H     3.70283  -0.46807  -4.13445
H     3.15558   1.21333  -4.47804
H     5.43499   0.20835   1.87585
H     4.18884  -0.53246   2.93792
H     4.48965   1.24250   3.00938
H     1.94655  -2.22461   1.91491
H     0.28073  -3.05412   3.60651
H    -0.42677  -3.55332   2.05338
H    -2.25670  -2.02106   2.46227
H    -1.46465  -1.49681   3.96576
H    -1.32371   0.53553   2.49862
H     1.30256   0.36742   2.18215
H     0.85034  -0.48331   3.68330
H    -1.37617  -2.14839  -1.56384
H    -3.52443  -2.18168  -2.76939
H    -5.42595  -0.75901  -2.00168
H    -5.13309   0.71485  -0.00563
H    -2.98778   0.74545   1.21080
