28
Generated by autodE on: 2022-10-26. E = -616.395488 Ha
C    -0.55649   2.81691  -0.32988
C    -1.06177   1.43140  -0.68969
O    -2.14219   1.34870  -1.34256
C    -0.33257   0.29302  -0.28522
O    -0.88829  -0.95792  -0.63733
C    -2.09302  -1.32517  -0.38447
C    -2.51452  -2.58503  -1.03154
C    -2.97306  -0.57518   0.51502
C     1.01615   0.13269   0.24352
C     2.03315   1.10793   0.10620
C     3.30593   0.90133   0.63816
C     3.62250  -0.28888   1.30257
C     2.63860  -1.27548   1.42548
C     1.35875  -1.06928   0.91124
H    -1.43691   3.46493  -0.20761
H     0.04343   2.84192   0.58939
H     0.05004   3.23652  -1.14972
H    -3.33653  -2.36136  -1.73512
H    -1.68374  -3.05086  -1.57584
H    -2.92727  -3.27357  -0.27695
H    -3.75883  -1.22421   0.92067
H    -3.42293   0.26168  -0.05412
H    -2.37204  -0.10060   1.31022
H     1.84043   2.02575  -0.44593
H     4.06689   1.67611   0.51322
H     4.62306  -0.44736   1.71124
H     2.86559  -2.21454   1.93700
H     0.60200  -1.84517   1.03761
