28
Generated by autodE on: 2022-10-23. E = -616.392231 Ha
C    -0.73471   2.91924  -1.45692
C     0.25467   1.77895  -1.26285
O     1.34784   1.80723  -1.88203
C    -0.12755   0.71346  -0.40637
O    -1.37292   0.94608   0.20797
C    -2.29684   0.08697   0.43856
C    -2.20228  -1.30220  -0.03255
C    -3.46673   0.59349   1.18476
C     0.71677  -0.36536   0.08632
C     1.77217  -0.88276  -0.70436
C     2.62261  -1.87167  -0.21170
C     2.45444  -2.38788   1.07861
C     1.41799  -1.88886   1.87392
C     0.56476  -0.89601   1.39092
H    -0.24261   3.70731  -2.04278
H    -1.07933   3.33532  -0.49756
H    -1.63084   2.57772  -2.00084
H    -3.20057  -1.75571  -0.07263
H    -1.56989  -1.90377   0.64669
H    -1.70503  -1.32452  -1.01730
H    -3.53764   0.05511   2.14714
H    -3.38513   1.67137   1.37150
H    -4.39048   0.36073   0.62990
H     1.91744  -0.49208  -1.70941
H     3.42447  -2.25122  -0.85076
H     3.11961  -3.16716   1.45739
H     1.27231  -2.27049   2.88783
H    -0.21583  -0.50929   2.04973
