40
Generated by autodE on: 2022-10-23. E = -998.034378 Ha. Imaginary frequency = -195.4 cm-1
C     0.73718   2.69654  -1.27440
C     0.14221   1.36500  -1.64413
O    -0.60286   1.25968  -2.62104
C     0.52033   0.15914  -0.87458
C     1.94642  -0.12110  -0.58605
C     2.73669   0.76241   0.17711
C     4.07760   0.47466   0.43529
C     4.66049  -0.69919  -0.05181
C     3.88057  -1.59155  -0.79420
C     2.53967  -1.31022  -1.05739
O    -0.15452  -0.99619  -1.16056
C    -1.43378  -1.24918  -1.07913
C    -1.77726  -2.68639  -1.21897
C    -2.48831  -0.22587  -1.26261
C    -1.18387  -1.06024   1.39555
C    -2.60663  -0.86271   1.64126
O    -3.41950  -1.79765   1.67090
C    -3.06824   0.53366   1.84877
C    -2.20907   1.56989   1.86764
C    -0.74751   1.36207   1.73864
O     0.03460   2.30203   1.91584
C    -0.28730  -0.00670   1.45298
H     0.59287   2.92273  -0.20821
H     1.82035   2.70057  -1.47276
H     0.26079   3.46898  -1.89232
H     2.28967   1.65318   0.61429
H     4.66718   1.17127   1.03609
H     5.71033  -0.92083   0.15277
H     4.31985  -2.51556  -1.17805
H     1.94524  -2.01229  -1.64279
H    -0.89704  -3.32309  -1.06577
H    -2.19208  -2.86745  -2.22682
H    -2.56610  -2.94438  -0.49478
H    -3.44974  -0.62595  -0.91822
H    -2.56197  -0.00103  -2.34071
H    -2.26289   0.71931  -0.75984
H    -0.82698  -2.09096   1.38503
H    -4.14451   0.67087   1.98004
H    -2.54106   2.59948   2.02197
H     0.77423  -0.19065   1.59510
