63
Generated by autodE on: 2022-06-14. E = -4341.930006 Ha
C    -6.47526  -8.58930  -1.76601
N    -5.03799  -8.46717  -1.86489
C    -4.24908  -9.32212  -2.52656
O    -4.63833 -10.38063  -3.03569
C    -2.76531  -8.86343  -2.65973
C    -1.78703 -10.03182  -2.30871
C    -2.24605 -11.14208  -1.41164
O    -0.64042  -9.98106  -2.71706
C    -2.54074  -8.36328  -4.08723
C    -2.26362  -7.04005  -4.07657
C    -1.88923  -6.22098  -5.29467
Cl   -3.01931  -6.57674  -6.70174
Br   -2.14401  -4.23413  -5.06219
C    -0.42709  -6.38514  -5.73215
C     0.16561  -7.79756  -5.76572
C    -0.51662  -8.85911  -6.64714
C    -1.39274  -9.86294  -5.89135
C    -2.68205  -9.34845  -5.22197
C    -2.19367  -6.48655  -2.63679
C    -0.78343  -5.93315  -2.35366
C     0.28172  -6.84657  -2.29622
C     1.59468  -6.41365  -2.10559
C     1.87171  -5.05003  -1.96453
C     0.82049  -4.13200  -2.01317
C    -0.49371  -4.56986  -2.20672
C    -3.35857  -5.53005  -2.30701
C    -4.52267  -5.53685  -3.09333
C    -5.65870  -4.82429  -2.70814
C    -5.65833  -4.08538  -1.52048
C    -4.50876  -4.07027  -0.72741
C    -3.37116  -4.78555  -1.11663
N    -2.46133  -7.70955  -1.85020
C    -2.09453  -7.82959  -0.45948
H    -6.80252  -8.51621  -0.71777
H    -6.78180  -9.56319  -2.16754
H    -6.97486  -7.79216  -2.34059
H    -4.58620  -7.61282  -1.54683
H    -2.85246 -11.84453  -2.00375
H    -1.37273 -11.66501  -1.00094
H    -2.89232 -10.76922  -0.60378
H     0.16967  -5.79857  -5.01809
H    -0.32327  -5.89618  -6.71228
H     1.20105  -7.65320  -6.11329
H     0.25104  -8.17780  -4.73730
H     0.27130  -9.44551  -7.14729
H    -1.09079  -8.37927  -7.45518
H    -0.77375 -10.36533  -5.13208
H    -1.70718 -10.64798  -6.59945
H    -3.21104 -10.22185  -4.82151
H    -3.33579  -8.92116  -5.99129
H     0.07872  -7.90978  -2.41533
H     2.40469  -7.14617  -2.07015
H     2.89842  -4.70671  -1.81640
H     1.01924  -3.06299  -1.90499
H    -1.29030  -3.83182  -2.25846
H    -4.54627  -6.11040  -4.02027
H    -6.54845  -4.84560  -3.34209
H    -6.54667  -3.52638  -1.21713
H    -4.49175  -3.49926   0.20409
H    -2.48963  -4.75816  -0.47650
H    -2.20205  -6.85869   0.04188
H    -2.77439  -8.53014   0.04903
H    -1.05661  -8.17823  -0.29627
