43
Generated by autodE on: 2022-06-14. E = -996.500292 Ha
C     4.19001  -2.09607   2.05309
N     3.45684  -1.59196   0.91558
C     2.53629  -0.60776   1.04341
O     2.35508  -0.02305   2.14097
C     1.75007  -0.28193  -0.14175
C     1.79838  -0.97407  -1.37604
C     0.93397  -0.52205  -2.53983
O     2.55512  -1.96921  -1.57551
N     0.84110   0.81891   0.01332
C     1.47029   2.14121   0.14218
C    -0.46288   0.64640  -0.03783
C    -1.38888   1.76351  -0.29446
C    -1.14290   2.69718  -1.31907
C    -2.06457   3.71034  -1.57748
C    -3.22806   3.81572  -0.80783
C    -3.47948   2.89164   0.21204
C    -2.57556   1.85974   0.45782
C    -1.05213  -0.69189   0.17496
C    -2.08666  -1.14289  -0.66117
C    -2.67819  -2.38770  -0.43464
C    -2.26437  -3.17237   0.64441
C    -1.25442  -2.71139   1.49995
C    -0.64192  -1.48375   1.26502
H     4.91140  -2.84865   1.70863
H     4.74469  -1.29226   2.56296
H     3.53058  -2.56679   2.80430
H     3.44629  -2.07400   0.01127
H    -0.01172  -1.08876  -2.54704
H     1.46863  -0.75861  -3.47060
H     0.68762   0.54770  -2.52754
H     1.83857   2.47460  -0.83753
H     0.76758   2.87316   0.55432
H     2.31998   2.02587   0.82401
H    -0.24460   2.61382  -1.93099
H    -1.87458   4.42007  -2.38525
H    -3.94400   4.61606  -1.00802
H    -4.38783   2.97065   0.81287
H    -2.77553   1.13164   1.24526
H    -2.41527  -0.52330  -1.49701
H    -3.46950  -2.74027  -1.09951
H    -2.73480  -4.14107   0.82806
H    -0.94528  -3.31357   2.35708
H     0.13632  -1.11657   1.93489
