31
Generated by autodE on: 2022-05-28. E = -1297.974099 Ha
C     3.51032  -1.67911  -1.53925
O     2.17527  -1.62489  -1.00945
C     2.04989  -1.37219   0.29250
O     2.98678  -1.20078   1.04383
C     0.60933  -1.24685   0.72712
N    -0.34168  -1.93559  -0.15433
N    -1.55588  -1.25807   0.08743
C    -2.74494  -1.89893   0.23741
C    -2.74475  -3.39180   0.03290
O    -3.76712  -1.25865   0.50685
C    -1.36269   0.14917   0.42284
C    -1.41834   1.08126  -0.82772
C    -1.20528   2.50626  -0.33762
C     0.09709   2.54681  -0.03566
Cl    1.01483   3.78408   0.73506
C     0.66633   1.16374  -0.34143
O    -0.15351   0.77052  -1.44809
C     0.14717   0.23567   0.80055
H     4.01326  -0.71205  -1.39717
H     4.08588  -2.47153  -1.04075
H     3.40138  -1.89980  -2.60692
H     0.54333  -1.67219   1.73861
H    -0.06912  -1.73383  -1.11971
H    -3.75285  -3.77152   0.24089
H    -2.46538  -3.64192  -1.00177
H    -2.01354  -3.87786   0.69456
H    -2.06863   0.44936   1.20379
H    -2.25752   0.89147  -1.50493
H    -1.97664   3.25630  -0.17299
H     1.73371   1.11368  -0.58084
H     0.34377   0.66281   1.78941
