18
Generated by autodE on: 2022-07-26. E = -530.748401 Ha
C     3.18185   0.16070  -1.43195
O     1.91412   0.06543  -0.76411
C     1.93232  -0.30165   0.52142
O     2.94121  -0.55525   1.15190
C     0.58883  -0.37229   1.11235
N    -0.46429  -0.08583   0.40452
N    -1.71667  -0.10966   0.80994
C    -2.55209   0.26395  -0.22663
C    -4.01083   0.28728   0.12221
O    -2.14039   0.56830  -1.35456
H     2.95770   0.46638  -2.45994
H     3.69054  -0.81398  -1.42533
H     3.81672   0.91139  -0.93971
H     0.47348  -0.66611   2.15593
H    -0.33417   0.19500  -0.59223
H    -4.19983  -0.12161   1.12236
H    -4.57512  -0.28147  -0.63277
H    -4.37027   1.32874   0.08062
