31
Generated by autodE on: 2022-05-28. E = -1297.881109 Ha. Imaginary frequency = -292.0 cm-1
C     3.68519  -1.20916  -1.18380
O     2.27241  -1.41214  -1.02890
C     1.82511  -1.64575   0.20837
O     2.53741  -1.71235   1.19182
C     0.35471  -1.74925   0.27171
N    -0.35062  -1.81541  -0.86127
N    -1.66071  -1.60002  -0.93196
C    -2.46995  -2.22278  -0.01187
C    -3.91374  -1.79419  -0.09257
O    -2.10925  -3.10591   0.77459
C    -1.51520   0.44316   0.37730
C    -1.36012   1.37225  -0.84003
C    -1.08054   2.78493  -0.28503
C     0.15062   2.68009   0.22514
Cl    1.08483   3.81263   1.12281
C     0.60966   1.22688  -0.02645
O    -0.03886   0.98823  -1.28162
C    -0.24179   0.32173   0.89890
H     4.01138  -0.34237  -0.59135
H     3.84696  -1.02349  -2.25144
H     4.23729  -2.10403  -0.86336
H    -0.07263  -2.15843   1.18009
H     0.14714  -1.52501  -1.70488
H    -4.26321  -1.50763   0.91119
H    -4.51868  -2.65770  -0.41360
H    -4.06758  -0.96470  -0.79359
H    -2.45488   0.27973   0.89945
H    -2.10139   1.28705  -1.63985
H    -1.78156   3.61656  -0.25221
H     1.69087   1.06290  -0.07163
H     0.00944   0.12807   1.94083
