20
Generated by autodE on: 2022-06-18. E = -457.715344 Ha
C    -3.14913   0.39016   0.14796
N    -1.81932  -0.19473   0.09355
C    -1.67732  -1.56025  -0.18359
C    -0.48087  -2.14414  -0.35502
C     0.82397  -1.39190  -0.26665
C     0.57022   0.08361  -0.00268
C     1.68177   1.04308   0.10375
N     2.92827   0.53055  -0.05370
O     1.52214   2.26125   0.32376
C    -0.69335   0.57096   0.15108
H    -3.62724   0.40466  -0.84648
H    -3.79317  -0.18223   0.83283
H    -3.07824   1.42106   0.51705
H    -2.61453  -2.11610  -0.24695
H    -0.45076  -3.21641  -0.56161
H     1.46377  -1.83166   0.52634
H     1.40706  -1.53260  -1.19962
H     3.72233   1.15805   0.00991
H     3.09935  -0.45032  -0.23472
H    -0.84943   1.63451   0.33809
