38
Generated by autodE on: 2022-06-18. E = -951.296035 Ha. Imaginary frequency = -417.8 cm-1
C     4.22080  -2.21974  -0.11602
N     2.83107  -1.92171   0.16679
C     2.45445  -0.73246   0.67530
O     3.26432   0.16386   0.95869
C     0.99416  -0.49547   0.83734
N     0.13564  -1.49782   0.69230
C    -0.67717  -1.92459  -0.12348
C    -1.46301  -3.14086  -0.24597
C    -2.86192  -3.13067   0.31157
O    -0.99444  -4.09949  -0.86121
C    -0.46450   0.13637  -1.61327
C     0.71764   0.62906  -1.07825
C     0.75562   2.03163  -0.50278
C    -0.60194   2.38392   0.06934
C    -0.79483   3.44956   1.07041
N     0.31690   4.11954   1.46028
O    -1.91001   3.73780   1.54636
C    -1.71332   1.76261  -0.40957
N    -1.67710   0.76688  -1.35177
C    -2.90292   0.10444  -1.76140
H     4.30102  -3.26406  -0.44115
H     4.62139  -1.56968  -0.91125
H     4.84460  -2.07928   0.78040
H     2.12141  -2.61154  -0.05767
H     0.73689   0.27547   1.56885
H    -2.95705  -3.98637   0.99945
H    -3.58624  -3.27900  -0.50514
H    -3.09624  -2.20062   0.84674
H    -0.48503  -0.61581  -2.39825
H     1.63621   0.25025  -1.52855
H     1.04433   2.75755  -1.29132
H     1.54886   2.09437   0.25771
H     1.23413   3.93309   1.07552
H     0.21919   4.86245   2.14380
H    -2.70550   2.05292  -0.06120
H    -3.74673   0.80049  -1.67719
H    -3.10174  -0.78184  -1.13459
H    -2.81924  -0.22409  -2.80673
