52
Generated by autodE on: 2022-06-26. E = -1408.588077 Ha
C     3.26385  -0.82629  -3.88731
N     2.81949  -0.39253  -2.57674
C     1.79050  -0.97324  -1.95382
O     1.13061  -1.90009  -2.43450
C     1.38903  -0.37425  -0.57798
C     2.61411  -0.03790   0.28113
O     3.45173   0.77670  -0.13242
N     2.68981  -0.66117   1.45803
C     3.73903  -0.37840   2.41797
O     0.57918  -1.32772   0.10146
C    -0.80152  -1.10460  -0.13505
C    -1.40596  -2.38155  -0.76449
C    -0.86968  -3.68380  -0.25063
O    -2.26481  -2.30123  -1.61821
C    -1.47508  -0.84766   1.22259
O    -0.87223  -0.74909   2.26828
O    -2.79246  -0.76589   1.09556
C    -3.54082  -0.36346   2.25682
C    -0.86300   0.14083  -1.10288
C     0.46231   0.85050  -0.76877
C     0.37669   1.71196   0.50785
C    -0.99253   2.29911   0.73375
C    -1.24850   3.23415   1.83991
N    -0.16786   3.65126   2.54456
O    -2.39410   3.62074   2.15298
C    -2.05499   1.93457  -0.03650
N    -2.00900   1.00693  -1.02693
C    -3.21767   0.65170  -1.75396
H     4.08656  -0.17940  -4.21467
H     2.44534  -0.76072  -4.62055
H     3.61823  -1.86943  -3.86677
H     3.33358   0.31870  -2.05593
H     1.88569  -1.22044   1.73102
H     4.70557  -0.29314   1.90308
H     3.79026  -1.19757   3.14598
H     3.55060   0.56479   2.95741
H    -1.51226  -4.50888  -0.58339
H    -0.78780  -3.67024   0.84723
H     0.14694  -3.82256  -0.64943
H    -3.34377  -1.04444   3.09573
H    -4.59516  -0.40832   1.96335
H    -3.26425   0.66503   2.53183
H    -0.81857  -0.26340  -2.12013
H     0.78146   1.45874  -1.62285
H     0.65816   1.11579   1.39001
H     1.13748   2.50413   0.42586
H     0.78035   3.40141   2.29397
H    -0.31181   4.29389   3.31570
H    -3.02545   2.40501   0.12938
H    -3.88467   1.52325  -1.78594
H    -2.96273   0.36930  -2.78529
H    -3.75004  -0.19097  -1.28649
