20
Generated by autodE on: 2022-06-26. E = -457.715322 Ha
C    -2.95381   1.14765   0.24193
N    -1.80964   0.27134   0.05073
C    -2.00993  -1.11108  -0.05099
C    -0.99620  -1.98439  -0.15880
C     0.45348  -1.56650  -0.18168
C     0.57348  -0.05857  -0.03050
C     1.88655   0.60552   0.00429
N     2.96782  -0.20501  -0.11884
O     2.03161   1.83758   0.14159
C    -0.52908   0.73595   0.07423
H    -3.43756   0.97199   1.21765
H    -3.70260   0.98570  -0.54898
H    -2.62257   2.19273   0.19877
H    -3.05490  -1.42566  -0.03769
H    -1.23286  -3.04793  -0.23778
H     0.93332  -1.91059  -1.12125
H     1.01174  -2.09053   0.62064
H     2.89049  -1.20488  -0.25350
H     3.89162   0.21317  -0.11041
H    -0.41360   1.81575   0.18116
