52
Generated by autodE on: 2022-06-26. E = -1408.496618 Ha. Imaginary frequency = -42.1 cm-1
C     3.37808  -2.19894  -3.30605
N     2.84451  -1.42860  -2.20211
C     1.71343  -1.79221  -1.57637
O     0.99661  -2.74186  -1.93973
C     1.34017  -1.01362  -0.38387
C     2.27819  -0.23651   0.45680
O     3.41964   0.05117   0.04588
N     1.83903   0.11352   1.67842
C     2.66368   0.88330   2.58698
O     0.16035  -1.15765   0.14486
C    -0.98411  -1.71983  -0.08647
C    -1.40153  -2.38237  -1.38451
C    -1.73865  -3.83886  -1.31475
O    -1.57484  -1.69263  -2.37433
C    -1.98821  -1.47192   0.95004
O    -3.13663  -1.88365   0.87286
O    -1.52209  -0.73151   1.96128
C    -2.45552  -0.33850   2.97663
C    -0.80715   1.42259  -1.75224
C     0.43131   1.93247  -1.65661
C     0.89840   2.72753  -0.46197
C    -0.10461   2.60165   0.67260
C     0.20211   3.08539   2.02569
N     1.27955   3.90170   2.13872
O    -0.48054   2.79849   3.03254
C    -1.33803   2.05916   0.46830
N    -1.74773   1.53544  -0.72042
C    -3.11378   1.08404  -0.93168
H     3.78433  -3.16951  -2.97323
H     2.59126  -2.39841  -4.04760
H     4.18204  -1.62668  -3.78491
H     3.41766  -0.73616  -1.71383
H     0.86516  -0.05092   1.91661
H     3.01330   1.81495   2.11970
H     2.06426   1.13617   3.46901
H     3.54624   0.30599   2.90663
H    -0.91392  -4.39914  -0.85235
H    -1.95870  -4.22333  -2.31964
H    -2.62445  -3.95587  -0.66898
H    -2.73477  -1.20551   3.59317
H    -3.35748   0.09616   2.52419
H    -1.93482   0.41368   3.57903
H    -1.14482   0.85960  -2.62153
H     1.12785   1.76703  -2.48131
H     1.89715   2.37485  -0.14572
H     1.05683   3.78987  -0.74729
H     1.87957   4.11984   1.35334
H     1.57431   4.19044   3.06521
H    -2.06679   2.02714   1.27860
H    -3.63320   1.03221   0.03308
H    -3.66792   1.77405  -1.59077
H    -3.12164   0.08534  -1.38929
