43
Generated by autodE on: 2022-06-22. E = -1141.941383 Ha
C    -3.94020  -0.48970   1.35881
N    -2.58219   0.03140   1.35182
C    -1.85910   0.00347   2.54145
C    -0.69840   0.66649   2.65696
C    -0.27013   1.53372   1.51084
C    -0.55660   0.92708   0.11282
C    -0.62618   2.05305  -0.94333
N     0.34103   2.98082  -0.87474
O    -1.50323   2.07889  -1.80903
C    -1.86791   0.07595   0.09726
C    -1.29287  -1.29776  -0.37628
C    -2.15859  -2.46670  -0.26527
N    -2.84496  -3.39601  -0.18894
O    -0.97836  -1.12190  -1.82062
C     0.18185  -0.42156  -1.83741
O     0.71851  -0.08617  -2.85985
C     0.53544  -0.16634  -0.34394
C     1.96582   0.14054   0.00079
C     2.44144  -0.17564   1.28442
C     3.74758   0.14414   1.65634
C     4.59586   0.79435   0.75437
C     4.12664   1.12076  -0.51992
C     2.81983   0.79758  -0.89757
N    -0.01860  -1.39607   0.26987
C     0.73290  -2.62974   0.01533
H    -4.55592   0.06788   2.08202
H    -4.38780  -0.36134   0.36388
H    -3.99341  -1.56020   1.62360
H    -2.29792  -0.58159   3.35555
H    -0.10581   0.62180   3.57088
H     0.78620   1.81903   1.59425
H    -0.84486   2.47713   1.55272
H     0.36893   3.70890  -1.58253
H     1.09278   2.93868  -0.19646
H    -2.53946   0.43745  -0.68748
H     1.78065  -0.66786   1.99829
H     4.10179  -0.11227   2.65732
H     5.61814   1.04673   1.04546
H     4.78009   1.63094  -1.23128
H     2.46565   1.05557  -1.89306
H     1.69013  -2.58533   0.54653
H     0.16283  -3.47932   0.41499
H     0.93357  -2.81066  -1.05596
