20
Generated by autodE on: 2022-06-22. E = -457.715331 Ha
C    -2.96425   1.09142   0.34066
N    -1.80116   0.22405   0.24509
C    -1.89898  -1.10928   0.66310
C    -0.84302  -1.93735   0.69907
C     0.54862  -1.51723   0.29472
C     0.56466  -0.05090  -0.10461
C     1.81031   0.61437  -0.51912
N     2.92483  -0.15946  -0.52527
O     1.87198   1.81633  -0.84884
C    -0.57191   0.70112  -0.09954
H    -3.83312   0.62354  -0.14676
H    -3.22817   1.30223   1.39118
H    -2.75226   2.04230  -0.16470
H    -2.90177  -1.42622   0.95530
H    -1.00073  -2.96627   1.03049
H     1.25971  -1.70908   1.12392
H     0.91363  -2.15768  -0.53475
H     3.80430   0.25885  -0.80792
H     2.91204  -1.13994  -0.27512
H    -0.52979   1.75246  -0.38872
