23
Generated by autodE on: 2022-06-22. E = -684.220661 Ha
C     1.23824   1.86812   0.72502
N     1.18824   0.50284   0.20191
C     2.28184  -0.23126  -0.03410
C     3.61802   0.15513   0.12753
N     4.73377   0.47290   0.25873
O     1.93086  -1.45516  -0.45444
C     0.51712  -1.53136  -0.48792
O    -0.03439  -2.56280  -0.83044
C     0.06629  -0.23879  -0.07330
C    -1.32335   0.19491   0.02536
C    -1.73606   1.51332  -0.25899
C    -3.08203   1.86931  -0.16489
C    -4.04334   0.92178   0.19953
C    -3.64754  -0.39343   0.46555
C    -2.30430  -0.75612   0.38083
H     2.19956   2.01487   1.23060
H     0.42131   2.00264   1.44237
H     1.14126   2.58943  -0.09594
H    -1.01324   2.26052  -0.58400
H    -3.38178   2.89528  -0.39064
H    -5.09605   1.20480   0.26930
H    -4.39033  -1.14310   0.74799
H    -2.00318  -1.78176   0.59507
