43
Generated by autodE on: 2022-06-22. E = -1141.911362 Ha. Imaginary frequency = -313.3 cm-1
C    -3.43282  -1.27131   1.62906
N    -2.34264  -0.32037   1.50692
C    -1.50594  -0.12731   2.59854
C    -0.47497   0.73395   2.60948
C    -0.18287   1.61852   1.43306
C    -0.95315   1.21025   0.19248
C    -1.05899   2.18732  -0.90513
N    -0.11657   3.16811  -0.92299
O    -1.95378   2.15070  -1.77027
C    -1.96048   0.17397   0.23331
C    -1.24300  -1.20676  -0.77681
C    -2.16820  -2.29808  -0.98793
N    -2.95422  -3.13058  -1.17652
O    -0.92432  -0.59369  -1.99224
C     0.32512  -0.01912  -1.83406
O     0.79667   0.69885  -2.69138
C     0.84961  -0.53700  -0.56998
C     2.14367  -0.20786   0.00331
C     2.44190  -0.45714   1.36177
C     3.67332  -0.08121   1.89567
C     4.62826   0.55200   1.09530
C     4.33970   0.81726  -0.24783
C     3.11209   0.44740  -0.79124
N    -0.00996  -1.50947  -0.16645
C     0.13485  -2.48944   0.89840
H    -3.99437  -1.07886   2.55601
H    -4.12430  -1.15117   0.78471
H    -3.08882  -2.32024   1.65241
H    -1.75705  -0.73091   3.47401
H     0.12668   0.83826   3.51359
H     0.90623   1.65804   1.24354
H    -0.44999   2.66528   1.68379
H    -0.08825   3.76600  -1.74258
H     0.73984   3.07422  -0.38852
H    -2.81834   0.37833  -0.41613
H     1.70350  -0.91062   2.01732
H     3.88288  -0.27804   2.94920
H     5.59231   0.84392   1.51789
H     5.07850   1.31586  -0.87903
H     2.89245   0.65995  -1.83526
H     1.14735  -2.90913   0.85981
H    -0.04669  -2.05156   1.88859
H    -0.58752  -3.29603   0.72246
