44
Generated by autodE on: 2022-10-21. E = -1145.232700 Ha
C     3.58233  -2.38205  -2.34860
N     2.24986  -2.05252  -1.87978
C     2.02398  -1.02131  -1.05371
O     2.92505  -0.27563  -0.65073
C     0.57596  -0.85428  -0.60930
N     0.32334  -1.58409   0.63696
C    -0.90023  -1.01950   1.22251
C    -2.09341  -1.97767   1.18994
C    -2.08239  -3.09948   0.19238
O    -3.00648  -1.83041   1.98626
C    -1.22543   0.30831   0.44397
O    -1.49388   1.42641   1.23303
C    -2.60733   1.34702   2.11749
O    -2.28457  -0.00390  -0.42220
C    -2.94665   1.03789  -1.14174
C     0.11250   0.59663  -0.33623
O    -0.18526   1.36042  -1.46863
C     0.76495   1.38736  -2.52601
C     1.06701   1.32135   0.63262
O     1.41748   0.87182   1.70627
O     1.43195   2.51842   0.18675
C     2.32894   3.26547   1.02311
H     4.24564  -2.64825  -1.51031
H     4.03334  -1.53019  -2.88087
H     3.51721  -3.23508  -3.03434
H     1.46390  -2.62467  -2.17072
H    -0.09102  -1.23856  -1.39668
H     1.08684  -1.36065   1.27354
H    -0.72309  -0.76848   2.27547
H    -1.37391  -3.87207   0.53213
H    -3.08649  -3.53778   0.11867
H    -1.73658  -2.75507  -0.79209
H    -2.68834   2.32966   2.60047
H    -3.54222   1.13095   1.57739
H    -2.45697   0.57272   2.88526
H    -4.03030   0.88978  -1.01547
H    -2.67317   2.03023  -0.76292
H    -2.69482   0.97907  -2.21017
H     0.39884   2.12684  -3.25140
H     1.76296   1.69129  -2.17803
H     0.83702   0.41141  -3.03369
H     1.86833   3.45795   2.00247
H     2.51643   4.20847   0.49729
H     3.26798   2.71058   1.16091
