20
Generated by autodE on: 2022-10-26. E = -494.843419 Ha
C     3.71306  -0.12427  -1.91091
N     2.32654  -0.38672  -1.58547
C     1.71571   0.21128  -0.54297
O     2.29967   1.02663   0.20056
C     0.31346  -0.14294  -0.32105
N    -0.25286   0.46745   0.70928
C    -1.45998   0.48976   1.30242
C    -2.64141  -0.24349   0.94001
C    -2.62867  -1.18970  -0.23652
O    -3.67975  -0.08827   1.60934
H     3.88105   0.94646  -2.10895
H     4.38415  -0.42348  -1.08922
H     3.98104  -0.69429  -2.80862
H     1.80010  -1.04814  -2.14690
H    -0.22415  -0.84524  -0.94929
H     0.44326   1.08718   1.15620
H    -1.52800   1.15488   2.16290
H    -1.86999  -1.97849  -0.10389
H    -3.61966  -1.65239  -0.33206
H    -2.38700  -0.65464  -1.16984
