20
Generated by autodE on: 2022-10-21. E = -494.851273 Ha
C    -4.27465  -0.01769  -0.27217
N    -3.06978  -0.11438   0.52534
C    -1.84371  -0.01414  -0.02767
O    -1.66715   0.18215  -1.24530
C    -0.71171  -0.14744   0.89217
N     0.48600  -0.04786   0.35925
C     1.72567  -0.11685   0.87193
C     2.80486   0.04092  -0.05400
C     4.21268  -0.03300   0.48317
O     2.59928   0.23317  -1.27195
H    -4.34938  -0.84635  -0.99581
H    -5.14567  -0.05271   0.39313
H    -4.29930   0.92618  -0.83912
H    -3.14570  -0.29413   1.52135
H    -0.81744  -0.32181   1.96332
H     0.48028   0.11742  -0.66441
H     1.84820  -0.28720   1.94011
H     4.24673  -0.19681   1.56888
H     4.74316   0.90195   0.23917
H     4.75107  -0.85022  -0.02436
