24
Generated by autodE on: 2022-10-21. E = -650.341901 Ha
C     2.75501  -1.45779  -1.64415
O     1.50017  -1.08206  -1.06966
C     1.45096   0.13026  -0.48474
O     2.42601   0.87356  -0.45006
C     0.16056   0.50398   0.08703
O     0.12176   1.78654   0.60865
C     0.49768   1.85772   1.98155
C    -0.96455  -0.28412   0.19265
O    -0.93371  -1.57842  -0.11167
C    -2.16975  -2.28778  -0.28441
O    -2.14488   0.12291   0.64840
C    -2.62509   1.46690   0.48535
H     3.54710  -1.47647  -0.88070
H     3.04511  -0.76216  -2.44580
H     2.60902  -2.46360  -2.05645
H     0.44306   2.91466   2.27945
H     1.52758   1.49263   2.13137
H    -0.18859   1.26752   2.61341
H    -1.88479  -3.27917  -0.65641
H    -2.70294  -2.38731   0.67129
H    -2.81347  -1.78238  -1.01872
H    -3.71917   1.38951   0.52937
H    -2.26448   2.11576   1.29296
H    -2.31808   1.87003  -0.48895
