44
Generated by autodE on: 2022-10-21. E = -1145.169209 Ha. Imaginary frequency = -386.6 cm-1
C     4.07256  -1.25576  -1.60317
N     2.69887  -1.52388  -1.22467
C     2.26317  -1.30890   0.03197
O     3.00618  -1.04901   0.99005
C     0.78874  -1.33965   0.19065
N     0.31275  -1.15223   1.42429
C    -1.00452  -0.83574   1.66985
C    -2.13269  -1.68024   1.29304
C    -1.93923  -2.88131   0.40113
O    -3.26730  -1.38103   1.68646
C    -1.29515   0.67492  -0.06668
O    -1.50505   1.84794   0.58048
C    -2.31997   1.90211   1.75588
O    -2.36842   0.12567  -0.70594
C    -3.49971   0.94920  -1.00478
C    -0.03533   0.50487  -0.73782
O    -0.03645  -0.01645  -2.02284
C    -0.44262   0.89182  -3.04883
C     1.14215   1.30815  -0.38879
O     2.03669   1.58635  -1.17774
O     1.19856   1.64025   0.91321
C     2.38416   2.31306   1.35346
H     4.26679  -0.17224  -1.67422
H     4.75665  -1.68187  -0.85749
H     4.27638  -1.71772  -2.57749
H     1.99218  -1.50709  -1.95635
H     0.18976  -1.85792  -0.55213
H     1.00269  -0.75400   2.06523
H    -1.14756  -0.30287   2.60995
H    -1.02450  -3.44336   0.63872
H    -2.81739  -3.53384   0.49496
H    -1.87134  -2.54271  -0.64506
H    -2.90510   2.83064   1.70304
H    -2.99224   1.03912   1.83167
H    -1.66564   1.93346   2.64118
H    -3.19006   1.91678  -1.42672
H    -4.08192   0.39434  -1.75150
H    -4.12521   1.11786  -0.11614
H    -1.48144   1.22697  -2.90334
H    -0.37264   0.34542  -3.99963
H     0.22174   1.76926  -3.08635
H     3.26740   1.67931   1.19261
H     2.24373   2.49739   2.42512
H     2.51274   3.26639   0.82083
