46
Generated by autodE on: 2022-12-30. E = -1292.645443 Ha
C     5.37727  -2.04180  -0.08035
N     4.40919  -0.99090   0.15331
C     3.20156  -1.25052   0.70406
O     2.87606  -2.39451   1.07351
C     2.27814  -0.12406   0.84629
C     2.29259   1.12030   0.30270
O     3.24555   1.66275  -0.44819
C     3.04105   2.99090  -0.95850
C     0.89916   1.69389   0.54885
O     0.55396   1.07579   1.78737
C     0.86477  -0.27356   1.39812
C    -0.06055  -0.47673   0.16356
C    -0.01452   0.94205  -0.46977
N    -1.39902   1.38681  -0.49529
C    -1.89792   2.04371  -1.59282
C    -3.39352   2.07962  -1.74410
O    -1.12632   2.58613  -2.38446
N    -2.24427   0.63589   0.34182
C    -2.57530   1.30097   1.60532
C    -1.58533  -0.69989   0.41461
C    -1.84486  -1.38008   1.68248
N    -2.00118  -1.92724   2.69206
C    -2.18835  -1.47067  -0.77765
O    -1.86002  -1.24051  -1.91990
O    -3.12594  -2.32793  -0.40993
C    -3.82204  -3.02491  -1.46124
H     6.29734  -1.59615  -0.47815
H     5.61920  -2.57390   0.85303
H     5.00656  -2.78778  -0.80348
H     4.59443  -0.05503  -0.19354
H     2.99334   3.71627  -0.13297
H     3.90799   3.20810  -1.59305
H     2.12026   3.03798  -1.55903
H     0.77300   2.77958   0.57841
H     0.73083  -0.97663   2.22541
H     0.32744  -1.26746  -0.48493
H     0.38915   0.97996  -1.48601
H    -3.87860   2.50469  -0.85367
H    -3.77899   1.05714  -1.87454
H    -3.63952   2.68505  -2.62500
H    -2.99948   2.28373   1.36153
H    -1.70714   1.43099   2.26902
H    -3.35285   0.71838   2.11706
H    -4.35827  -2.30574  -2.09624
H    -3.10972  -3.60016  -2.06855
H    -4.52813  -3.69452  -0.95842
