24
Generated by autodE on: 2022-12-30. E = -630.223223 Ha
C     3.55136   0.26694   1.43701
N     2.23558   0.42837   0.85685
C     1.59635  -0.59855   0.24520
O     2.12312  -1.72322   0.13498
C     0.26484  -0.32374  -0.28359
C    -0.56121   0.74337  -0.14857
O    -0.31437   1.88242   0.49036
C    -1.32061   2.90581   0.50070
C    -1.90619   0.31536  -0.79581
C    -2.51874  -0.74737   0.14501
C    -1.71916  -1.81044   0.01651
C    -0.62196  -1.37353  -0.98134
O    -1.40004  -0.51549  -1.84898
H     3.88794   1.23406   1.83086
H     3.54979  -0.46561   2.26182
H     4.28087  -0.07929   0.68726
H     1.75077   1.31447   0.95520
H    -0.91863   3.71956   1.11558
H    -2.25190   2.52965   0.94898
H    -1.51043   3.27103  -0.51953
H    -2.56194   1.10956  -1.16501
H    -3.37955  -0.58734   0.79274
H    -1.75097  -2.77015   0.53146
H    -0.09747  -2.15986  -1.53329
