22
Generated by autodE on: 2022-12-30. E = -662.332510 Ha
C     3.10125   1.47723  -0.03300
O     2.24426   0.33068  -0.17102
C     0.94073   0.56857  -0.29386
O     0.43951   1.67386  -0.27866
C     0.20072  -0.69553  -0.52378
C     0.92136  -1.81153  -1.01804
N     1.52792  -2.72405  -1.41405
N    -1.13854  -0.78775  -0.43178
C    -1.80378  -1.96080  -1.04499
N    -1.94704   0.05462   0.12981
C    -1.54550   0.78208   1.25121
C    -2.40395   1.98129   1.50701
O    -0.64228   0.42478   1.99803
H     4.11678   1.07947   0.06929
H     2.82129   2.05264   0.86055
H     3.02726   2.11642  -0.92416
H    -2.87939  -1.77173  -1.00819
H    -1.55455  -2.84989  -0.44950
H    -1.45896  -2.08831  -2.07780
H    -2.26265   2.33564   2.53593
H    -3.46278   1.76626   1.30817
H    -2.08574   2.77319   0.80718
