46
Generated by autodE on: 2022-12-30. E = -1292.552429 Ha. Imaginary frequency = -195.4 cm-1
C     5.66084  -2.22195   0.23124
N     4.63754  -1.19957   0.27879
C     3.36648  -1.48360   0.65028
O     3.02316  -2.63205   0.99025
C     2.41326  -0.37728   0.63903
C     2.50593   0.89566   0.17604
O     3.56980   1.48714  -0.35287
C     3.46460   2.85472  -0.77934
C     1.07777   1.49040   0.28802
O     0.63149   0.80696   1.46390
C     0.92170  -0.52493   0.98757
C     0.14360  -0.50865  -0.33798
C     0.23710   0.78132  -0.79319
N    -1.77122   1.76100  -0.33997
C    -2.40012   1.99135  -1.54200
C    -3.91203   2.04255  -1.51395
O    -1.76426   2.33343  -2.53434
N    -2.22230   1.03724   0.64755
C    -2.22762   1.67835   1.97805
C    -2.32364  -0.31289   0.57130
C    -2.36592  -1.03945   1.79267
N    -2.36861  -1.63471   2.79339
C    -2.56223  -1.06113  -0.68311
O    -2.72585  -0.58113  -1.78744
O    -2.57942  -2.37542  -0.43774
C    -2.76056  -3.23925  -1.57010
H     6.61344  -1.75846  -0.05400
H     5.78720  -2.70894   1.21151
H     5.41989  -3.00917  -0.50277
H     4.85723  -0.25685  -0.02641
H     3.26275   3.51145   0.07959
H     4.43532   3.10924  -1.22032
H     2.67411   2.96360  -1.53634
H     0.98468   2.57591   0.37294
H     0.66191  -1.29466   1.72059
H    -0.09921  -1.40209  -0.90876
H     0.10626   1.15189  -1.80674
H    -4.21037   3.09179  -1.35478
H    -4.35301   1.42987  -0.71871
H    -4.28962   1.71967  -2.49297
H    -2.15557   2.75654   1.80963
H    -1.37207   1.33084   2.56828
H    -3.17113   1.43604   2.48400
H    -3.71816  -3.02608  -2.06590
H    -1.93673  -3.10641  -2.28597
H    -2.75651  -4.25938  -1.17038
