20
Generated by autodE on: 2022-07-27. E = -420.515886 Ha
C     4.10583   0.83751   0.07747
C     3.04402  -0.07172   0.57114
N     1.80576   0.02521   0.17063
N     0.81203  -0.79742   0.49083
C    -0.44367  -0.36464   0.12714
C    -1.49815  -1.31095   0.23129
C    -2.80457  -0.98455  -0.11583
C    -3.12555   0.29992  -0.58157
C    -2.10402   1.25042  -0.67520
C    -0.78950   0.93947  -0.31931
H     3.69971   1.60955  -0.59405
H     4.88211   0.27350  -0.46983
H     4.61519   1.33478   0.92086
H     3.26002  -0.87768   1.27729
H     1.61229   0.80011  -0.48316
H    -1.25028  -2.31451   0.58546
H    -3.58687  -1.74353  -0.02614
H    -4.15163   0.55462  -0.85536
H    -2.33273   2.26409  -1.01650
H    -0.04163   1.73450  -0.36932
