26
Generated by autodE on: 2022-06-16. E = -499.124970 Ha. Imaginary frequency = -378.3 cm-1
C     3.23476   1.12850  -1.26483
C     1.98766   0.52148  -0.71463
C     2.47204  -1.46958   0.08547
C     1.50924  -1.66692   1.04903
N     0.46365   0.44970   1.09751
C    -0.74089   0.21809   0.45046
C    -1.66666  -0.64919   1.08298
C    -2.92785  -0.88074   0.54040
C    -3.32574  -0.25219  -0.64791
C    -2.42960   0.62110  -1.27361
C    -1.15933   0.85582  -0.74364
N     1.44850   1.03151   0.40158
H     3.00119   1.95773  -1.95543
H     3.79940   0.37689  -1.83586
H     3.87923   1.51672  -0.46017
H     1.29095   0.06504  -1.41650
H     2.36138  -1.92183  -0.90370
H     3.49425  -1.20872   0.37545
H     0.57675  -2.18458   0.81598
H     1.73049  -1.52871   2.10853
H    -1.37015  -1.13361   2.01590
H    -3.61334  -1.56009   1.05474
H    -4.31509  -0.43581  -1.07250
H    -2.72173   1.13510  -2.19384
H    -0.49099   1.55412  -1.24926
H     2.10649   1.53584   0.99944
