43
Generated by autodE on: 2022-06-20. E = -1032.905156 Ha
C     1.47110   3.86386  -0.63364
N     1.19180   2.44597  -0.75085
C     1.10508   1.64399   0.31501
O     1.33197   1.99699   1.47645
C     0.71738   0.18508   0.00172
C     2.02046  -0.62892  -0.15007
O     3.02321  -0.33893   0.51246
N     1.94875  -1.64811  -1.00878
C     3.04800  -2.57771  -1.17715
O    -0.05844   0.11038  -1.18092
C    -1.45308  -0.14987  -0.91975
C    -2.26770   0.82439  -1.76564
C    -1.73305  -1.59865  -1.37914
C    -3.14036  -1.99127  -1.72791
O    -0.81607  -2.39377  -1.51373
C    -1.61948   0.00278   0.64880
C    -2.65817  -0.93649   1.27282
C    -1.97953   1.44900   1.02563
C    -0.19220  -0.39430   1.10024
C     0.26452  -0.12699   2.51284
O    -0.46175   0.15895   3.44501
H     1.74734   4.25941  -1.61895
H     0.59474   4.42043  -0.26072
H     2.30401   4.02838   0.06380
H     0.84377   2.07088  -1.62916
H     1.02375  -1.86746  -1.39099
H     3.98547  -2.03570  -1.36931
H     2.83499  -3.23238  -2.03135
H     3.19625  -3.20278  -0.28030
H    -2.12164   0.60816  -2.83431
H    -1.93562   1.85177  -1.57600
H    -3.33914   0.75262  -1.53813
H    -3.89851  -1.47392  -1.12931
H    -3.30793  -1.71075  -2.78221
H    -3.24894  -3.08034  -1.64067
H    -2.65141  -0.80277   2.36312
H    -2.44190  -1.99568   1.06701
H    -3.67050  -0.70619   0.91104
H    -1.32530   2.19616   0.55866
H    -3.01056   1.67296   0.71817
H    -1.91456   1.57246   2.11348
H    -0.10595  -1.49404   1.02045
H     1.34503  -0.33091   2.67797
