14
Generated by autodE on: 2022-06-20. E = -270.683215 Ha
C    -0.91270  -1.29976   0.00124
C    -0.84958   0.20078   0.01766
C    -2.16291   0.91654   0.05206
C     0.31719   0.90199   0.00354
C     1.65458   0.32940  -0.02847
O     1.94217  -0.86530  -0.04421
H    -0.38603  -1.72436   0.87077
H    -1.95302  -1.65376   0.00799
H    -0.40242  -1.70573  -0.88650
H    -2.73832   0.60141   0.94036
H    -2.05108   2.00948   0.06454
H    -2.77179   0.62498  -0.82187
H     0.27714   1.99512   0.01658
H     2.47397   1.08871  -0.03857
