29
Generated by autodE on: 2022-06-20. E = -762.128424 Ha
C    -2.03228   3.21751   0.96110
N    -1.14374   2.13612   0.59105
C    -1.56048   0.85284   0.58438
O    -2.71727   0.53386   0.93043
C    -0.56758  -0.16099   0.18573
O     0.62362   0.36070  -0.07757
C     1.83061  -0.11619  -0.15953
C     2.16743  -1.49028   0.25212
C     2.79874   0.94513  -0.52146
C     4.24456   0.55578  -0.64873
O     2.41095   2.09678  -0.71364
C    -0.90860  -1.52340  -0.25441
O    -0.21403  -2.11315  -1.10154
N    -2.03954  -2.05130   0.26658
C    -2.61533  -3.25863  -0.28889
H    -2.87400   3.31568   0.25548
H    -1.46438   4.15576   0.96241
H    -2.45371   3.05747   1.96585
H    -0.20310   2.34622   0.27248
H     3.23292  -1.56696   0.49808
H     1.90976  -2.23607  -0.51734
H     1.56148  -1.75095   1.13997
H     4.64899   0.26645   0.33552
H     4.81568   1.40769  -1.03861
H     4.36096  -0.31315  -1.31532
H    -2.63097  -1.39067   0.77534
H    -1.87796  -4.07460  -0.28790
H    -3.47258  -3.56016   0.32605
H    -2.95952  -3.11843  -1.32881
