52
Generated by autodE on: 2022-06-04. E = -1367.160419 Ha
C     5.32857   2.84415 -11.67633
O     6.64998   3.23807 -12.07453
C     6.73587   3.96604 -13.18624
O     5.78278   4.35495 -13.83716
N     8.05358   4.29136 -13.50282
N     9.04650   3.32863 -13.22424
N     9.41383   2.80455 -14.51448
C     9.28911   1.38880 -14.66597
C     8.27301   0.67808 -14.01070
C     8.14148  -0.69556 -14.21900
C     9.01175  -1.36912 -15.08346
C    10.03929  -0.66173 -15.71404
C    10.19268   0.70829 -15.49086
C     9.00659   3.75696 -15.49006
C     8.29212   4.72822 -14.86806
C     7.88806   6.12737 -15.26490
F     9.02883   6.83587 -15.62750
F     7.45208   6.77395 -14.13135
C     6.82225   6.30415 -16.33762
C     6.76726   5.26235 -17.45008
C     7.95931   5.17576 -18.40592
C     9.33281   4.81579 -17.82552
C     9.42108   3.55939 -16.92499
C     8.71837   2.36683 -17.57550
C     9.33240   1.74740 -18.67359
C     8.74235   0.64687 -19.29852
C     7.52510   0.14248 -18.82839
C     6.90291   0.75618 -17.73767
C     7.49208   1.86382 -17.12185
H     5.45674   2.24927 -10.76480
H     4.70939   3.72853 -11.46917
H     4.85615   2.23731 -12.46203
H     9.86774   3.84857 -12.90275
H     7.58359   1.20427 -13.35068
H     7.34173  -1.24081 -13.71204
H     8.89552  -2.44144 -15.25572
H    10.73549  -1.17905 -16.37814
H    11.00367   1.25699 -15.97011
H     5.86431   6.28248 -15.79985
H     6.95120   7.32103 -16.74227
H     5.87276   5.48935 -18.05228
H     6.57381   4.28028 -16.99739
H     8.06495   6.13749 -18.93744
H     7.70254   4.43077 -19.17687
H     9.76704   5.66399 -17.28432
H    10.00414   4.62814 -18.67756
H    10.49061   3.30004 -16.88364
H    10.29579   2.12150 -19.02992
H     9.24074   0.17331 -20.14793
H     7.06695  -0.72627 -19.30696
H     5.95565   0.36783 -17.35600
H     7.00457   2.31525 -16.25609
