52
Generated by autodE on: 2022-06-04. E = -1367.067768 Ha. Imaginary frequency = -408.9 cm-1
C     7.44304   5.11717 -10.17823
O     7.92402   4.25868 -11.22298
C     7.00408   3.71913 -12.02993
O     5.80830   3.88569 -11.91231
N     7.53686   2.91607 -13.05241
N     8.83671   2.66663 -12.95522
N     9.46141   2.10368 -13.95001
C     9.00129   0.88787 -14.51143
C     7.72281   0.31674 -14.36668
C     7.44534  -0.91512 -14.96222
C     8.41376  -1.58261 -15.71962
C     9.68336  -1.01534 -15.86909
C     9.97519   0.20454 -15.26423
C     8.73185   3.47136 -15.43015
C     7.73199   3.97391 -14.86815
C     6.66330   4.97931 -14.98918
F     6.64528   5.79979 -13.87676
F     5.43790   4.34973 -14.99620
C     6.79196   5.85948 -16.22384
C     6.93632   5.07057 -17.53676
C     8.32660   5.09995 -18.19560
C     9.56947   4.80997 -17.34546
C     9.63090   3.44534 -16.60249
C     9.36116   2.27686 -17.54343
C    10.40459   1.81630 -18.35960
C    10.19831   0.76961 -19.26114
C     8.93992   0.16647 -19.35994
C     7.89382   0.62192 -18.55231
C     8.10333   1.67032 -17.65277
H     8.32972   5.43952  -9.62059
H     6.92700   5.98557 -10.61228
H     6.75512   4.56923  -9.51882
H     9.40341   3.38357 -12.48476
H     6.95362   0.84228 -13.80719
H     6.45094  -1.35199 -14.84256
H     8.17816  -2.53802 -16.19370
H    10.44885  -1.52375 -16.45914
H    10.96421   0.65378 -15.36235
H     5.88912   6.48915 -16.23047
H     7.64962   6.52755 -16.05595
H     6.22238   5.47548 -18.27012
H     6.61768   4.03131 -17.36982
H     8.47763   6.10203 -18.63294
H     8.30563   4.40120 -19.04826
H    10.44493   4.85305 -18.01365
H     9.71509   5.60399 -16.59555
H    10.66142   3.32898 -16.23291
H    11.39310   2.27547 -18.27452
H    11.02523   0.41785 -19.88301
H     8.77814  -0.65802 -20.05831
H     6.90968   0.15125 -18.61260
H     7.28712   1.99727 -17.00765
