37
Generated by autodE on: 2022-10-21. E = -879.831407 Ha
C     0.59502  -2.58476  -1.87910
O    -0.26472  -1.46928  -1.69309
C    -0.07639  -0.70372  -0.53204
C    -0.29490  -1.51136   0.80726
C    -1.60937  -2.26203   0.67823
C    -2.56103  -1.32965   0.80683
C    -1.81492  -0.01526   0.98622
O    -0.64038  -0.44206   1.69570
C    -1.22001   0.37703  -0.41412
C    -2.25152   0.37621  -1.53426
C    -0.44921   1.72399  -0.41580
C    -1.04551   2.74995   0.44901
N    -1.51556   3.56799   1.12451
N     0.92945   1.44259  -0.03733
C     1.85288   2.48527  -0.45809
C     1.25446   0.12284  -0.56076
C     2.41815  -0.52959   0.19320
C     2.64750  -0.15314   1.62905
O     3.12970  -1.34137  -0.37681
H     0.22900  -3.11780  -2.76749
H     0.56849  -3.27485  -1.01843
H     1.63741  -2.27353  -2.04632
H     0.56721  -2.07627   1.17607
H    -1.71230  -3.32274   0.45181
H    -3.64112  -1.43551   0.71051
H    -2.33094   0.79211   1.51689
H    -2.99186   1.17224  -1.35335
H    -2.78099  -0.58179  -1.60043
H    -1.77159   0.56988  -2.50356
H    -0.50021   2.13497  -1.44572
H     1.57605   3.44288   0.00790
H     2.87719   2.24401  -0.14141
H     1.85426   2.62178  -1.55955
H     1.55450   0.16941  -1.62635
H     1.70145  -0.08228   2.18105
H     3.11267   0.84556   1.66951
H     3.32750  -0.87982   2.09283
