17
Generated by autodE on: 2022-10-26. E = -418.320524 Ha
C     2.34331  -2.37700  -0.72653
C     1.33334  -1.60151   0.09569
O     1.09537  -1.92806   1.26937
C     0.71397  -0.51004  -0.61088
N    -0.22478   0.32730  -0.12714
C    -0.71541   0.16907   1.25940
C    -0.73444   1.31586  -0.88282
C    -1.70446   2.21623  -0.42430
N    -2.51368   2.99963  -0.10357
H     1.83986  -2.88477  -1.56601
H     2.83352  -3.12693  -0.09191
H     3.10052  -1.70508  -1.16085
H     1.01414  -0.31872  -1.64124
H    -1.46980   0.93386   1.46235
H     0.12728   0.27162   1.95029
H    -1.14513  -0.83106   1.37376
H    -0.36504   1.41629  -1.90427
