39
Generated by autodE on: 2022-05-29. E = -1084.616936 Ha
C    -4.65535  -0.84590   0.86355
N    -3.21968  -0.80997   0.66352
C    -2.65250  -0.04893  -0.28044
O    -3.27699   0.69601  -1.04115
C    -1.14533  -0.15551  -0.38763
N    -0.41560  -0.78439   0.73331
C     0.88155  -0.71068   0.06987
C     2.00492  -1.36527   0.85029
O     2.21571  -1.00078   2.01148
N     2.71453  -2.29949   0.21141
C     3.81941  -2.98855   0.85194
O     0.59814  -1.42562  -1.16845
C    -0.67426  -1.09353  -1.50285
O    -1.22562  -1.47620  -2.49818
C     1.09422   0.79011  -0.35301
C     2.12808   0.93149  -1.46118
C     1.36282   1.75760   0.86223
C     1.43826   3.16597   0.28428
C     0.17625   3.49447  -0.02055
C    -0.66201   2.29154   0.38233
O     0.08008   1.79221   1.51508
C    -0.39257   1.18171  -0.68045
H    -4.87258  -1.38081   1.79588
H    -5.05863   0.17488   0.93414
H    -5.16724  -1.35793   0.03229
H    -2.61833  -1.42695   1.20115
H    -0.39720  -0.13155   1.52264
H     2.43549  -2.56022  -0.72909
H     4.33176  -3.60703   0.10575
H     3.46718  -3.63579   1.67109
H     4.53465  -2.26572   1.27161
H     2.15567   1.96228  -1.83807
H     1.90329   0.26806  -2.30649
H     3.13165   0.67818  -1.08344
H     2.15135   1.43556   1.54778
H     2.35573   3.72015   0.08908
H    -0.20010   4.38148  -0.53002
H    -1.71389   2.45917   0.63706
H    -0.56190   1.53040  -1.70466
