16
Generated by autodE on: 2022-05-29. E = -346.852369 Ha
C    -2.52582  -0.13207   0.35813
C    -1.07235  -0.32111   0.11441
C    -0.19292  -1.22492   0.56539
C     1.17770  -0.75966   0.02524
C     1.54135   0.55423   0.75925
C     0.66787   1.45596   0.30033
C    -0.20730   0.67531  -0.70690
O     0.77516  -0.22545  -1.25531
H    -3.08960  -0.10012  -0.59030
H    -2.94247  -0.93177   0.98796
H    -2.70656   0.83563   0.86035
H    -0.35402  -2.06658   1.23866
H     1.96649  -1.51407  -0.07341
H     2.30778   0.65459   1.52761
H     0.52288   2.49699   0.58783
H    -0.72265   1.25179  -1.48407
