23
Generated by autodE on: 2022-07-26. E = -737.710950 Ha
C     4.68394  -1.14193   1.00344
N     3.42549  -0.82839   0.35375
C     2.31705  -0.58188   1.06449
O     2.24234  -0.59219   2.29684
C     1.10578  -0.27563   0.27098
N    -0.06912  -0.00477   0.78872
C    -0.98993   0.23914  -0.20666
C    -2.37850   0.56858   0.10013
O    -2.76689   0.62708   1.27877
N    -3.16581   0.79568  -0.97524
C    -4.57051   1.12792  -0.87776
C    -0.31379   0.10458  -1.43952
O    -0.61284   0.20411  -2.61609
O     1.04303  -0.23175  -1.05530
H     4.99700  -0.32356   1.67017
H     4.59927  -2.05976   1.60600
H     5.45049  -1.28918   0.23416
H     3.37921  -0.79508  -0.66054
H    -0.26818   0.02151   1.79116
H    -2.74197   0.71594  -1.89651
H    -5.19964   0.34957  -1.33938
H    -4.84154   1.21486   0.18097
H    -4.78558   2.08555  -1.37765
