23
Generated by autodE on: 2022-05-29. E = -737.702733 Ha
C     4.50031  -1.52140  -0.89107
N     3.20683  -0.86858  -0.86149
C     2.24521  -1.18247   0.01844
O     2.30701  -2.04804   0.89583
C     1.00063  -0.38593  -0.11053
N    -0.04936  -0.53262   0.65586
C    -1.05920   0.33982   0.28677
C    -2.25811   0.38068   1.12893
O    -2.20804  -0.13281   2.26258
N    -3.38624   0.96094   0.66354
C    -3.72666   1.28120  -0.71279
C    -0.55127   1.12263  -0.78149
O    -0.91186   2.05571  -1.46787
O     0.78767   0.57063  -0.99983
H     4.69601  -1.94312  -1.88834
H     4.50792  -2.33066  -0.15209
H     5.30425  -0.80884  -0.64919
H     3.02250  -0.12299  -1.52790
H    -0.11240  -1.19297   1.43311
H    -4.14175   0.96962   1.34337
H    -3.46676   2.31390  -0.98645
H    -4.80987   1.15002  -0.83907
H    -3.21875   0.60009  -1.40864
