39
Generated by autodE on: 2022-05-29. E = -1084.555773 Ha. Imaginary frequency = -357.9 cm-1
C    -4.89604   0.00997  -0.91035
N    -3.51334  -0.41491  -0.98863
C    -2.69476  -0.35586   0.07812
O    -3.05039   0.03785   1.19930
C    -1.30082  -0.74684  -0.17467
N    -0.39173  -0.92771   0.83257
C     0.81708  -1.06974   0.23115
C     2.03516  -1.40547   1.00817
O     2.11391  -1.04976   2.19044
N     3.00517  -2.04866   0.34303
C     4.28417  -2.33959   0.96371
O     0.59878  -1.60889  -1.01347
C    -0.72706  -1.33017  -1.36056
O    -1.16426  -1.55997  -2.47266
C     1.11312   0.99098  -0.48327
C     2.25751   0.82527  -1.43839
C     1.28767   1.82499   0.81582
C     1.28578   3.30750   0.39100
C     0.02521   3.55906   0.01755
C    -0.72876   2.22986   0.22816
O    -0.03150   1.71430   1.38178
C    -0.20530   1.27510  -0.85999
H    -5.37341  -0.15737  -1.88324
H    -5.44541  -0.55838  -0.14341
H    -4.97334   1.07980  -0.65741
H    -3.13487  -0.76428  -1.86651
H    -0.46438  -0.39387   1.69994
H     2.85896  -2.27709  -0.63559
H     4.15168  -2.95600   1.86590
H     4.90743  -2.88688   0.24693
H     4.80325  -1.41270   1.25547
H     1.95926   0.25374  -2.32853
H     3.12018   0.32545  -0.97356
H     2.59749   1.82105  -1.77551
H     2.05947   1.49285   1.51786
H     2.15980   3.95755   0.36388
H    -0.40648   4.46421  -0.40894
H    -1.80852   2.28146   0.39924
H    -0.58572   1.27571  -1.88115
