22
Generated by autodE on: 2022-07-27. E = -513.082485 Ha
C    -1.89901  -1.42251   2.56905
N    -0.91799  -1.43328   1.50428
C    -0.57354  -0.28337   0.85125
O    -1.25016   0.75705   0.99260
C     0.60414  -0.34356   0.00227
C     1.57079  -1.34692   0.13533
N     2.37129  -2.19839   0.25650
N     0.95485   0.77242  -0.78651
C     0.19023   1.46129  -1.59182
C     0.72972   2.71025  -2.19153
C    -1.18217   1.01307  -1.92094
H    -2.84757  -0.98741   2.22133
H    -2.08917  -2.45551   2.88796
H    -1.56716  -0.84235   3.44903
H    -0.28880  -2.22684   1.44804
H     1.92095   1.10072  -0.70158
H     1.78316   2.87838  -1.92680
H     0.13262   3.56914  -1.83933
H     0.61832   2.67513  -3.28688
H    -1.89408   1.39185  -1.16991
H    -1.24379  -0.08659  -1.88953
H    -1.47372   1.39078  -2.91027
