45
Generated by autodE on: 2022-06-18. E = -864.577564 Ha. Imaginary frequency = -410.3 cm-1
C    -3.38470  -1.51155   3.43575
N    -2.26498  -1.30424   2.53881
C    -1.96539  -0.08246   2.05102
O    -2.62552   0.92387   2.33042
C    -0.73177  -0.01579   1.18782
C     0.43112  -0.55295   1.81390
N     1.37279  -1.04703   2.29499
C    -1.00105  -1.38780  -0.47541
C    -0.84539  -0.61885  -1.65089
C    -1.95341  -0.60402  -2.68525
C     0.48619  -0.28116  -2.13628
C     1.66025  -0.38987  -1.45696
C     2.93315   0.05816  -1.98568
C     4.14107   0.01842  -1.36826
C     4.36289  -0.51230   0.02129
C     5.37862   0.52484  -2.05603
C    -1.25071   1.48450  -0.62441
C    -0.68303   2.54598  -1.51249
C    -2.74293   1.38713  -0.57986
N    -0.49647   1.14389   0.44517
H    -3.34308  -0.80616   4.27925
H    -4.35142  -1.37107   2.92377
H    -3.34113  -2.53516   3.82787
H    -1.75054  -2.11093   2.20068
H    -1.98989  -1.80081  -0.26097
H    -0.17350  -2.00671  -0.12257
H    -1.99359   0.34559  -3.24321
H    -2.93853  -0.78158  -2.23317
H    -1.79044  -1.40408  -3.42976
H     0.52420   0.17091  -3.13520
H     1.66102  -0.83767  -0.46065
H     2.90022   0.47924  -2.99871
H     3.44764  -0.86664   0.51305
H     5.08955  -1.34469   0.00578
H     4.80985   0.26801   0.66352
H     5.85121   1.33718  -1.47395
H     5.16651   0.90337  -3.06719
H     6.14037  -0.27215  -2.13761
H     0.41634   2.54974  -1.49813
H    -1.04250   3.54254  -1.19943
H    -1.02659   2.38833  -2.54557
H    -3.13101   2.17121   0.09324
H    -3.11163   0.42520  -0.20944
H    -3.15563   1.56725  -1.57949
H     0.49250   1.35984   0.32538
