48
Generated by autodE on: 2022-06-12. E = -6332.703979 Ha
C    -0.58680  -1.57368  -3.27219
N    -0.25929  -0.51236  -2.34213
C    -1.11123   0.47232  -2.03132
O    -2.22610   0.60721  -2.53684
C    -0.56361   1.53010  -1.00298
C     0.18394   2.45008  -1.99384
O     1.26887   2.17370  -2.48261
O    -0.51356   3.52735  -2.32693
C     0.06238   4.39423  -3.32025
C    -1.72021   2.29780  -0.30741
C    -2.31385   1.68684   0.96035
C    -3.03552   0.34358   0.84214
C    -2.22493  -0.89399   0.42681
C    -0.87037  -1.09803   1.08544
Br   -1.15595  -1.25101   3.05984
Br   -0.16671  -2.87638   0.45041
C     0.22457  -0.10713   0.84752
C     0.39764   0.93448   0.00505
C     1.80395   1.48488   0.28935
C     1.89532   2.98996   0.52383
C     2.84026   1.02908  -0.75556
O     3.83526   1.63826  -1.03099
O     2.56137  -0.18188  -1.23857
C     3.47205  -0.72487  -2.20698
N     2.18469   0.79674   1.54793
O     1.32975  -0.35247   1.63529
H    -0.30671  -1.31321  -4.30677
H    -0.04955  -2.48633  -2.98210
H    -1.66690  -1.77122  -3.24629
H     0.66266  -0.51046  -1.90831
H     1.01974   4.79749  -2.96172
H    -0.66280   5.20213  -3.46705
H     0.22078   3.84274  -4.25750
H    -2.50678   2.45458  -1.05728
H    -1.32825   3.28873  -0.04206
H    -3.05076   2.41496   1.33637
H    -1.54244   1.62803   1.74397
H    -3.50297   0.13258   1.81608
H    -3.85843   0.43098   0.11424
H    -2.82382  -1.78678   0.65263
H    -2.07315  -0.92620  -0.65527
H     2.88130   3.23392   0.94516
H     1.78505   3.56398  -0.40311
H     1.11575   3.29975   1.23387
H     3.50557  -0.07671  -3.09425
H     4.47851  -0.81867  -1.77599
H     3.07513  -1.71190  -2.47071
H     1.85449   1.39045   2.31761
