15
Generated by autodE on: 2022-07-27. E = -437.214537 Ha
C    -0.00820  -2.67076  -0.10084
O    -0.01731  -1.30702   0.34746
C     0.03144  -0.37430  -0.60432
O     0.08351  -0.63351  -1.79634
C     0.02325   1.02547  -0.13019
C     0.11023   2.10457  -1.15824
N    -0.06166   1.36477   1.14057
O    -0.15031   0.65108   2.17358
H    -0.88445  -2.87428  -0.73338
H     0.90862  -2.88381  -0.66944
H    -0.04399  -3.28424   0.80666
H    -0.73629   2.04084  -1.86013
H     1.03356   2.00327  -1.75010
H     0.10172   3.09784  -0.68697
H    -0.05480   2.39016   1.29581
