48
Generated by autodE on: 2022-06-12. E = -6332.625955 Ha. Imaginary frequency = -279.7 cm-1
C     0.65185  -0.62919  -5.22422
N     0.17536   0.26434  -4.18673
C    -0.11392  -0.18804  -2.96562
O    -0.07477  -1.38563  -2.66175
C    -0.59027   0.82530  -1.88832
C    -0.32046   2.30310  -2.19819
O    -0.31863   2.79560  -3.31208
O    -0.16364   3.02123  -1.09436
C     0.03547   4.43648  -1.25166
C    -2.16066   0.67118  -1.81690
C    -2.80023   1.16373  -0.50712
C    -3.29882   0.05519   0.43271
C    -2.34751  -1.08862   0.81336
C    -1.00977  -0.71698   1.46429
Br   -0.14253  -2.43661   2.04279
Br   -1.32652   0.38510   3.10121
C    -0.12948  -0.02681   0.54376
C     0.02543   0.43764  -0.60232
C     2.39487   0.94005  -0.43831
C     2.86377   2.13369  -1.20630
C     2.62410  -0.38230  -1.08862
O     2.85389  -0.45792  -2.28550
O     2.60326  -1.42823  -0.27506
C     2.70542  -2.72203  -0.88260
N     2.18575   1.08023   0.86898
O     1.57054   0.20786   1.57254
H     1.60155  -1.10217  -4.92747
H    -0.07760  -1.42841  -5.42757
H     0.81317  -0.05256  -6.14302
H     0.09671   1.26647  -4.35176
H     0.92372   4.62831  -1.86862
H     0.17918   4.83038  -0.23966
H    -0.84762   4.89299  -1.72026
H    -2.37522  -0.39618  -1.96691
H    -2.57388   1.20042  -2.68817
H    -3.67045   1.79140  -0.75423
H    -2.10544   1.82576   0.02890
H    -3.67538   0.52571   1.35439
H    -4.16809  -0.43591  -0.03658
H    -2.08253  -1.67804  -0.07863
H    -2.88206  -1.76497   1.49562
H     2.63293   3.06414  -0.67156
H     2.38405   2.15823  -2.19367
H     3.95059   2.07531  -1.38192
H     1.88609  -2.86421  -1.60089
H     2.62112  -3.44438  -0.06302
H     3.67111  -2.83816  -1.39583
H     2.15384   2.05213   1.20835
