23
Generated by autodE on: 2022-06-18. E = -351.521382 Ha
C     3.38716  -0.92907  -1.40108
C     2.48621  -0.52859  -0.47711
C     2.90234  -0.21032   0.93632
C     1.07658  -0.39823  -0.84071
C     0.07747  -0.01105  -0.00840
C    -1.30671   0.10059  -0.42127
C    -2.36119   0.47327   0.34740
C    -3.74693   0.54203  -0.22943
C    -2.26422   0.84282   1.80038
H     4.44764  -1.03536  -1.15618
H     3.08195  -1.15985  -2.42641
H     3.98413  -0.34808   1.07366
H     2.37650  -0.85511   1.66006
H     2.64905   0.82987   1.20056
H     0.82587  -0.63969  -1.88073
H     0.31937   0.23052   1.03013
H    -1.50875  -0.14652  -1.47057
H    -4.16273   1.56072  -0.12802
H    -3.76949   0.26139  -1.29265
H    -4.43451  -0.12369   0.32272
H    -2.90967   0.18250   2.40624
H    -2.64185   1.86837   1.95957
H    -1.24498   0.78751   2.20370
