23
Generated by autodE on: 2022-06-18. E = -479.948674 Ha
C     3.04702   1.51514   0.17303
N     1.77467   0.90155  -0.13453
C     1.36414  -0.22869   0.53476
O     2.18601  -0.87089   1.23898
C     0.00446  -0.66302   0.36036
C    -0.58659  -1.78124   1.15168
O    -0.75294   0.22375  -0.33622
C    -1.95703   0.24235  -0.78795
C    -2.85989  -0.93919  -0.75312
C    -2.35164   1.49737  -1.47987
H     3.86545   0.78688   0.07428
H     3.09483   1.92747   1.19882
H     3.23057   2.33558  -0.53393
H     1.05515   1.48830  -0.54027
H     0.23243  -2.23718   1.72306
H    -1.05646  -2.57856   0.55442
H    -1.34013  -1.42285   1.87750
H    -3.08953  -1.28327   0.26589
H    -2.39010  -1.78344  -1.28842
H    -3.80307  -0.69002  -1.25616
H    -2.63806   1.28781  -2.52658
H    -3.24173   1.93960  -0.99752
H    -1.53436   2.23095  -1.46522
