46
Generated by autodE on: 2022-06-18. E = -831.472271 Ha. Imaginary frequency = -293.0 cm-1
C     5.44160  -0.80051   0.52676
C     4.23998  -0.24782   0.81612
C     3.93790   0.25218   2.20776
C     3.20579  -0.12729  -0.20535
C     1.97156   0.41791  -0.01618
C     0.94975   0.51834  -1.02508
C     0.02746  -1.72465  -0.09497
C     0.71571  -2.15408   1.15350
C     0.38478  -2.44607  -1.35153
O    -1.09189  -1.08835   0.12641
C    -1.87831  -0.34663  -0.68847
C    -2.21184  -0.80583  -2.07475
C    -2.88348   0.40721   0.06351
O    -3.71390   1.13624  -0.52297
N    -2.85887   0.31717   1.42158
C    -3.57866   1.25874   2.25159
C    -0.18218   1.33160  -0.94769
C    -0.75461   1.92409  -2.21034
C    -0.44474   2.13770   0.30239
H     6.22211  -0.90087   1.28606
H     5.66871  -1.16733  -0.47934
H     3.06402  -0.26681   2.63560
H     3.69138   1.32703   2.20060
H     4.79341   0.10017   2.88106
H     3.45970  -0.51595  -1.19904
H     1.72523   0.81125   0.97392
H     1.20801   0.12101  -2.01207
H     0.48112  -3.21175   1.37640
H     0.41608  -1.53292   2.00829
H     1.80618  -2.08767   1.01943
H     0.10189  -3.51166  -1.25033
H    -0.07516  -2.04473  -2.25524
H     1.47954  -2.42171  -1.46710
H    -3.08784  -0.24352  -2.42020
H    -2.47354  -1.87865  -2.07594
H    -1.40751  -0.65300  -2.80587
H    -2.07514  -0.17655   1.83308
H    -4.60578   1.38386   1.88239
H    -3.10101   2.25556   2.26939
H    -3.62074   0.87780   3.28080
H    -0.28498   2.90872  -2.39376
H    -0.55438   1.29914  -3.09204
H    -1.83840   2.09491  -2.13036
H     0.28850   2.96065   0.38292
H    -1.44309   2.59635   0.27730
H    -0.36448   1.53649   1.21851
