39
Generated by autodE on: 2022-06-17. E = -823.824748 Ha
C     3.24461   2.79986   0.68749
C     4.05859   1.55328   0.48348
C     5.50324   1.67179   0.88052
C     3.56964   0.39112  -0.01341
C     2.20215   0.13203  -0.43059
C     1.78762  -1.05429  -0.91768
C     0.37574  -1.42368  -1.33200
C     0.39428  -2.29378  -2.59227
C    -0.59715  -0.22713  -1.45080
N    -1.34736  -0.27128  -0.18604
C    -2.29550   0.67139   0.21819
C    -3.00251   0.51148   1.42591
C    -3.93845   1.46808   1.81293
C    -4.18790   2.59329   1.01705
C    -3.48427   2.74820  -0.17997
C    -2.54346   1.79883  -0.58601
N    -1.17295  -1.41427   0.47514
C    -0.26970  -2.12935  -0.13004
C     0.12767  -3.39563   0.36034
N     0.48667  -4.44806   0.71275
H     3.68589   3.63984   0.12272
H     3.26740   3.10022   1.74989
H     2.19479   2.69785   0.38399
H     5.59423   1.94769   1.94639
H     6.05827   0.73684   0.71442
H     5.99971   2.47906   0.31280
H     4.26426  -0.45105  -0.11504
H     1.48706   0.95385  -0.33679
H     2.50741  -1.87841  -0.98927
H     1.02624  -3.18228  -2.43979
H    -0.62118  -2.62753  -2.85260
H     0.80649  -1.72284  -3.43863
H    -0.08697   0.73489  -1.57612
H    -1.29385  -0.35846  -2.29432
H    -2.80908  -0.36093   2.04856
H    -4.47959   1.33177   2.75250
H    -4.92198   3.33925   1.32851
H    -3.66669   3.61877  -0.81455
H    -2.00834   1.93863  -1.52507
