23
Generated by autodE on: 2022-06-17. E = -351.521384 Ha
C     3.50974  -0.90171   1.07951
C     2.32748  -1.03721   0.43941
C     2.04667  -2.22566  -0.44424
C     1.29122  -0.01879   0.59748
C     0.06811  -0.03669   0.01055
C    -0.92403   1.00169   0.20097
C    -2.16322   1.05698  -0.34946
C    -2.72678   0.01698  -1.27570
C    -3.08491   2.20685  -0.05613
H     4.30238  -1.64836   0.97887
H     3.71065  -0.03766   1.72044
H     1.81905  -1.90914  -1.47573
H     2.90552  -2.91086  -0.47477
H     1.16760  -2.78750  -0.08709
H     1.54478   0.82483   1.25074
H    -0.19268  -0.87400  -0.64249
H    -0.62759   1.82464   0.86259
H    -2.03933  -0.81499  -1.47567
H    -3.00250   0.47526  -2.24195
H    -3.66010  -0.40080  -0.85852
H    -3.37143   2.72656  -0.98814
H    -4.02775   1.84761   0.39425
H    -2.63098   2.94066   0.62601
