39
Generated by autodE on: 2022-06-17. E = -823.723323 Ha. Imaginary frequency = -348.8 cm-1
C     5.01231  -2.78300   0.32676
C     4.74167  -1.40926   0.87235
C     5.75381  -0.91455   1.86720
C     3.67700  -0.64404   0.52432
C     2.62249  -0.98572  -0.40984
C     1.58029  -0.16506  -0.68786
C     0.48407  -0.46014  -1.61722
C     0.52673  -1.74565  -2.41505
C    -0.36460   0.56187  -2.00246
N    -2.28400   0.37212  -0.63372
C    -2.81693   1.54886  -0.09343
C    -2.82820   1.82500   1.28671
C    -3.35346   3.03319   1.74291
C    -3.85875   3.97572   0.83911
C    -3.84138   3.69957  -0.53328
C    -3.32933   2.49092  -1.00239
N    -1.83374  -0.52857   0.10550
C    -0.87015  -1.28195   0.16430
C    -0.43683  -2.46704   0.70813
N     0.07769  -3.44518   1.09737
H     4.26016  -3.12715  -0.39477
H     5.05987  -3.51859   1.14933
H     6.00018  -2.81229  -0.16637
H     5.81863  -1.59741   2.73360
H     6.76458  -0.89210   1.42119
H     5.51498   0.09357   2.23695
H     3.58794   0.34189   0.99673
H     2.67513  -1.95815  -0.90621
H     1.52608   0.80763  -0.18518
H     1.35427  -1.70874  -3.14419
H    -0.41092  -1.89528  -2.96874
H     0.70082  -2.62991  -1.78443
H    -0.23553   1.57112  -1.60622
H    -1.02187   0.44536  -2.86438
H    -2.43251   1.08853   1.98882
H    -3.36626   3.24199   2.81530
H    -4.26598   4.92116   1.20375
H    -4.23428   4.43029  -1.24393
H    -3.31164   2.26185  -2.06946
