51
Generated by autodE on: 2022-06-23. E = -1171.489253 Ha
C     0.03125  -0.16346  -3.36814
O    -0.72103  -0.09969  -2.14504
C    -1.11287  -1.25643  -1.62864
O    -0.90194  -2.33591  -2.14132
C    -1.88536  -1.11770  -0.30661
C    -3.37671  -1.32898  -0.60963
O    -4.16280  -1.84626   0.15145
O    -3.70553  -0.82812  -1.79727
C    -5.08854  -0.90831  -2.18330
C    -1.35182  -2.09257   0.75014
C    -0.30939  -1.23460   1.51366
C    -0.25641  -1.63655   2.99457
C     1.04994  -1.39489   0.85926
C     1.64126  -0.52877   0.01432
C     2.90845  -0.78177  -0.65066
C     3.52518   0.02613  -1.54679
C     2.98871   1.35300  -2.00620
C     4.83448  -0.37202  -2.16845
C    -0.90333   0.15923   1.25954
C    -0.56083   1.36491   2.04319
C    -1.49416   2.41407   2.14445
C    -1.19135   3.56726   2.86652
C     0.05363   3.69693   3.49296
C     0.99068   2.66453   3.39342
C     0.68619   1.50373   2.67943
N    -1.74264   0.22451   0.28623
H    -0.56850  -0.63601  -4.15890
H     0.95646  -0.73532  -3.21294
H     0.26220   0.87376  -3.63259
H    -5.41217  -1.95801  -2.21891
H    -5.14909  -0.45541  -3.17910
H    -5.71338  -0.35219  -1.47027
H    -0.93422  -3.00901   0.31717
H    -2.17680  -2.36000   1.42365
H    -0.02113  -2.70948   3.07311
H     0.51149  -1.08168   3.55011
H    -1.23001  -1.46385   3.47835
H     1.54284  -2.35000   1.07853
H     1.14131   0.41756  -0.20535
H     3.39692  -1.73070  -0.39910
H     3.71226   2.15556  -1.77829
H     2.02558   1.62284  -1.55529
H     2.86515   1.35381  -3.10300
H     4.74448  -0.42480  -3.26826
H     5.61243   0.38466  -1.96176
H     5.19003  -1.34611  -1.80171
H    -2.46373   2.30827   1.65640
H    -1.92965   4.36883   2.94365
H     0.29181   4.60124   4.05793
H     1.96699   2.76198   3.87354
H     1.43377   0.71578   2.59574
