28
Generated by autodE on: 2022-06-23. E = -819.896217 Ha
C    -2.14326   2.85811  -2.09881
O    -1.52071   1.84026  -1.31168
C    -2.32643   1.15804  -0.46074
O    -3.52305   1.39304  -0.36284
C    -1.59038   0.15568   0.28385
N    -0.26724   0.03144   0.04997
C     0.87206  -0.07759  -0.15153
C     2.25730  -0.21501  -0.39959
C     2.92182  -1.39479  -0.00165
C     4.28676  -1.51595  -0.24688
C     4.98390  -0.48669  -0.89071
C     4.31776   0.67842  -1.28897
C     2.95583   0.82879  -1.04312
C    -2.19581  -0.72309   1.26459
O    -3.37625  -0.74067   1.58459
O    -1.28369  -1.56229   1.81438
C    -1.77345  -2.47649   2.79807
H    -2.58864   3.63359  -1.45766
H    -2.92590   2.43221  -2.74447
H    -1.34736   3.29424  -2.71459
H     2.36359  -2.19108   0.49265
H     4.81019  -2.42300   0.06183
H     6.05350  -0.59338  -1.08362
H     4.86503   1.47874  -1.79090
H     2.42404   1.73349  -1.34134
H    -2.20663  -1.93799   3.65427
H    -0.90616  -3.06269   3.12522
H    -2.53654  -3.14349   2.36957
