43
Generated by autodE on: 2022-05-30. E = -1202.269491 Ha
C     3.68139   1.22140   0.91277
O     2.44240   1.03980   0.20782
C     2.04927  -0.20988   0.01046
O     2.70438  -1.18296   0.31670
C     0.66468  -0.29804  -0.69647
C     0.76264  -1.63956  -1.46712
C     1.38146  -1.58465  -2.83319
O     0.40601  -2.67746  -0.94936
N     0.58346   0.85398  -1.58787
C    -0.23552   1.72130  -1.12676
C    -0.39394   3.07329  -1.73703
C    -1.06142   1.30759   0.07603
C    -0.90342   2.29146   1.23937
C    -2.57483   1.14055  -0.32557
C    -2.71308   0.58821  -1.75717
C    -2.17223  -0.86118  -1.61094
C    -1.86211  -0.99373  -0.09972
C    -2.98167  -0.09844   0.48049
C    -0.57379  -0.18924   0.29833
C    -0.17857  -0.58377   1.73059
F     0.23262  -1.86433   1.78311
F    -1.17555  -0.47727   2.62841
F     0.83380   0.16008   2.23283
H     3.83287   2.30453   0.97782
H     3.61016   0.78277   1.91835
H     4.50693   0.74989   0.36165
H     2.35640  -1.07468  -2.79025
H     0.74658  -0.99089  -3.50771
H     1.50051  -2.60344  -3.22350
H     0.11614   3.81478  -1.09893
H     0.05932   3.10715  -2.73640
H    -1.45139   3.37080  -1.79324
H     0.14743   2.40246   1.53744
H    -1.28144   3.27815   0.93499
H    -1.48220   1.96889   2.11557
H    -3.14653   2.05848  -0.13768
H    -2.17534   1.16773  -2.51805
H    -3.77510   0.58915  -2.04293
H    -2.93611  -1.60544  -1.87727
H    -1.31721  -1.04981  -2.26876
H    -1.83413  -2.03177   0.24677
H    -2.95247   0.04111   1.56385
H    -3.97963  -0.46897   0.20133
