20
Generated by autodE on: 2022-05-30. E = -552.814558 Ha
C     3.10209  -1.93066   1.01986
C     1.98094  -1.12123   0.61359
N     1.07310  -0.48271   0.28662
C     0.08527   0.35929  -0.12430
C     0.54237   1.66051  -0.56217
C    -0.47482   2.67166  -1.03557
O     1.75096   1.94365  -0.54843
C    -1.27398  -0.13029  -0.07797
O    -2.27798   0.49074  -0.40943
O    -1.34187  -1.40351   0.38945
C    -2.64633  -1.98071   0.47231
H     3.13403  -2.85764   0.42647
H     4.02395  -1.35543   0.83725
H     3.03220  -2.17040   2.09223
H     0.05742   3.58423  -1.33586
H    -1.05691   2.28046  -1.88298
H    -1.19644   2.90574  -0.23855
H    -2.50508  -2.99440   0.86690
H    -3.29162  -1.40207   1.15036
H    -3.12017  -2.02858  -0.51975
