43
Generated by autodE on: 2022-05-30. E = -1202.184394 Ha. Imaginary frequency = -422.5 cm-1
C     3.56368   1.17735   1.56482
O     2.64314   1.05485   0.47543
C     2.36719  -0.19582   0.06334
O     2.91418  -1.18007   0.53228
C     1.35031  -0.21122  -0.99919
C     1.11532  -1.35164  -1.89788
C     1.52394  -2.73286  -1.46301
O     0.56482  -1.16578  -2.98639
N     0.87303   0.97063  -1.40549
C    -0.00197   1.78872  -1.27585
C    -0.32562   3.12383  -1.80604
C    -1.29337   1.16895   0.24816
C    -0.91848   2.29543   1.19488
C    -2.68883   1.18666  -0.42750
C    -2.64215   0.52479  -1.82994
C    -2.37230  -0.97038  -1.50639
C    -2.28714  -0.97574   0.03710
C    -3.38560   0.06546   0.38523
C    -1.06254  -0.18881   0.52509
C    -0.38118  -0.72024   1.73009
F    -1.25601  -0.82146   2.77687
F     0.63711   0.03537   2.18985
F     0.10288  -1.97386   1.56162
H     3.18537   0.64821   2.45122
H     4.54792   0.77048   1.29027
H     3.64444   2.25088   1.77194
H     1.12558  -2.96244  -0.46538
H     2.61992  -2.80443  -1.39525
H     1.15040  -3.45459  -2.20135
H     0.24833   3.86992  -1.23352
H    -1.39332   3.35112  -1.70442
H    -0.02406   3.18232  -2.86215
H     0.15015   2.29270   1.44410
H    -1.17855   3.27432   0.77071
H    -1.48432   2.18179   2.13516
H    -3.15761   2.17901  -0.41279
H    -1.87620   0.95387  -2.48956
H    -3.61238   0.66090  -2.32994
H    -3.21292  -1.60527  -1.82387
H    -1.46690  -1.35285  -1.98470
H    -2.38128  -1.97274   0.48516
H    -3.44154   0.28445   1.46123
H    -4.38679  -0.20130   0.00852
