16
Generated by autodE on: 2022-06-17. E = -563.553549 Ha
C    -3.32619   0.22116   1.08296
C    -1.96016  -0.37932   1.14558
O    -1.63439  -1.27790   1.91180
C    -0.92231   0.14907   0.21491
C    -1.18171   1.18595  -0.70878
N    -1.46077   2.04375  -1.44614
N     0.26200  -0.44510   0.34599
C     1.45008  -0.30909  -0.25892
C     2.52235  -1.13950   0.15836
N     3.41545  -1.81128   0.48629
C     1.67828   0.62422  -1.30157
N     1.91816   1.37179  -2.16159
H    -3.98032  -0.26138   1.81891
H    -3.26777   1.30417   1.28007
H    -3.74162   0.10000   0.06918
H     0.20384  -1.16655   1.09156
