14
Generated by autodE on: 2022-06-17. E = -270.687340 Ha
C    -1.10098  -1.32886  -0.91441
C    -0.68752   0.09510  -0.69060
C    -1.41336   1.09969  -1.53288
C     0.26230   0.50222   0.19223
C     1.03485  -0.36181   1.06726
O     1.88532   0.05392   1.85071
H    -2.17975  -1.43387  -0.70793
H    -0.55614  -2.05955  -0.30572
H    -0.96587  -1.58687  -1.97846
H    -1.26737   0.87272  -2.60321
H    -2.49995   1.03189  -1.35069
H    -1.08152   2.12860  -1.33689
H     0.49098   1.56978   0.27920
H     0.82998  -1.45435   1.00990
