30
Generated by autodE on: 2022-06-17. E = -834.208925 Ha. Imaginary frequency = -370.1 cm-1
C     2.86582   1.98500  -0.33916
C     2.12657   0.70999  -0.05189
O     2.37906   0.00339   0.91301
C     1.07305   0.30267  -1.01680
C     1.18264   0.83541  -2.33679
N     1.24798   1.29781  -3.40291
N     0.51713  -0.96816  -0.96973
C    -0.22692  -1.42192   0.08936
C    -1.13865  -2.49544  -0.21586
N    -1.91630  -3.32679  -0.44544
C     0.26290  -1.51502   1.44549
N     0.46996  -1.68976   2.57525
C    -1.54129   0.29624   0.21277
C    -2.17102  -0.00215   1.51060
O    -3.17996  -0.68314   1.60895
C    -0.72277   1.44772   0.01066
C    -0.12487   2.15034   1.20224
C    -1.06059   2.33399  -1.15852
H     3.64671   1.76962  -1.08867
H     2.21322   2.76183  -0.76107
H     3.34704   2.34092   0.58056
H     0.13401  -1.27606  -1.86463
H    -2.14770  -0.02673  -0.63936
H    -1.68415   0.41834   2.41565
H     0.32966   1.46228   1.92616
H    -0.92619   2.70527   1.72113
H     0.62197   2.89132   0.89201
H    -0.22072   2.98483  -1.43911
H    -1.89290   2.99294  -0.85157
H    -1.39224   1.76224  -2.03572
