45
Generated by autodE on: 2022-06-03. E = -3791.034624 Ha
C     4.76146   2.35553   0.95715
N     3.91406   1.40086   0.26818
C     2.58073   1.56337   0.20234
O     1.99811   2.53802   0.70087
C     1.78670   0.52727  -0.49258
C     1.90629  -0.80424  -0.64294
Br    3.26158  -1.97882  -0.09598
C     0.56401  -1.29817  -1.17930
O     0.16214  -0.18184  -1.97069
C     0.35787   0.81496  -0.95881
C    -0.57447   0.31993   0.18823
C    -0.40061  -1.22471   0.04645
C    -1.83446  -1.77819  -0.19084
C    -1.94473  -2.97872  -1.13056
C    -2.36748  -2.17391   1.14319
N    -2.80623  -2.43932   2.18477
N    -2.56714  -0.61948  -0.71082
C    -2.09003   0.57896  -0.03295
C    -2.31306   1.85735  -0.86582
O    -2.27230   2.96233  -0.31550
N    -2.50999   1.65570  -2.17096
C    -2.57982   2.73797  -3.13133
C    -2.88162   0.81447   1.27189
O    -4.08175   0.63577   1.31691
O    -2.15054   1.21239   2.30149
C    -2.84289   1.41493   3.54616
H     4.47545   2.44632   2.01666
H     4.68950   3.35497   0.49966
H     5.80099   2.01218   0.89791
H     4.34161   0.59834  -0.17942
H     0.57292  -2.23010  -1.75108
H     0.18116   1.82568  -1.33676
H    -0.24816   0.72858   1.14615
H     0.05161  -1.70245   0.92220
H    -1.61376  -2.68900  -2.13630
H    -1.32901  -3.81432  -0.76787
H    -2.99085  -3.31244  -1.19088
H    -3.57937  -0.72486  -0.62696
H    -2.43444   0.69106  -2.48586
H    -3.15152   2.41232  -4.01015
H    -3.08020   3.60339  -2.67720
H    -1.57490   3.05222  -3.46069
H    -2.08128   1.73697   4.26476
H    -3.30586   0.47239   3.87149
H    -3.61500   2.18834   3.43074
