25
Generated by autodE on: 2022-07-27. E = -701.724170 Ha
C     0.73193   3.61149  -2.12719
N     0.30433   2.60777  -1.17574
C     0.59411   1.30900  -1.34306
O     1.23568   0.88367  -2.32981
C     0.13211   0.34735  -0.31771
N     0.47851  -0.92129  -0.67066
C     0.26740  -2.16872  -0.29662
C     0.94368  -3.27906  -1.04637
C    -0.63200  -2.56319   0.73086
N    -1.36920  -3.06328   1.48330
C    -0.44658   0.74163   0.94545
O    -0.86426   1.87054   1.20566
O    -0.44233  -0.24492   1.85073
C    -1.06772   0.00235   3.11286
H     0.32506   3.41314  -3.13190
H     0.37363   4.59220  -1.79120
H     1.83024   3.64797  -2.21138
H    -0.22355   2.85915  -0.34122
H     1.05018  -0.83271  -1.53646
H     1.62312  -3.83509  -0.37963
H     1.52801  -2.87469  -1.88495
H     0.20192  -3.99425  -1.43582
H    -2.11782   0.29756   2.97294
H    -0.53483   0.79357   3.65980
H    -1.01365  -0.94312   3.66486
