25
Generated by autodE on: 2022-06-03. E = -701.723435 Ha
C    -0.42044   3.97591  -0.86256
N     0.05776   2.67084  -0.45612
C    -0.72717   1.58465  -0.52679
O    -1.91067   1.65097  -0.92957
C    -0.19127   0.26556  -0.11542
N    -1.15402  -0.68914  -0.25000
C    -1.32929  -1.95496   0.07515
C    -2.57853  -2.66206  -0.35979
C    -0.44442  -2.68076   0.91723
N     0.11785  -3.37725   1.66460
C     1.18464  -0.10293   0.13129
O     1.61482  -1.24991   0.09807
O     1.99291   0.95346   0.37537
C     3.39088   0.67551   0.52210
H    -1.31015   4.27425  -0.28548
H    -0.69150   3.99482  -1.93073
H     0.37415   4.71182  -0.68935
H     1.01221   2.54853  -0.13195
H    -1.97446  -0.23510  -0.69910
H    -3.26480  -1.96096  -0.85557
H    -3.08840  -3.11815   0.50308
H    -2.33419  -3.47192  -1.06713
H     3.79480   0.21884  -0.39320
H     3.56236   0.00016   1.37254
H     3.87162   1.64351   0.70507
