20
Generated by autodE on: 2022-06-03. E = -3089.223448 Ha
C     3.71710   1.12611   0.14338
N     2.40420   0.58435  -0.14335
C     1.33856   1.34394  -0.47002
O     1.38337   2.57627  -0.60090
C     0.05167   0.65158  -0.68181
C    -0.53493  -0.43798  -0.15931
Br    0.09587  -1.70685   1.06425
C    -2.01718  -0.38368  -0.61056
C    -2.65818   0.80075   0.15057
C    -2.08920   1.88776  -0.37785
C    -1.10972   1.34682  -1.44252
O    -1.83523   0.19383  -1.90834
H     4.47826   0.67001  -0.50799
H     4.00172   0.94260   1.19188
H     3.69932   2.20755  -0.03359
H     2.27654  -0.41907  -0.06962
H    -2.55923  -1.33451  -0.63888
H    -3.36958   0.70489   0.96967
H    -2.20389   2.93816  -0.11376
H    -0.81454   2.01670  -2.25568
