45
Generated by autodE on: 2022-06-03. E = -3790.950580 Ha. Imaginary frequency = -309.4 cm-1
C     4.99627   2.61638   0.12220
N     4.10342   1.51829  -0.19328
C     2.76626   1.67932  -0.20127
O     2.22620   2.77067   0.03860
C     1.92368   0.50716  -0.50640
C     2.06734  -0.82730  -0.41721
Br    3.53617  -1.87566   0.08255
C     0.65949  -1.42900  -0.64088
O     0.15175  -0.48567  -1.58943
C     0.41316   0.68180  -0.79058
C    -0.32737   0.30995   0.51191
C    -0.16824  -1.05889   0.60474
C    -2.33862  -1.86337  -0.13376
C    -2.14734  -3.03065  -1.06187
C    -2.59307  -2.20480   1.22931
N    -2.73546  -2.62642   2.30665
N    -2.67927  -0.68178  -0.67956
C    -2.58256   0.57700  -0.16423
C    -2.43410   1.60179  -1.23878
O    -2.33485   1.23238  -2.42254
N    -2.36998   2.88819  -0.86337
C    -2.07640   3.94412  -1.81056
C    -3.11645   0.94841   1.15177
O    -2.84936   1.99351   1.73362
O    -3.95179   0.03603   1.64557
C    -4.39808   0.20810   2.99694
H     4.87342   3.44707  -0.59079
H     4.80470   3.00795   1.13374
H     6.03073   2.25646   0.07141
H     4.49983   0.60990  -0.40496
H     0.62229  -2.45938  -1.00748
H     0.14345   1.60684  -1.30485
H    -0.46857   1.01573   1.32770
H    -0.16538  -1.65060   1.51754
H    -3.10437  -3.54347  -1.25689
H    -1.72577  -2.69050  -2.01855
H    -1.46157  -3.76037  -0.61023
H    -2.51899  -0.63438  -1.69525
H    -2.39240   3.08269   0.13590
H    -2.72786   3.86787  -2.69314
H    -2.24804   4.91332  -1.32613
H    -1.02878   3.90352  -2.15469
H    -3.53775   0.23334   3.68108
H    -5.03014  -0.65925   3.21711
H    -4.97617   1.13771   3.09418
