29
Generated by autodE on: 2022-10-07. E = -762.170832 Ha
C    -3.40326   2.74641  -0.22928
N    -2.58687   1.56403  -0.39458
C    -1.30993   1.48979   0.02116
O    -0.70133   2.44989   0.53823
C    -0.60029   0.20020  -0.16200
N     0.70201   0.29645   0.20157
C     1.81367  -0.39133   0.01670
C     1.92561  -1.57826  -0.87023
C     2.97650   0.23249   0.69614
C     4.32451  -0.40901   0.54522
O     2.81723   1.25783   1.36254
C    -1.28937  -1.04357  -0.45171
O    -2.39264  -1.11939  -0.99368
O    -0.65331  -2.12788   0.01729
C    -1.23388  -3.40248  -0.27670
H    -4.07238   2.66775   0.64494
H    -4.02429   2.90368  -1.12288
H    -2.75566   3.62030  -0.08835
H    -2.98847   0.71025  -0.78042
H     0.87405   1.19882   0.69132
H     1.20442  -1.50730  -1.69841
H     2.93845  -1.63835  -1.28843
H     1.72118  -2.52180  -0.34071
H     5.04909   0.10874   1.18577
H     4.28232  -1.47722   0.80974
H     4.65720  -0.35024  -0.50412
H    -0.55404  -4.14968   0.14902
H    -2.22839  -3.49186   0.18366
H    -1.32145  -3.54773  -1.36341
