29
Generated by autodE on: 2022-10-13. E = -762.157219 Ha
C    -2.62901  -0.48789   1.46162
N    -1.81815  -1.50167   0.81756
C    -0.69002  -1.30949   0.10963
O     0.05413  -2.24830  -0.21100
C    -0.38888   0.06806  -0.37684
N     0.88582   0.52455  -0.42190
C     1.99891   0.23443   0.24957
C     3.28181   0.81130  -0.26461
C     1.94972  -0.47964   1.52800
C     3.26659  -0.79041   2.19014
O     0.87996  -0.75825   2.07767
C    -1.35325   0.77404  -1.20174
O    -2.49640   0.40201  -1.43609
O    -0.84838   1.92346  -1.71578
C    -1.68431   2.64607  -2.62475
H    -3.56809  -0.29767   0.91975
H    -2.87401  -0.81319   2.48342
H    -2.06922   0.45378   1.53113
H    -2.00471  -2.47408   1.04953
H     1.00621   1.25349  -1.13473
H     3.97387   0.01068  -0.57508
H     3.10127   1.45381  -1.13857
H     3.79980   1.40422   0.50504
H     3.08305  -1.36689   3.10578
H     3.91836  -1.36268   1.51101
H     3.80405   0.13719   2.44563
H    -1.10925   3.52858  -2.92908
H    -2.61615   2.95550  -2.12940
H    -1.92748   2.03185  -3.50449
