39
Generated by autodE on: 2022-10-07. E = -1217.195450 Ha. Imaginary frequency = -327.1 cm-1
C    -2.41660   0.64546   2.55669
N    -2.40842  -0.59185   1.79979
C    -1.60027  -0.90271   0.75947
O    -1.56101  -2.04159   0.29375
C    -0.93839   0.29507   0.07529
C    -1.92496   0.97289  -0.79897
O    -2.88392   0.40462  -1.29413
O    -1.63415   2.26091  -1.02618
C    -2.37145   2.92448  -2.06162
N    -0.00273   1.11439   0.65670
C     1.21274   0.75877   1.14947
C     2.25394   1.84349   1.12458
C     1.34209  -0.36451   2.08287
C     2.69718  -0.61656   2.69378
O     0.37418  -1.05937   2.40069
C     1.71217  -0.66446  -0.67219
C     2.23569  -1.98218  -0.15733
O     1.40849  -2.89052   0.12818
O     3.49546  -2.08421  -0.05984
C     0.50327  -0.57529  -1.37030
C     0.34411   0.50106  -2.42417
O    -0.48812   0.27365  -3.34785
O     1.02704   1.55702  -2.30133
H    -2.51714   1.51949   1.89849
H    -3.28408   0.63313   3.22966
H    -1.50491   0.76976   3.16361
H    -2.81825  -1.40699   2.24982
H    -1.98043   3.94746  -2.10207
H    -3.44519   2.93539  -1.82723
H    -2.20081   2.41211  -3.01886
H     0.02115   2.01477   0.17603
H     3.26325   1.41443   1.11236
H     2.13699   2.45592   0.21909
H     2.18159   2.49883   2.00981
H     2.66359  -1.56535   3.24464
H     3.48474  -0.66136   1.93077
H     2.94454   0.19976   3.39282
H     2.47691   0.07725  -0.90601
H    -0.09473  -1.47590  -1.50361
