48
Generated by autodE on: 2022-06-09. E = -6378.603965 Ha
C    -2.34728   1.04881   5.15554
O    -1.41764   1.00644   4.05782
C    -1.62142   0.07091   3.14465
O    -2.52853  -0.74010   3.18063
C    -0.59889   0.08930   2.05008
N     0.60956   0.46103   2.28005
C     1.35531   0.25867   1.04801
C     1.92063   1.58423   0.55452
C     3.29000   1.73840   0.32321
C     3.78976   2.95555  -0.15234
C     2.92200   4.02340  -0.39227
C     1.55050   3.87287  -0.15277
C     1.05180   2.65871   0.31703
C     0.38985  -0.39266   0.06583
C    -0.82951  -0.41607   0.66979
C    -2.19989  -0.80914   0.16290
F    -2.31409  -0.47472  -1.20510
C    -3.24500   0.16774   0.75766
O    -2.97944   1.33278   0.97798
O    -4.44462  -0.36216   0.89437
C    -5.48037   0.49802   1.40356
C    -2.50150  -2.29829   0.35373
C    -1.92802  -3.24320  -0.70998
C    -0.42513  -3.17373  -1.01002
C    -0.02807  -1.99943  -1.93150
C     0.81074  -0.90629  -1.27754
Br    0.92479   0.61734  -2.57052
Br    2.67374  -1.66317  -1.11232
H    -2.32715   0.09968   5.70905
H    -2.01606   1.87380   5.79567
H    -3.36366   1.23719   4.78086
H     2.19421  -0.41570   1.27108
H     3.96844   0.90287   0.50588
H     4.86133   3.06693  -0.33461
H     3.31188   4.97393  -0.76430
H     0.86713   4.70478  -0.33901
H    -0.02123   2.53647   0.48455
H    -5.61589   1.36425   0.74155
H    -6.38932  -0.11258   1.43066
H    -5.21465   0.83843   2.41452
H    -2.13176  -2.57256   1.35189
H    -3.59096  -2.42875   0.37165
H    -2.48053  -3.09984  -1.65296
H    -2.17004  -4.26261  -0.36992
H     0.15276  -3.15508  -0.07191
H    -0.14081  -4.10822  -1.51553
H    -0.92659  -1.52214  -2.33390
H     0.53942  -2.35932  -2.79897
