48
Generated by autodE on: 2022-06-09. E = -6378.477176 Ha. Imaginary frequency = -114.9 cm-1
C    -3.61074   3.53851   2.71868
O    -2.40557   2.96261   2.18413
C    -1.94022   1.87329   2.78992
O    -2.39811   1.37587   3.80094
C    -0.84385   1.25762   2.03165
N     0.35798   1.48139   2.04341
C     1.54455   1.49196   1.54467
C     1.85296   2.23515   0.32735
C     3.17760   2.24279  -0.14879
C     3.48465   2.85255  -1.36484
C     2.47757   3.46458  -2.11880
C     1.16000   3.47513  -1.64269
C     0.84653   2.87249  -0.42675
C     0.24999  -0.68236   0.00278
C    -0.86180  -0.18903   0.18912
C    -2.19945   0.12065  -0.34346
F    -2.40009   1.50244  -0.33867
C    -3.26732  -0.54464   0.53526
O    -3.39376  -1.74825   0.59678
O    -3.98329   0.32978   1.22446
C    -4.92235  -0.20631   2.17394
C    -2.26878  -0.36736  -1.79816
C    -1.17158   0.21613  -2.71612
C     0.03580  -0.67638  -3.07709
C     1.30622  -0.66931  -2.20868
C     1.21335  -1.33520  -0.83191
Br    3.06480  -1.38928  -0.02631
Br    0.66612  -3.26327  -1.02179
H    -3.47499   3.80873   3.77495
H    -4.44370   2.82815   2.61863
H    -3.80358   4.43456   2.11835
H     2.34143   0.99304   2.10183
H     3.95924   1.75127   0.43283
H     4.51444   2.84565  -1.72905
H     2.71838   3.93767  -3.07349
H     0.37138   3.95657  -2.22520
H    -0.18327   2.87975  -0.06771
H    -5.41167   0.65869   2.63387
H    -5.66010  -0.83992   1.66271
H    -4.38920  -0.79306   2.93475
H    -2.23553  -1.46642  -1.78240
H    -3.26517  -0.08040  -2.16966
H    -1.66585   0.45536  -3.66961
H    -0.82407   1.18284  -2.31818
H     0.38639  -0.34706  -4.06818
H    -0.30344  -1.71563  -3.21621
H     1.63249   0.36792  -2.02619
H     2.11147  -1.16732  -2.76828
