24
Generated by autodE on: 2022-06-04. E = -800.464888 Ha
C     4.32723   0.09134   1.64659
O     2.98588   0.06311   1.14382
C     2.85320  -0.01422  -0.19320
O     3.79845  -0.05952  -0.96922
C     1.47957  -0.03785  -0.61311
O     0.43702   0.01719   0.32083
C    -0.69141  -0.02086  -0.32186
C    -1.96611   0.02136   0.34807
C    -2.01752   0.09976   1.75471
C    -3.25393   0.14218   2.39031
C    -4.43327   0.10776   1.63501
C    -4.38138   0.02963   0.23798
C    -3.15188  -0.01413  -0.41233
O    -0.53760  -0.09737  -1.60453
C     0.94556  -0.11567  -1.89986
O     1.30681  -0.18451  -3.04594
H     4.86903   0.96811   1.26234
H     4.86923  -0.82272   1.36251
H     4.23885   0.15235   2.73765
H    -1.09289   0.12639   2.33273
H    -3.30228   0.20257   3.47913
H    -5.40096   0.14180   2.14036
H    -5.30427   0.00331  -0.34425
H    -3.09796  -0.07469  -1.50005
