19
Generated by autodE on: 2022-06-04. E = -981.905382 Ha
F     1.09097   1.93575   0.56736
C    -0.04364   1.83426  -0.13904
F    -1.01730   2.44483   0.56689
F     0.12148   2.54275  -1.27133
C    -0.43544   0.42917  -0.42838
C     0.14276  -0.74087  -0.14732
C     1.41918  -1.05796   0.56401
F     1.34912  -0.76406   1.87653
F     1.70431  -2.36931   0.47114
F     2.46712  -0.38569   0.06187
C    -0.90535  -1.80553  -0.58093
C    -2.08585  -1.69145   0.40919
C    -2.65871  -0.51937   0.12417
C    -1.81705   0.05849  -1.03460
O    -1.45233  -1.14146  -1.72827
H    -0.51964  -2.80249  -0.81215
H    -2.31658  -2.41606   1.18860
H    -3.49247  -0.00826   0.60295
H    -2.27838   0.80573  -1.68796
