43
Generated by autodE on: 2022-06-04. E = -1782.356559 Ha. Imaginary frequency = -332.0 cm-1
C     4.38612   2.75535   0.06204
O     3.12957   2.25642   0.54790
C     2.14701   2.15010  -0.34507
O     2.21880   2.48018  -1.51061
C     0.95578   1.54423   0.26685
O    -0.18624   1.51169  -0.49715
C    -1.16789   1.12109   0.30452
C    -2.55043   1.07583  -0.12626
C    -3.55180   0.77083   0.81347
C    -4.87820   0.68887   0.39874
C    -5.20890   0.90812  -0.94370
C    -4.21085   1.21613  -1.87565
C    -2.87993   1.29814  -1.47531
O    -0.84746   1.36106   1.58014
C     0.53601   1.65762   1.65008
O     1.08373   1.90662   2.68731
C    -0.31208  -1.09041   0.27228
C    -1.05994  -1.67743  -0.88168
F    -0.59573  -2.91138  -1.20408
F    -0.99092  -0.94440  -2.00531
F    -2.36372  -1.84120  -0.58325
C    -0.55920  -1.69926   1.68591
C     0.17057  -3.05761   1.70948
C     1.47240  -2.75211   1.72498
C     1.51745  -1.21264   1.71734
O     0.34025  -0.90263   2.46158
C     1.05071  -0.76928   0.29750
C     2.01521  -0.93059  -0.84660
F     3.23031  -0.43255  -0.54199
F     1.60917  -0.34137  -1.97781
F     2.20048  -2.23837  -1.12349
H     4.26690   3.77179  -0.33873
H     4.77700   2.09155  -0.72245
H     5.05922   2.76239   0.92642
H    -3.28305   0.59340   1.85570
H    -5.65879   0.45065   1.12380
H    -6.25046   0.83993  -1.26533
H    -4.47270   1.39290  -2.92070
H    -2.09668   1.53374  -2.19597
H    -1.58601  -1.65328   2.06137
H    -0.31561  -4.03066   1.65944
H     2.34442  -3.40279   1.68798
H     2.40651  -0.71018   2.10958
