53
Generated by autodE on: 2022-06-27. E = -1277.938042 Ha
C     3.98636   1.82426  -0.06481
N     3.22434   0.59090   0.06028
C     3.72155  -0.57017  -0.50917
C     2.97695  -1.66344  -0.75699
C     1.51446  -1.67719  -0.42544
C     0.91366  -0.25208  -0.57488
C     0.94871   0.11836  -2.07136
N     0.25002  -0.66199  -2.90812
O     1.63118   1.06300  -2.48192
C     1.80007   0.74667   0.19889
C     1.26548   0.62268   1.68531
C     2.20450  -0.15540   2.52721
N     2.90206  -0.81099   3.18077
C     1.14231   1.98676   2.26452
N     0.99028   3.05176   2.69754
N     0.00345  -0.07293   1.58010
C    -0.90635   0.06311   2.70183
C    -0.48303  -0.13021   0.17913
C    -1.32737   1.13017  -0.13197
C    -0.87258   2.24980  -0.84428
C    -1.67546   3.38619  -0.99904
C    -2.95256   3.43504  -0.44123
C    -3.42530   2.32563   0.26633
C    -2.62561   1.19245   0.41223
C    -1.33371  -1.39177  -0.03250
C    -1.21713  -2.50879   0.80687
C    -1.95124  -3.67192   0.55874
C    -2.81358  -3.74274  -0.53801
C    -2.94358  -2.63357  -1.37842
C    -2.21811  -1.46791  -1.12092
H     3.73355   2.50948   0.75792
H     3.78775   2.33805  -1.02358
H     5.06021   1.60073  -0.00121
H     4.79071  -0.53834  -0.73247
H     3.44797  -2.55384  -1.17507
H     0.97245  -2.38906  -1.06029
H     1.35245  -2.01690   0.60933
H     0.27444  -0.45280  -3.90180
H    -0.30602  -1.44715  -2.58968
H     1.54512   1.75835  -0.12305
H    -0.36648  -0.18905   3.62799
H    -1.73859  -0.64299   2.59965
H    -1.32395   1.08059   2.80932
H     0.10752   2.26317  -1.31132
H    -1.28911   4.23639  -1.56611
H    -3.57693   4.32351  -0.56059
H    -4.42637   2.33737   0.70387
H    -3.03052   0.33438   0.94757
H    -0.54581  -2.47227   1.66351
H    -1.84541  -4.52747   1.22991
H    -3.38561  -4.65280  -0.73305
H    -3.61981  -2.66855  -2.23571
H    -2.34744  -0.60636  -1.77603
