20
Generated by autodE on: 2022-06-27. E = -457.715341 Ha
C    -3.03327  -0.76229   0.55782
N    -1.82582  -0.13710   0.04327
C    -1.92194   1.06216  -0.67383
C    -0.84478   1.74929  -1.08583
C     0.57098   1.30190  -0.81725
C     0.57591   0.01112  -0.01449
C     1.83655  -0.63292   0.38741
N     2.97487   0.00687   0.01894
O     1.89055  -1.70341   1.02665
C    -0.58350  -0.60194   0.35577
H    -3.49663  -0.15419   1.35349
H    -3.77104  -0.89657  -0.24802
H    -2.78481  -1.74800   0.97096
H    -2.94148   1.39522  -0.87631
H    -1.00153   2.67289  -1.64775
H     1.11819   1.17375  -1.77387
H     1.12806   2.10103  -0.28672
H     3.86658  -0.40003   0.27887
H     2.97081   0.88163  -0.48972
H    -0.54980  -1.52640   0.93462
