33
Generated by autodE on: 2022-06-27. E = -820.210115 Ha
C     0.76686  -2.61428   0.35450
N    -0.12390  -1.46423   0.11716
C     0.32790  -0.21735   0.08923
C    -0.58199   0.93091   0.26624
C    -0.45532   2.05952  -0.56154
C    -1.27431   3.17256  -0.36485
C    -2.20944   3.17923   0.67320
C    -2.32913   2.06397   1.51262
C    -1.53099   0.94207   1.30719
C     1.75534   0.06679  -0.13841
C     2.39569   1.05803   0.63052
C     3.73726   1.36325   0.40742
C     4.44912   0.70498  -0.60140
C     3.81381  -0.26303  -1.38651
C     2.47706  -0.58569  -1.15690
C    -1.48205  -1.79652  -0.10691
C    -2.27826  -1.01620  -0.95710
N    -2.95796  -0.38502  -1.67299
C    -2.05120  -2.91647   0.51719
N    -2.55300  -3.84996   1.01869
H     0.28230  -3.26576   1.09355
H     0.91386  -3.17843  -0.57534
H     1.72323  -2.27268   0.75686
H     0.27940   2.05603  -1.36836
H    -1.17760   4.03879  -1.02290
H    -2.84513   4.05318   0.83235
H    -3.04999   2.07100   2.33313
H    -1.63185   0.07434   1.96101
H     1.83895   1.57555   1.41339
H     4.22914   2.12122   1.02080
H     5.49793   0.95203  -0.78080
H     4.36082  -0.76574  -2.18699
H     1.98303  -1.32795  -1.78552
