33
Generated by autodE on: 2022-07-27. E = -820.210128 Ha
C     0.76723  -1.60370   2.09759
N     0.70898  -0.41702   1.22571
C    -0.08491  -0.36024   0.16451
C    -0.44870   0.93087  -0.45071
C    -0.44611   1.06558  -1.84958
C    -0.84185   2.26582  -2.44219
C    -1.26557   3.33322  -1.64654
C    -1.28640   3.19981  -0.25203
C    -0.87166   2.01304   0.34575
C    -0.61905  -1.58767  -0.45066
C     0.20637  -2.70196  -0.69744
C    -0.31111  -3.83252  -1.32812
C    -1.65572  -3.87094  -1.71221
C    -2.48097  -2.76580  -1.47684
C    -1.96539  -1.62551  -0.86311
C     1.58458   0.63575   1.58806
C     1.89258   0.87030   2.93634
N     2.17295   1.08506   4.05438
C     2.15461   1.45975   0.60739
N     2.65043   2.15231  -0.19723
H     1.70917  -2.14419   1.93873
H    -0.09004  -2.25344   1.90686
H     0.72662  -1.25744   3.13864
H    -0.12116   0.22915  -2.47045
H    -0.82281   2.36472  -3.52965
H    -1.58249   4.27012  -2.11024
H    -1.62928   4.02791   0.37211
H    -0.88482   1.91629   1.43252
H     1.26040  -2.67281  -0.41813
H     0.34079  -4.68593  -1.52673
H    -2.05902  -4.76002  -2.20221
H    -3.53061  -2.79119  -1.77723
H    -2.60760  -0.76146  -0.68537
