53
Generated by autodE on: 2022-06-27. E = -1277.887863 Ha. Imaginary frequency = -215.1 cm-1
C     3.81291   2.10721   0.19745
N     3.16494   0.85759  -0.18997
C     3.89452  -0.34182  -0.08305
C     3.27189  -1.52686  -0.12476
C     1.77202  -1.60861  -0.15406
C     1.15531  -0.37773  -0.80831
C     0.73599  -0.49134  -2.24361
N     0.17889  -1.65324  -2.64170
O     0.93282   0.42904  -3.05916
C     1.87739   0.83881  -0.52949
C     0.83128   0.89112   1.93687
C     1.95572   0.47732   2.67409
N     2.91195   0.13754   3.26158
C     0.64786   2.28343   1.81511
N     0.61384   3.45249   1.71975
N    -0.13642  -0.10329   1.61815
C    -0.53763  -0.98256   2.72575
C    -0.70182  -0.10620   0.35439
C    -1.30016   1.24257  -0.01151
C    -1.11364   1.95527  -1.20075
C    -1.76276   3.17769  -1.40288
C    -2.62891   3.69312  -0.43670
C    -2.85168   2.97031   0.73933
C    -2.19087   1.76177   0.94909
C    -1.52756  -1.27663  -0.07122
C    -1.22193  -2.60390   0.30422
C    -1.95136  -3.68044  -0.19973
C    -3.00955  -3.46733  -1.08856
C    -3.33030  -2.16175  -1.46615
C    -2.60022  -1.08363  -0.96572
H     3.90067   2.16286   1.29251
H     3.21197   2.95333  -0.15712
H     4.81706   2.15441  -0.24555
H     4.97347  -0.21478   0.00656
H     3.86100  -2.44518  -0.08422
H     1.45712  -2.53227  -0.65187
H     1.41329  -1.68392   0.88957
H    -0.14125  -1.71676  -3.60275
H    -0.13638  -2.35973  -1.98742
H     1.45369   1.81059  -0.78250
H     0.20713  -1.76559   2.93653
H    -1.50122  -1.45428   2.50950
H    -0.65451  -0.36304   3.62626
H    -0.45789   1.57966  -1.98045
H    -1.58670   3.72795  -2.33019
H    -3.13221   4.64885  -0.60065
H    -3.53431   3.35353   1.50134
H    -2.35814   1.21148   1.87705
H    -0.39950  -2.81645   0.98067
H    -1.68635  -4.69497   0.10576
H    -3.57914  -4.31271  -1.48096
H    -4.15469  -1.97620  -2.15819
H    -2.86576  -0.07664  -1.28255
