49
Generated by autodE on: 2022-06-11. E = -3757.028173 Ha
C    -2.67475   3.23029  -0.91743
N    -2.05260   1.97132  -0.55651
C    -0.77097   1.86194  -0.18047
O    -0.01716   2.83960  -0.14053
C    -0.23537   0.52460   0.37103
C    -0.34383   0.58998   1.94421
C    -1.78953   0.89373   2.37760
C    -2.54097  -0.41137   1.99581
C    -1.41390  -1.34088   1.48688
C    -0.23762  -0.88500   2.36866
C    -0.94011  -0.88762   0.08427
Br   -2.46787  -1.08023  -1.18543
C     0.21488  -1.79605  -0.52159
C     0.15556  -1.99398  -2.00271
N     0.28651  -2.22147  -3.13215
C     0.17609  -3.16697   0.04338
N     0.17685  -4.25251   0.47140
N     1.42163  -1.13381  -0.11249
C     1.27406   0.32680  -0.08395
C     1.45388   0.77434  -1.56446
C     2.85086   0.92788  -2.09308
O     0.47908   0.86294  -2.28850
C     2.35237   0.90388   0.84320
C     2.68413   2.26863   0.82024
C     3.67072   2.78034   1.66458
C     4.35222   1.94006   2.55027
C     4.04021   0.57984   2.57333
C     3.05440   0.06759   1.72437
H    -3.12206   3.16624  -1.92130
H    -1.91489   4.01944  -0.91500
H    -3.46659   3.49468  -0.19839
H    -2.63299   1.14291  -0.57786
H     0.39568   1.28049   2.36035
H    -2.21555   1.79402   1.92010
H    -1.79800   1.04723   3.46593
H    -3.01148  -0.87839   2.87174
H    -3.33275  -0.25601   1.25185
H    -1.67752  -2.40372   1.51600
H    -0.45993  -1.02110   3.43657
H     0.71581  -1.36780   2.14159
H     2.27050  -1.48223  -0.55710
H     3.20292   1.94747  -1.86945
H     2.84422   0.78535  -3.18161
H     3.55455   0.23381  -1.61177
H     2.15184   2.93744   0.14964
H     3.90795   3.84627   1.62732
H     5.12314   2.34242   3.21174
H     4.56676  -0.09473   3.25263
H     2.83374  -0.99770   1.75164
