25
Generated by autodE on: 2022-06-11. E = -702.444204 Ha
C    -0.69976   3.21876   0.86841
C     0.51051   2.42230   0.49607
O     1.64345   2.89668   0.44364
C     0.31658   0.98083   0.18533
N     1.43862   0.35781  -0.10607
C     1.72381  -0.92262  -0.47404
C     0.73440  -1.91141  -0.68116
N    -0.01488  -2.78348  -0.88233
C     3.07858  -1.26821  -0.68026
N     4.19291  -1.57030  -0.85426
C    -0.98584   0.28743   0.22131
C    -1.32937  -0.48976   1.33917
C    -2.54423  -1.17597   1.36214
C    -3.41848  -1.08935   0.27410
C    -3.08273  -0.30671  -0.83546
C    -1.87099   0.38551  -0.86309
H    -1.20422   2.75649   1.73180
H    -1.42378   3.21034   0.03781
H    -0.41045   4.25025   1.10433
H     2.24951   0.99841  -0.04566
H    -0.63610  -0.56174   2.17979
H    -2.80732  -1.78398   2.23046
H    -4.36627  -1.63228   0.29156
H    -3.76601  -0.23785  -1.68474
H    -1.59817   0.99114  -1.72971
