25
Generated by autodE on: 2022-07-27. E = -702.435879 Ha
C     0.23194   1.76749  -2.14639
C    -0.66728   1.08917  -1.16232
O    -1.88339   1.15841  -1.20552
C    -0.03108   0.24282  -0.08133
N    -0.45261  -0.98846   0.12309
C    -1.25444  -1.83225  -0.62666
C    -1.58414  -1.56462  -1.96553
N    -1.84423  -1.35846  -3.08673
C    -1.68648  -3.03184  -0.02967
N    -2.04808  -4.03325   0.45428
C     0.97563   0.81107   0.81498
C     0.98602   2.19856   1.07170
C     1.91727   2.74388   1.95280
C     2.85216   1.92037   2.58987
C     2.85376   0.54429   2.33848
C     1.92856  -0.00871   1.45499
H    -0.30738   2.57675  -2.65619
H     0.51151   1.00084  -2.89182
H     1.16238   2.13280  -1.69301
H    -0.10163  -1.43039   0.97947
H     0.24740   2.85064   0.60121
H     1.90835   3.81800   2.14941
H     3.58237   2.35187   3.27797
H     3.58998  -0.10130   2.82195
H     1.96545  -1.07917   1.23995
