24
Generated by autodE on: 2022-06-11. E = -3054.571123 Ha
C     3.87938   1.39761  -0.87899
N     2.46743   1.18511  -1.11900
C     1.76874   0.24385  -0.43888
O     2.31218  -0.48388   0.40205
C     0.33048   0.15641  -0.78017
C    -0.67756  -0.37037  -0.04869
Br   -0.63185  -1.16231   1.65966
C    -1.99866  -0.04170  -0.71367
C    -2.19722   1.49658  -0.51151
C    -1.06637   2.11093  -1.38438
C    -0.35520   0.84753  -1.96443
C    -1.55950  -0.08734  -2.19078
H     4.45757   0.47810  -1.06364
H     4.07139   1.70893   0.16111
H     4.24129   2.18304  -1.55377
H     1.98790   1.78244  -1.78221
H    -2.84834  -0.66165  -0.40557
H    -3.19322   1.78998  -0.87411
H    -2.12782   1.77695   0.54904
H    -0.37019   2.73865  -0.81077
H    -1.47724   2.72083  -2.20245
H     0.29058   1.04011  -2.83041
H    -1.26773  -1.09455  -2.52159
H    -2.31112   0.33188  -2.87656
