49
Generated by autodE on: 2022-06-11. E = -3756.983019 Ha. Imaginary frequency = -315.6 cm-1
C    -1.51137   3.16069  -2.16218
N    -1.28988   1.92029  -1.44567
C    -0.81717   1.90686  -0.18510
O    -0.59171   2.97203   0.41726
C    -0.54219   0.60350   0.49677
C    -0.36829   0.68814   2.02361
C    -1.78780   0.98283   2.59651
C    -2.54079  -0.35467   2.36068
C    -1.46348  -1.24983   1.68138
C    -0.20554  -0.78262   2.43496
C    -1.20878  -0.66089   0.28965
Br   -2.69445  -0.89864  -0.92579
C     0.33446  -1.96785  -0.58729
C    -0.05998  -2.17131  -1.96073
N    -0.45166  -2.53834  -2.99232
C     0.18630  -3.20455   0.13586
N     0.02012  -4.18480   0.73833
N     1.46088  -1.24278  -0.21439
C     1.62075   0.11226  -0.28889
C     1.40652   0.76162  -1.62464
C     1.91247   2.15269  -1.86856
O     0.86180   0.12212  -2.51369
C     2.66588   0.65841   0.62251
C     2.55545   1.95192   1.16444
C     3.54124   2.44806   2.01742
C     4.65712   1.67038   2.34069
C     4.78113   0.38760   1.80152
C     3.79720  -0.11467   0.94816
H    -0.58818   3.75707  -2.22755
H    -2.27807   3.77606  -1.66548
H    -1.85200   2.92198  -3.17715
H    -1.42494   1.04760  -1.94058
H     0.40131   1.38722   2.35915
H    -2.26251   1.84123   2.10445
H    -1.70572   1.21437   3.66876
H    -2.84342  -0.82491   3.30722
H    -3.43934  -0.24470   1.73959
H    -1.69943  -2.31907   1.68827
H    -0.30496  -0.92485   3.52024
H     0.73326  -1.24719   2.12141
H     1.91484  -1.64690   0.60299
H     1.47343   2.87937  -1.17233
H     1.66570   2.43367  -2.89954
H     3.00290   2.18551  -1.72090
H     1.68065   2.56205   0.94602
H     3.43008   3.45034   2.43702
H     5.42796   2.06398   3.00701
H     5.65392  -0.22618   2.03473
H     3.93404  -1.10632   0.51198
