12
Generated by autodE on: 2022-06-17. E = -157.300303 Ha
C    -1.96370  -0.03036  -0.02442
C    -0.53264   0.33712   0.22654
C     0.53264  -0.33715  -0.22650
C     1.96369   0.03038   0.02440
H    -2.04974  -0.93884  -0.64115
H    -2.50261   0.78569  -0.53790
H    -2.50395  -0.20600   0.92289
H    -0.36232   1.23650   0.83485
H     0.36232  -1.23654  -0.83480
H     2.50382   0.20639  -0.92292
H     2.50275  -0.78579   0.53753
H     2.04973   0.93867   0.64140
