21
Generated by autodE on: 2022-06-17. E = -777.397026 Ha
C    -4.77226   0.16945  -0.02896
N    -3.37673   0.06006  -0.39817
C    -2.36344   0.14837   0.49329
O    -2.50777   0.32244   1.70993
C    -1.03045   0.02214  -0.09761
O     0.06277   0.09114   0.74343
C     1.13364  -0.02951   0.03489
C     2.47442  -0.00156   0.68567
O     2.59967   0.15098   1.87803
O     3.42795  -0.16666  -0.20989
C     4.78297  -0.17270   0.28451
O     0.90318  -0.17456  -1.22492
C    -0.58482  -0.14894  -1.41356
O    -1.05630  -0.26513  -2.51802
H    -5.25725   1.00108  -0.56400
H    -4.84205   0.35591   1.04880
H    -5.31917  -0.75785  -0.26300
H    -3.14630  -0.08975  -1.37717
H     4.91365  -0.99347   1.00344
H     5.00848   0.78786   0.76813
H     5.41822  -0.32289  -0.59448
