33
Generated by autodE on: 2022-06-17. E = -934.699901 Ha. Imaginary frequency = -302.2 cm-1
C     4.82912  -0.19243   0.03865
N     3.45581   0.08911   0.40468
C     2.47848   0.14345  -0.52285
O     2.66587  -0.02082  -1.73542
C     1.13696   0.37246   0.01971
O     0.10234   0.57882  -0.84029
C    -1.00033   0.48647  -0.10466
C    -2.29007   0.91805  -0.70639
O    -2.41321   1.14119  -1.89031
O    -3.24766   0.95815   0.20598
C    -4.56487   1.31018  -0.25869
O    -0.72836   0.72898   1.18654
C     0.67680   0.58563   1.34497
O     1.20897   0.64496   2.43585
C    -1.11358  -1.71555  -0.18381
C    -1.28935  -1.94599  -1.66269
C     0.08841  -2.01524   0.43301
C     0.23996  -2.28234   1.89220
H     4.90953  -1.15551  -0.48974
H     5.23833   0.58962  -0.62104
H     5.43605  -0.23741   0.95064
H     3.21530   0.25522   1.37910
H    -4.55139   2.31335  -0.70675
H    -5.20745   1.29385   0.62799
H    -4.91076   0.57580  -0.99957
H    -2.01357  -1.71928   0.44233
H    -0.37622  -1.66547  -2.21014
H    -2.13601  -1.38623  -2.08345
H    -1.47951  -3.01578  -1.85403
H     0.93569  -2.27995  -0.20806
H     1.21724  -1.95536   2.27524
H    -0.55840  -1.80796   2.48217
H     0.17903  -3.37311   2.06437
