26
Generated by autodE on: 2022-06-16. E = -553.365173 Ha
C    -3.90288  -0.15223  -0.73867
C    -2.66194  -0.54946   0.03734
N    -2.36590   0.40571   1.13923
N    -1.13086   0.55575   1.25273
N    -0.43064  -0.13798   0.32277
C     0.96301  -0.02617   0.24857
C     1.67761  -0.82160  -0.66626
C     3.06943  -0.73172  -0.73350
C     3.77246   0.13728   0.10551
C     3.05987   0.92203   1.01943
C     1.66934   0.85002   1.09515
C    -1.33077  -0.64371  -0.73677
C    -1.23791   0.20081  -2.00448
H    -3.79349   0.83803  -1.20386
H    -4.77008  -0.11861  -0.06226
H    -4.11630  -0.88712  -1.52922
H    -2.85213  -1.51454   0.53862
H     1.15004  -1.51582  -1.32040
H     3.60699  -1.35615  -1.45129
H     4.86107   0.20258   0.04946
H     3.59223   1.60759   1.68356
H     1.12182   1.46679   1.80611
H    -1.09044  -1.69118  -0.95874
H    -1.47641   1.25480  -1.79732
H    -0.22707   0.15352  -2.43316
H    -1.94222  -0.17454  -2.76113
