14
Generated by autodE on: 2022-06-16. E = -396.021482 Ha
N     3.23504   0.84181   0.25946
N     2.34190   0.14132   0.20350
N     1.47148  -0.72257   0.15427
C     0.11174  -0.34662   0.02174
C    -0.82619  -1.38754  -0.02560
C    -2.18316  -1.09073  -0.15643
C    -2.61307   0.23815  -0.24075
C    -1.67215   1.27229  -0.19226
C    -0.31149   0.98900  -0.06129
H    -0.47837  -2.41985   0.04110
H    -2.90970  -1.90577  -0.19288
H    -3.67588   0.46718  -0.34361
H    -1.99729   2.31327  -0.25730
H     0.41672   1.80233  -0.02436
