42
Generated by autodE on: 2022-05-29. E = -1363.769685 Ha
C    -1.01873   3.00509  -1.07651
C    -1.89292   2.06082  -0.30731
O    -3.10776   2.05996  -0.42969
C    -1.23033   1.10509   0.71912
C    -1.85513   1.51053   2.06909
N     0.22147   1.26584   0.70839
C     0.93368   0.00704   0.91671
C     1.10777  -0.31947   2.41624
C     2.30664   0.02797   0.24031
C     3.13627  -1.10552   0.29911
C     4.37995  -1.11822  -0.33500
C     4.82425   0.00834  -1.03707
C     4.00784   1.13943  -1.10181
C     2.75752   1.14586  -0.47216
C    -0.01422  -1.03471   0.27486
C     0.11804  -1.29448  -1.26188
C    -0.72002  -2.53392  -1.53285
C    -1.99105  -2.12641  -1.44146
C    -1.91524  -0.63286  -1.16075
O    -0.70645  -0.25334  -1.82874
C    -1.44638  -0.41321   0.31981
Cl   -2.56614  -1.29021   1.44743
H    -1.64028   3.63785  -1.72351
H    -0.29452   2.43118  -1.67116
H    -0.43240   3.63000  -0.38505
H    -1.46727   0.89590   2.88984
H    -2.94784   1.42180   2.03814
H    -1.59671   2.56220   2.27201
H     0.52699   1.99063   1.35473
H     0.13211  -0.46578   2.90072
H     1.69232  -1.23831   2.56486
H     1.63003   0.50814   2.92133
H     2.80121  -1.99765   0.83290
H     5.00518  -2.01307  -0.28290
H     5.79871   0.00079  -1.53131
H     4.34103   2.02494  -1.64916
H     2.11509   2.02352  -0.53942
H     0.04411  -1.98140   0.82077
H     1.13209  -1.25943  -1.66853
H    -0.32822  -3.54441  -1.65109
H    -2.90814  -2.71237  -1.47897
H    -2.76742  -0.02496  -1.46991
