29
Generated by autodE on: 2022-05-29. E = -596.558510 Ha
C     4.43007   0.06738   0.80204
C     2.93030   0.24235   0.69869
O     2.35126   1.06489   1.46632
C     2.19230  -0.52272  -0.25388
C     2.77745  -1.52992  -1.18939
N     0.85041  -0.24375  -0.17059
C    -0.27462  -0.59542  -0.76552
C    -0.32669  -1.50473  -1.95245
C    -1.52172  -0.01730  -0.24512
C    -1.60179   0.57318   1.03840
C    -2.79296   1.12797   1.50030
C    -3.94481   1.10205   0.70466
C    -3.88773   0.50851  -0.55953
C    -2.69669  -0.04685  -1.02869
H     4.69625  -0.96502   1.08083
H     4.92910   0.28397  -0.15598
H     4.81641   0.75280   1.56804
H     2.38210  -2.54583  -1.01539
H     2.59308  -1.28404  -2.24925
H     3.86461  -1.58013  -1.05535
H     0.75817   0.45972   0.58281
H    -0.55202  -0.92970  -2.86755
H     0.60995  -2.04000  -2.11797
H    -1.13330  -2.24372  -1.83385
H    -0.73592   0.57997   1.70457
H    -2.82567   1.57274   2.49768
H    -4.87877   1.53326   1.07180
H    -4.77870   0.47857  -1.19129
H    -2.67843  -0.49292  -2.02320
