29
Generated by autodE on: 2022-07-26. E = -596.549554 Ha
C    -2.98000   1.12565  -1.61935
C    -1.97787   0.36058  -0.76723
O    -1.27580  -0.53297  -1.30975
C    -1.90749   0.69342   0.60748
C    -2.85692   1.64250   1.28503
N    -1.07119   0.00712   1.47374
C     0.09703  -0.62155   1.37764
C     0.43367  -1.52264   2.53114
C     1.07728  -0.42431   0.31721
C     2.13997  -1.34695   0.17548
C     3.14736  -1.14536  -0.76629
C     3.13976  -0.00402  -1.57566
C     2.10653   0.92891  -1.43530
C     1.07746   0.71382  -0.52104
H    -2.85532   2.21593  -1.52109
H    -2.83600   0.84023  -2.67043
H    -4.01858   0.89106  -1.33202
H    -2.47883   2.68171   1.30778
H    -3.01670   1.34540   2.33643
H    -3.84150   1.66685   0.79787
H    -1.46940  -0.05564   2.41505
H    -0.26160  -1.36514   3.36936
H     1.46191  -1.36055   2.88633
H     0.35365  -2.58340   2.23676
H     2.17306  -2.23964   0.80054
H     3.94714  -1.88304  -0.86571
H     3.93169   0.15615  -2.31100
H     2.09344   1.82834  -2.05570
H     0.28602   1.45578  -0.42574
