13
Generated by autodE on: 2022-05-29. E = -767.141595 Ha
Cl   -1.38295  -1.58011   0.96189
C    -0.59351  -0.28867   0.14007
C    -0.87172   1.01681   0.11316
C     0.31001   1.61587  -0.68605
C     1.57921   1.48756   0.19195
C     1.84511   0.17903   0.22667
C     0.73492  -0.46824  -0.63560
O     0.55231   0.54979  -1.63245
H    -1.66869   1.57391   0.60136
H     0.13471   2.57602  -1.18319
H     2.07408   2.31436   0.70047
H     2.61620  -0.36659   0.76910
H     0.92407  -1.45753  -1.06541
