25
Generated by autodE on: 2022-06-18. E = -742.654740 Ha
C     2.98582  -0.45551   2.92077
N     2.11837  -0.22881   1.78455
C     2.56498   0.18769   0.58533
O     3.74386   0.43393   0.30150
C     1.53640   0.36022  -0.46886
O     0.33156   0.09196  -0.15780
C    -0.85265   0.11703  -0.79894
C    -0.91244   0.52848  -2.18149
C    -2.24037   0.55962  -2.89305
O     0.12963   0.85361  -2.77332
C    -1.96348  -0.29574   0.05166
O    -3.12999  -0.35016  -0.30956
O    -1.57520  -0.61865   1.30065
C    -2.60994  -1.03341   2.20014
H     4.00830  -0.16794   2.64977
H     2.98074  -1.51684   3.21609
H     2.66116   0.14550   3.78409
H     1.12216  -0.40454   1.88851
H     1.79964   0.70062  -1.46932
H    -2.94335   1.23495  -2.38349
H    -2.06982   0.90112  -3.92257
H    -2.70515  -0.43742  -2.89973
H    -3.11428  -1.93556   1.82397
H    -2.11140  -1.24970   3.15223
H    -3.35194  -0.23279   2.33514
