25
Generated by autodE on: 2022-07-27. E = -742.646049 Ha
C     3.75536   1.40986  -0.35144
N     2.53041   0.65295  -0.20886
C     2.50482  -0.67820  -0.00827
O     3.49404  -1.41777   0.06664
C     1.15507  -1.27676   0.13073
O     0.16932  -0.48169   0.06018
C    -1.16082  -0.38337   0.10248
C    -2.04739  -1.51872   0.31477
C    -1.42744  -2.87995   0.51161
O    -3.27192  -1.37445   0.33603
C    -1.60397   1.00189  -0.08265
O    -2.76263   1.38032  -0.07845
O    -0.56710   1.84989  -0.26449
C    -0.90043   3.22926  -0.45379
H     3.87840   2.12373   0.47891
H     3.75534   1.97599  -1.29562
H     4.60509   0.71707  -0.35090
H     1.64038   1.14887  -0.24210
H     1.04963  -2.35155   0.28652
H    -2.23196  -3.60982   0.66625
H    -0.83524  -3.17472  -0.37008
H    -0.75685  -2.88681   1.38661
H    -1.43138   3.62554   0.42421
H    -1.52948   3.35851  -1.34674
H     0.05359   3.75299  -0.58561
