45
Generated by autodE on: 2022-06-01. E = -1254.191356 Ha
C     3.76124  -1.72467  -0.33471
C     3.25467  -0.34148  -0.59008
O     3.94449   0.65416  -0.57290
C     1.72527  -0.22710  -0.83657
F     1.37800  -1.36209  -1.59952
N     1.33520   0.98874  -1.41870
C     1.50447   1.15672  -2.84938
O    -0.05514   1.24480  -1.05836
C    -0.50064   0.28142  -0.09919
C    -1.34351   0.99651   0.95248
C    -1.44755   0.49793   2.25828
C    -2.25339   1.14811   3.19757
C    -2.96520   2.29567   2.84008
C    -2.86999   2.78941   1.53489
C    -2.06584   2.14257   0.59424
C    -1.35852  -0.80030  -0.77830
C    -1.65591  -0.70371  -2.14276
C    -2.47697  -1.65193  -2.76046
C    -3.01179  -2.70946  -2.02163
C    -2.72587  -2.80573  -0.65598
C    -1.91241  -1.85504  -0.03671
C     0.85761  -0.28153   0.44972
F     0.75304  -1.57458   0.87554
C     1.48909   0.54142   1.60965
C     1.65632   2.02205   1.46558
O     1.87476  -0.07655   2.57995
H     4.82010  -1.68591  -0.05137
H     3.62899  -2.33935  -1.23836
H     3.16354  -2.19514   0.46221
H     1.18180   2.16882  -3.12649
H     0.94498   0.41284  -3.43817
H     2.57758   1.06514  -3.06799
H    -0.90131  -0.39790   2.55577
H    -2.32026   0.75317   4.21373
H    -3.59299   2.80402   3.57542
H    -3.42471   3.68511   1.24583
H    -1.99338   2.53166  -0.42181
H    -1.24625   0.11951  -2.72580
H    -2.69791  -1.55901  -3.82649
H    -3.65210  -3.45172  -2.50396
H    -3.14252  -3.62407  -0.06406
H    -1.71306  -1.94393   1.03050
H     0.83040   2.49455   0.92259
H     1.77396   2.46212   2.46431
H     2.57702   2.19929   0.88624
