42
Generated by autodE on: 2022-05-29. E = -975.294907 Ha
C    -2.15500  -3.52747  -0.76421
N    -1.67270  -2.77480   0.39189
N    -2.44336  -1.59238   0.55312
N    -1.79233  -0.62719  -0.29556
C    -2.38333   0.60840  -0.47878
C    -3.72592   0.83651  -0.10090
C    -4.32301   2.07544  -0.33491
C    -3.61132   3.12009  -0.93517
C    -2.27881   2.90017  -1.30228
C    -1.66359   1.66839  -1.07929
C    -0.35752  -0.84761  -0.25322
C     0.37564  -0.12278   0.92183
O    -0.03860  -0.91448   2.04681
C     0.49781  -2.16263   1.56531
C     1.91920  -1.77130   1.20305
C     1.85424  -0.48816   0.78934
C     2.87321   0.37266   0.18903
C     4.23162  -0.00710   0.17422
C     5.19379   0.81164  -0.41277
C     4.82344   2.02762  -1.00257
C     3.48163   2.41654  -0.99515
C     2.51493   1.60027  -0.40205
C    -0.27519  -2.33637   0.22474
H    -3.20959  -3.79111  -0.60688
H    -1.57403  -4.45546  -0.85779
H    -2.06962  -2.96624  -1.71387
H    -2.27753  -1.28478   1.51725
H    -4.28987   0.03217   0.36974
H    -5.36399   2.22508  -0.03585
H    -4.08422   4.08892  -1.10897
H    -1.70082   3.70160  -1.77005
H    -0.62467   1.52580  -1.37790
H     0.10765  -0.64897  -1.22594
H     0.11251   0.92923   1.06690
H     0.34865  -2.97097   2.28906
H     2.77011  -2.45130   1.17615
H     4.53176  -0.95105   0.63416
H     6.24163   0.50200  -0.41114
H     5.57970   2.66743  -1.46328
H     3.18216   3.36246  -1.45261
H     1.47149   1.91986  -0.40652
H     0.25122  -3.00507  -0.46335
