23
Generated by autodE on: 2022-05-29. E = -538.683098 Ha
C     3.02252  -0.14449   0.95075
C     2.09909  -1.08035   1.19048
C     1.30996  -1.20047  -0.13205
O     2.36403  -0.97133  -1.08482
C     2.77801   0.28841  -0.51575
C     1.43812   1.04776  -0.54835
C     0.49700   0.11689  -0.30236
C    -0.94509   0.23746  -0.10933
C    -1.63031   1.42098  -0.45927
C    -3.00298   1.53767  -0.25396
C    -3.72752   0.47692   0.30646
C    -3.06312  -0.70125   0.65656
C    -1.68683  -0.82291   0.44802
H     3.75746   0.29927   1.62187
H     1.86902  -1.61659   2.11063
H     0.78350  -2.14074  -0.32492
H     3.62171   0.73070  -1.05696
H     1.33012   2.12616  -0.65538
H    -1.07610   2.25044  -0.90381
H    -3.51557   2.46102  -0.53466
H    -4.80427   0.57038   0.46577
H    -3.61831  -1.53399   1.09496
H    -1.18312  -1.74902   0.73134
