60
Generated by autodE on: 2022-07-02. E = -6681.097738 Ha
C    -6.73707  -3.07880  -3.49638
O    -5.90291  -2.92490  -2.33495
C    -6.23754  -3.60486  -1.25135
O    -7.17784  -4.37083  -1.20551
C    -5.37731  -3.25266   0.00346
C    -6.18835  -3.98820   1.09898
O    -5.96827  -5.12222   1.45612
O    -7.19878  -3.25293   1.55605
C    -8.07808  -3.88572   2.49925
C    -5.38596  -1.68697   0.12626
C    -4.31038  -1.01978   0.97923
C    -4.37218  -1.24073   2.48797
C    -4.23560  -2.67930   2.99854
C    -3.10353  -3.51510   2.42113
Br   -3.11751  -5.27181   3.41965
Br   -1.38813  -2.61068   2.96325
C    -3.03704  -3.85802   0.95956
C    -3.95556  -3.80993  -0.03320
C    -3.33457  -4.44419  -1.29417
C    -2.86061  -3.39458  -2.33102
O    -2.17573  -3.69305  -3.28504
O    -3.22761  -2.16281  -2.03160
C    -2.77060  -1.10793  -2.88788
C    -4.18943  -5.54589  -1.91092
C    -4.57937  -6.59484  -1.06295
C    -5.37628  -7.63279  -1.54180
C    -5.78503  -7.64188  -2.88018
C    -5.38128  -6.61322  -3.73342
C    -4.58301  -5.57002  -3.25361
O    -2.14288  -5.07924  -0.80982
C    -1.76759  -4.50282   0.43529
C    -0.59862  -3.52980   0.11583
C     0.77844  -4.05357   0.38141
O    -0.81622  -2.47140  -0.44327
H    -7.72192  -2.63075  -3.30225
H    -6.85609  -4.13920  -3.75050
H    -6.22365  -2.54410  -4.30282
H    -8.55279  -4.76500   2.04125
H    -7.51858  -4.19239   3.39463
H    -8.83173  -3.13396   2.75865
H    -6.38622  -1.39253   0.47037
H    -5.27165  -1.30171  -0.89067
H    -4.41143   0.06340   0.80275
H    -3.31360  -1.28368   0.59476
H    -5.33254  -0.86427   2.87651
H    -3.58633  -0.62821   2.95624
H    -5.16525  -3.23820   2.86339
H    -4.09056  -2.64963   4.08699
H    -1.67225  -1.07159  -2.88403
H    -3.13512  -1.26415  -3.91294
H    -3.18520  -0.18349  -2.47078
H    -4.26847  -6.58463  -0.01819
H    -5.68269  -8.43622  -0.86818
H    -6.41369  -8.45217  -3.25657
H    -5.68881  -6.61568  -4.78143
H    -4.28482  -4.77482  -3.93518
H    -1.41069  -5.30908   1.09175
H     1.53645  -3.29708   0.14182
H     0.92820  -4.94686  -0.24998
H     0.87298  -4.38524   1.42657
