32
Generated by autodE on: 2022-07-02. E = -5915.275816 Ha
C    -0.33159  -3.43271   2.93210
O     0.05501  -2.49585   1.90892
C     0.99117  -2.88972   1.06046
O     1.54412  -3.96778   1.09078
C     1.29439  -1.85431  -0.03772
C     2.82634  -1.83564  -0.19345
O     3.42311  -2.19751  -1.17954
O     3.39973  -1.37136   0.91243
C     4.83741  -1.31700   0.93021
C     0.75698  -0.53161   0.24908
C     0.00933   0.41981   0.18145
C    -1.12846   1.15977  -0.28454
Br   -2.02719   2.12947   1.20416
Br   -0.51898   2.52130  -1.61808
C    -2.12078   0.18315  -0.94130
C    -1.50990  -0.81020  -1.95188
C    -0.92661  -2.14937  -1.41813
C     0.60563  -2.31458  -1.36412
H     0.53432  -3.68411   3.56006
H    -1.10175  -2.92612   3.52390
H    -0.73676  -4.34545   2.47348
H     5.25488  -2.32645   0.80806
H     5.10976  -0.90637   1.90876
H     5.20253  -0.66427   0.12492
H    -2.59671  -0.37842  -0.12166
H    -2.90816   0.78156  -1.42202
H    -0.76450  -0.29417  -2.57913
H    -2.33544  -1.06713  -2.63237
H    -1.28156  -2.93903  -2.09701
H    -1.37000  -2.38829  -0.43725
H     0.87660  -3.37097  -1.50611
H     1.07627  -1.75033  -2.18217
