28
Generated by autodE on: 2022-07-02. E = -765.694557 Ha
C    -3.11722   2.33824   1.21664
O    -2.31713   1.23563   0.76887
C    -1.02610   1.49174   0.53061
O    -0.52356   2.59506   0.70143
C    -0.26732   0.32267   0.07782
O     1.03689   0.44200  -0.02797
C     1.92408   1.38331   0.17004
C     3.30422   1.03589  -0.07120
C     3.63412  -0.36588  -0.52414
O     4.17931   1.89495   0.10503
C    -0.77254  -1.01287  -0.23700
C     0.10831  -2.11714  -0.16246
C    -0.32780  -3.39977  -0.48317
C    -1.65044  -3.61770  -0.88657
C    -2.52956  -2.53381  -0.97016
C    -2.10234  -1.24493  -0.65176
H    -4.13073   1.94067   1.34236
H    -2.73836   2.72477   2.17383
H    -3.11441   3.14564   0.47009
H     1.61133   2.37187   0.49613
H     3.05741  -0.64033  -1.42021
H     4.70899  -0.43016  -0.73701
H     3.37471  -1.09182   0.26379
H     1.13809  -1.96168   0.16013
H     0.36868  -4.23834  -0.41060
H    -1.99187  -4.62521  -1.13456
H    -3.56099  -2.68951  -1.29488
H    -2.79594  -0.41199  -0.74171
