60
Generated by autodE on: 2022-07-02. E = -6680.971663 Ha. Imaginary frequency = -200.3 cm-1
C    -5.63476  -2.02643  -3.23886
O    -5.25416  -2.56373  -1.96067
C    -6.20991  -2.68025  -1.05182
O    -7.35825  -2.34448  -1.24160
C    -5.71124  -3.19925   0.30795
C    -6.38983  -4.52151   0.72765
O    -6.01827  -5.14830   1.69570
O    -7.43265  -4.84813  -0.01887
C    -8.23040  -5.96223   0.42170
C    -6.14836  -2.11206   1.35987
C    -5.33612  -0.81027   1.20283
C    -4.39549  -0.45761   2.36713
C    -3.53087  -1.55421   3.00266
C    -2.54806  -2.33969   2.11844
Br   -1.51137  -3.50509   3.39141
Br   -1.25305  -1.09115   1.25179
C    -3.21511  -3.12434   1.09637
C    -4.24891  -3.34809   0.45997
C    -3.30830  -4.96005  -1.36809
C    -2.82167  -3.89365  -2.33223
O    -2.83526  -4.08525  -3.53338
O    -2.44357  -2.76898  -1.76086
C    -1.88512  -1.75793  -2.60538
C    -4.43816  -5.82394  -1.70771
C    -4.70495  -6.95911  -0.90760
C    -5.79240  -7.78023  -1.18313
C    -6.64861  -7.48716  -2.25193
C    -6.39844  -6.36575  -3.04659
C    -5.30308  -5.54408  -2.78730
O    -2.57514  -5.39795  -0.38463
C    -1.54308  -4.84621   0.26621
C    -0.38043  -4.37301  -0.44949
C     0.82990  -4.01648   0.37709
O    -0.32830  -4.34544  -1.68763
H    -4.75336  -2.12440  -3.88018
H    -5.91836  -0.97030  -3.12904
H    -6.47687  -2.59501  -3.65523
H    -7.60083  -6.84104   0.60221
H    -8.76345  -5.68800   1.34362
H    -8.94105  -6.15896  -0.38800
H    -6.01598  -2.55522   2.35558
H    -7.22356  -1.93924   1.21802
H    -6.03155   0.03354   1.07906
H    -4.75494  -0.84679   0.26861
H    -5.00138  -0.06654   3.20149
H    -3.74752   0.37412   2.04867
H    -4.17331  -2.31679   3.46992
H    -2.95020  -1.09513   3.81533
H    -1.05776  -2.16777  -3.20003
H    -2.65610  -1.34525  -3.27137
H    -1.51815  -0.97807  -1.92924
H    -4.05267  -7.18780  -0.06549
H    -5.97959  -8.65424  -0.55574
H    -7.50719  -8.12915  -2.46001
H    -7.05887  -6.12738  -3.88302
H    -5.11829  -4.68954  -3.43067
H    -1.39547  -5.33673   1.22742
H     1.22874  -3.05283   0.02755
H     1.60892  -4.77866   0.20833
H     0.61332  -3.95347   1.45028
