18
Generated by autodE on: 2022-05-30. E = -460.241417 Ha
C    -2.73833   0.64666  -1.03333
C    -1.70861  -0.38192  -0.64469
O    -1.86551  -1.57989  -0.87670
C    -0.48830   0.08041   0.02181
C    -0.02501   1.32332   0.24544
C     1.36986   1.11839   0.86963
C     2.27919   0.55782  -0.24954
C     1.82828  -0.68092  -0.46760
C     0.64607  -0.85294   0.51151
O     1.12504  -0.08077   1.63088
H    -3.05584   1.22360  -0.15069
H    -2.30374   1.36261  -1.74921
H    -3.60634   0.15209  -1.48844
H    -0.47407   2.28417  -0.00377
H     1.76664   1.93171   1.48628
H     3.06292   1.11813  -0.75793
H     2.14534  -1.41946  -1.20308
H     0.35876  -1.87038   0.79384
