20
Generated by autodE on: 2022-05-30. E = -702.145997 Ha
C    -4.48855  -0.48092  -0.42380
N    -3.04803  -0.64726  -0.40367
C    -2.20811   0.32049  -0.01946
O    -2.49121   1.45084   0.36252
C    -0.75879  -0.08374  -0.08182
O    -0.31185  -1.22182  -0.46182
C     1.22651  -1.16390  -0.34647
O     1.86331  -2.13087  -0.65346
C     1.40056   0.13985   0.13074
C     2.58330   0.89232   0.47472
C     3.89635   0.17293   0.29818
O     2.50507   2.05048   0.88626
O     0.15170   0.75227   0.27329
H    -4.87672  -0.62155  -1.44383
H    -4.73630   0.52967  -0.08038
H    -4.96883  -1.21631   0.23908
H    -2.65838  -1.53979  -0.69898
H     4.02794  -0.13867  -0.75034
H     4.71561   0.84127   0.59288
H     3.92143  -0.74171   0.91180
