38
Generated by autodE on: 2022-05-30. E = -1162.388004 Ha. Imaginary frequency = -290.4 cm-1
C     3.95520   0.98391   2.47878
N     2.63781   1.05966   1.87228
C     2.49240   1.11252   0.54285
O     3.40511   1.16927  -0.27741
C     1.07361   1.05269   0.05693
O     0.76579   1.55004  -1.13865
C    -0.66233   1.68823  -1.19818
O    -1.21286   2.05133  -2.20473
C    -1.07239   1.29705   0.11530
C    -2.39954   1.23452   0.70517
C    -2.48289   0.99350   2.18523
O    -3.38681   1.36400  -0.01745
O     0.04594   1.14810   0.88258
C    -0.43476  -1.22506  -0.67538
C    -1.07910  -1.08059  -1.99792
C    -2.54798  -1.37479  -2.07853
O    -0.42560  -0.71406  -2.97012
C    -1.01235  -1.98632   0.53922
C    -0.50170  -3.43585   0.38472
C     0.81185  -3.36395   0.62326
C     1.08689  -1.87306   0.92705
O    -0.14161  -1.50889   1.57787
C     0.91823  -1.11517  -0.40865
H     3.83892   0.96486   3.56837
H     4.48416   0.07337   2.15539
H     4.56469   1.85560   2.19745
H     1.81343   0.97016   2.46016
H    -3.53153   0.84659   2.47228
H    -2.06849   1.86244   2.72325
H    -1.87776   0.11969   2.46946
H    -2.88499  -1.32783  -3.12177
H    -2.77542  -2.36340  -1.64903
H    -3.09186  -0.62485  -1.47930
H    -2.06828  -1.83335   0.78041
H    -1.11193  -4.28562   0.08172
H     1.57397  -4.14095   0.57765
H     1.96441  -1.63602   1.53624
H     1.69805  -1.00894  -1.16248
