12
Generated by autodE on: 2022-06-16. E = -157.299004 Ha
C     1.60887  -0.36519   0.31859
C     0.62560   0.66028  -0.16117
C    -0.70606   0.53033  -0.27172
C    -1.53878  -0.67224   0.05852
H     1.13685  -1.32048   0.58939
H     2.37030  -0.56928  -0.45481
H     2.16099   0.00369   1.20116
H     1.06223   1.62431  -0.45184
H    -1.26620   1.39676  -0.64588
H    -2.29921  -0.42495   0.82026
H    -0.94434  -1.51670   0.43560
H    -2.09696  -1.01871  -0.82926
