12
Generated by autodE on: 2022-06-16. E = -414.887581 Ha
C    -2.06405  -0.85967  -0.04936
C    -1.08916   0.25411   0.16340
O    -1.42636   1.38316   0.49189
C     0.36897   0.00952  -0.02990
C     1.25463   1.10605   0.17727
N     1.96923   2.00751   0.34848
N     0.92124  -1.15060  -0.38303
O     0.35495  -2.22846  -0.60785
H    -3.07786  -0.47972   0.12979
H    -1.83899  -1.69674   0.62950
H    -1.97342  -1.25486  -1.07291
H     1.95716  -1.13616  -0.48039
