12
Generated by autodE on: 2022-07-27. E = -414.893122 Ha
C     1.87435   1.15817  -0.91771
C     0.76225   0.17397  -1.08662
O     0.53743  -0.44170  -2.11877
C    -0.12037  -0.05946   0.09111
C     0.02318   0.57990   1.34801
N     0.15716   1.11566   2.37205
N    -1.10344  -0.93618  -0.07235
O    -1.95040  -1.28693   0.75725
H     2.45250   1.23287  -1.84664
H     1.46077   2.14388  -0.64731
H     2.52777   0.84438  -0.08712
H    -1.12240  -1.35160  -1.02967
