24
Generated by autodE on: 2022-06-16. E = -572.172216 Ha. Imaginary frequency = -433.3 cm-1
C     2.70911   0.84744  -0.64529
C     1.66078  -0.20942  -0.79910
O     1.54678  -0.91413  -1.79218
C     0.67488  -0.36557   0.30812
C     0.93751   0.17347   1.60649
N     1.16933   0.62690   2.65240
N    -0.17752  -1.41699   0.23191
O    -1.26318  -1.32275   0.92410
C    -2.03853   0.44878   0.38379
C    -3.14298  -0.09425  -0.47544
C    -0.95285   1.15660  -0.17569
C    -0.81365   1.31557  -1.66237
H     3.25286   0.97275  -1.58966
H     2.25333   1.80063  -0.33511
H     3.41132   0.55064   0.15174
H    -0.23656  -1.84715  -0.70198
H    -2.29452   0.68741   1.41848
H    -3.81868  -0.74110   0.10139
H    -3.74186   0.73306  -0.89725
H    -2.74555  -0.67103  -1.32482
H    -0.48778   1.92233   0.44924
H    -0.79920   0.34277  -2.18051
H     0.10217   1.86099  -1.92959
H    -1.67201   1.87781  -2.07284
