16
Generated by autodE on: 2022-05-29. E = -380.197543 Ha
C    -2.56031   1.47030   0.14070
N    -1.76423   0.55993  -0.00236
C    -0.84692  -0.34153  -0.00509
C    -1.19738  -1.80327   0.01196
C     0.55119   0.17509  -0.00866
O     0.79114   1.39118   0.02246
N     1.51503  -0.77408  -0.04094
C     2.93126  -0.47344  -0.04316
H    -3.01474   1.95552  -0.74046
H    -0.80505  -2.31827  -0.88100
H    -0.77081  -2.30164   0.89871
H    -2.28705  -1.93558   0.03232
H     1.24070  -1.74932  -0.07755
H     3.41115  -0.81553  -0.97440
H     3.43852  -0.96049   0.80454
H     3.06394   0.61115   0.04226
