41
Generated by autodE on: 2022-05-29. E = -1048.562482 Ha. Imaginary frequency = -297.7 cm-1
C     4.12860  -0.13844   2.15803
N     4.24107   0.62660   0.93150
C     3.28924   0.83499   0.01033
O     3.48561   1.46894  -1.03874
C     1.90323   0.36364   0.25916
C     1.33094  -0.86020   0.23858
C     1.97183  -2.17436   0.06888
C     1.05292  -3.34461  -0.15214
O     3.19357  -2.30131   0.09476
C    -0.19101  -0.56965   0.18288
O    -0.23479   0.62657   0.98920
C     0.71909   1.35952   0.20861
C     0.10091   1.24356  -1.20030
C    -1.77767   2.71153  -0.82865
N    -2.64756   1.87280  -0.93151
C    -3.03965   0.64211  -1.15254
C    -3.46758   0.24080  -2.53359
C    -3.41416  -0.22949  -0.01170
O    -3.99133  -1.30969  -0.21208
N    -3.09515   0.20581   1.23437
C    -3.21446  -0.69154   2.36724
C    -0.47794   0.00755  -1.21695
H     3.07394  -0.24780   2.43736
H     4.56697  -1.14230   2.05118
H     4.64849   0.38941   2.97041
H     5.16033   0.98637   0.68090
H     0.39630  -3.47470   0.72399
H     1.63477  -4.25951  -0.32156
H     0.39474  -3.14983  -1.01526
H    -0.85620  -1.34721   0.56922
H     0.90767   2.36145   0.60682
H     0.42062   1.85254  -2.04322
H    -1.88296   3.78851  -0.64430
H    -2.90795   0.80915  -3.28972
H    -3.28225  -0.83229  -2.67816
H    -4.54607   0.41563  -2.69348
H    -2.34108   0.88811   1.28619
H    -2.51434  -1.54373   2.30303
H    -3.00308  -0.13441   3.28908
H    -4.23392  -1.09710   2.42870
H    -0.76944  -0.59470  -2.07424
