27
Generated by autodE on: 2022-06-16. E = -462.316652 Ha
C    -2.37912  -1.34449  -1.06462
C    -1.22844  -0.78074  -0.25097
N     0.07118  -1.01931  -0.88694
C     1.04315  -0.20530  -0.15591
C     2.36675  -0.08436  -0.91244
C     1.33420  -0.82683   1.16519
N     1.54217  -1.35757   2.17822
C     0.26077   1.13655   0.10745
C     0.68207   2.30317  -0.77890
C    -1.23178   0.74854  -0.09317
C    -2.15359   1.26043   1.00507
H    -2.38618  -0.91529  -2.07958
H    -2.30251  -2.44024  -1.15396
H    -3.34255  -1.11593  -0.58296
H    -1.26266  -1.23341   0.76336
H     0.32987  -2.00654  -0.87934
H     2.18837   0.34539  -1.90638
H     2.82032  -1.07909  -1.03991
H     3.07798   0.55273  -0.36723
H     0.42510   1.42876   1.15555
H     0.03409   3.16994  -0.57195
H     0.57782   2.05703  -1.84683
H     1.72145   2.61351  -0.59421
H    -1.55948   1.17036  -1.05882
H    -3.20039   0.97170   0.81747
H    -2.11875   2.35973   1.07169
H    -1.85974   0.85277   1.98647
