15
Generated by autodE on: 2022-06-16. E = -304.938765 Ha
C    -2.94103   0.43562   0.31458
C    -1.46533   0.57213   0.23540
N    -0.68292  -0.45362   0.00003
C     0.68383  -0.55623  -0.15740
C     1.29010  -1.92508  -0.29696
C     1.44699   0.60429  -0.08170
N     2.08905   1.59163  -0.02874
H    -3.32210   0.80898   1.28153
H    -3.43955   1.03405  -0.46944
H    -3.25456  -0.61344   0.19852
H    -0.98370   1.54578   0.35750
H    -1.16467  -1.35295  -0.09570
H     2.26600  -1.86141  -0.80065
H     0.64806  -2.58061  -0.91011
H     1.45301  -2.43645   0.67134
