27
Generated by autodE on: 2022-06-16. E = -462.233607 Ha. Imaginary frequency = -357.5 cm-1
C    -2.22868  -1.35112  -1.38595
C    -1.11784  -1.01092  -0.44904
N     0.15115  -1.04264  -0.88374
C     1.22578  -0.60292  -0.14803
C     2.55775  -0.47308  -0.83039
C     1.18140  -0.76105   1.25020
N     1.16245  -0.86394   2.41936
C     0.02706   1.60369   0.10333
C     0.66005   2.18900  -1.12574
C    -1.28177   1.15556   0.10521
C    -2.08488   1.02785   1.37692
H    -2.01542  -0.99127  -2.40509
H    -2.40766  -2.44061  -1.43545
H    -3.16562  -0.88496  -1.04459
H    -1.25234  -1.25169   0.60688
H     0.28572  -0.98482  -1.89359
H     2.42582  -0.08632  -1.85293
H     3.10179  -1.43308  -0.89887
H     3.19974   0.23357  -0.28436
H     0.52338   1.78457   1.06154
H     0.30013   3.21875  -1.31446
H     0.40382   1.59904  -2.02306
H     1.75625   2.23888  -1.05290
H    -1.86236   1.32116  -0.81048
H    -2.89215   0.28213   1.28657
H    -2.56593   1.98514   1.64823
H    -1.44477   0.72904   2.22209
