44
Generated by autodE on: 2022-06-18. E = -772.278733 Ha
C     4.60979  -1.46073   0.79526
C     3.94594  -0.49953   0.12065
C     4.57823   0.23393  -1.03312
C     2.57259  -0.15638   0.50705
C     1.80074   0.76862  -0.08752
C     0.39980   1.14628   0.32185
N    -0.08585   0.42626   1.50464
C    -0.40494   1.29392   2.62685
N    -1.25932  -0.35246   1.12327
C    -1.26133  -1.61253   1.84544
C    -1.30113  -0.44121  -0.34452
C    -0.51486  -1.63283  -0.92363
C    -2.75022  -0.54712  -0.85684
C    -3.89880  -0.32014   0.08480
O    -2.94661  -0.82016  -2.03265
C    -0.70075   0.95248  -0.77484
C    -1.73492   2.08435  -0.62723
C    -0.17233   0.97689  -2.20768
H     5.63249  -1.74374   0.53018
H     4.14230  -1.98980   1.63148
H     3.99075   0.10065  -1.95687
H     4.61610   1.31906  -0.84010
H     5.60206  -0.12009  -1.21969
H     2.14848  -0.71363   1.34772
H     2.19979   1.35475  -0.91999
H     0.43542   2.22747   0.54313
H    -1.19931   2.03373   2.40293
H     0.50467   1.83362   2.93054
H    -0.73024   0.69027   3.48792
H    -1.38726  -1.41847   2.92191
H    -2.11515  -2.22570   1.52333
H    -0.33324  -2.20025   1.71356
H     0.53898  -1.59732  -0.62204
H    -0.94568  -2.58198  -0.57493
H    -0.56900  -1.63355  -2.01764
H    -3.74256   0.56612   0.71115
H    -3.97154  -1.17945   0.77176
H    -4.83134  -0.24089  -0.48988
H    -2.16232   2.12765   0.38286
H    -2.55854   1.97690  -1.34961
H    -1.24651   3.05009  -0.82689
H    -0.99178   0.78320  -2.91588
H     0.61734   0.23706  -2.38767
H     0.24140   1.97150  -2.43554
