23
Generated by autodE on: 2022-06-18. E = -351.521381 Ha
C     3.61729   0.71375  -0.83949
C     2.55637   0.00637  -0.39235
C     2.71920  -1.38917   0.15363
C     1.21875   0.59395  -0.43135
C     0.07749  -0.00802  -0.01175
C    -1.22545   0.62267  -0.07053
C    -2.40911   0.09255   0.32897
C    -2.56980  -1.28162   0.91486
C    -3.68377   0.87888   0.20664
H     4.62897   0.29894  -0.82122
H     3.49582   1.72693  -1.23498
H     2.36521  -1.45180   1.19610
H     3.77094  -1.70716   0.12635
H     2.12273  -2.11438  -0.42457
H     1.15417   1.61067  -0.83735
H     0.13378  -1.02129   0.39504
H    -1.24107   1.63882  -0.48299
H    -3.28082  -1.87303   0.31135
H    -1.63050  -1.84509   0.98544
H    -3.00838  -1.21646   1.92640
H    -3.51738   1.87620  -0.22636
H    -4.41622   0.34213  -0.42283
H    -4.16376   1.00246   1.19418
