10
Generated by autodE on: 2022-05-26. E = -2878.922476 Ha
C    -4.29686   0.27666  -0.10893
O    -2.91204   0.05320   0.21065
C    -2.02251   0.44700  -0.70120
O    -2.30224   0.97108  -1.76026
C    -0.66443   0.17176  -0.27595
C     0.49250  -0.03787   0.02704
Br    2.19543  -0.34633   0.47611
H    -4.56983  -0.26835  -1.02387
H    -4.86559  -0.10402   0.74668
H    -4.48742   1.35027  -0.24906
