29
Generated by autodE on: 2022-05-29. E = -766.672175 Ha
C    -3.91397  -1.32209  -1.28141
O    -3.03070  -0.37262  -0.67492
C    -1.82551  -0.83164  -0.27790
O    -1.49597  -1.99875  -0.42249
C    -1.04037   0.24982   0.31004
C     0.30089   0.42299   0.46197
C     1.47904  -0.39565   0.20755
C     1.45496  -1.80601   0.24912
C     2.61277  -2.54109  -0.00039
C     3.81429  -1.89114  -0.30375
C     3.85439  -0.49366  -0.34532
C     2.70382   0.24748  -0.08036
C     0.42429   1.91902   0.89214
C     0.06289   2.77038  -0.34209
C    -1.25237   2.59307  -0.49961
C    -1.65964   1.63366   0.63874
O    -0.76483   2.05576   1.67837
H    -4.83048  -0.77147  -1.52396
H    -3.46806  -1.73682  -2.19744
H    -4.13780  -2.14324  -0.58454
H     0.52136  -2.31402   0.47957
H     2.57797  -3.63217   0.04370
H     4.71819  -2.47192  -0.50185
H     4.78824   0.02235  -0.57950
H     2.75293   1.33712  -0.11597
H     1.32332   2.18805   1.45486
H     0.77670   3.32003  -0.95438
H    -1.92044   2.96088  -1.27749
H    -2.70524   1.63607   0.95927
