9
Generated by autodE on: 2022-05-29. E = -280.380893 Ha
C    -2.62384   0.61751   0.18880
N    -1.68450  -0.50585   0.27338
N    -0.50039  -0.25290   0.28161
C     0.68696  -0.08677   0.42664
C     1.84596   0.00955  -0.31329
N     2.88153   0.10139  -0.85044
H    -2.47818   1.17659  -0.74860
H    -3.64143   0.21512   0.21651
H    -2.47782   1.30483   1.03724
