38
Generated by autodE on: 2022-05-29. E = -1047.052095 Ha. Imaginary frequency = -280.8 cm-1
C    -1.74841   4.41909   1.07122
O    -0.98527   3.28568   0.64387
C    -1.67433   2.25715   0.10666
O    -2.88914   2.28455  -0.01616
C    -0.76229   1.18070  -0.26985
C    -0.94678  -0.16035  -0.42468
C    -2.09981  -1.05074  -0.38036
C    -3.40857  -0.62538  -0.69379
C    -4.47674  -1.51912  -0.63581
C    -4.26854  -2.85028  -0.25807
C    -2.97670  -3.28794   0.05143
C    -1.90186  -2.40314  -0.02032
C     0.50568  -0.71518  -0.53662
O     1.13896   0.36338  -1.23225
C     0.77484   1.37593  -0.28356
C     1.31467   0.75994   1.01990
C     1.14785  -0.58239   0.86051
C     3.34591  -1.31895   0.21024
C     3.73651  -2.64387   0.25709
N     3.94811  -3.79443   0.28246
N     3.87357  -0.21585   0.21454
N     3.78016   0.97808   0.48663
C     4.11214   1.95492  -0.54627
H    -2.29712   4.85813   0.22494
H    -2.46341   4.13174   1.85613
H    -1.02378   5.14039   1.46691
H    -3.57469   0.40998  -0.98239
H    -5.48194  -1.17420  -0.88926
H    -5.10964  -3.54593  -0.21099
H    -2.80409  -4.32583   0.34499
H    -0.90096  -2.76313   0.22307
H     0.62338  -1.66683  -1.06275
H     1.13788   2.36605  -0.57230
H     1.50976   1.31999   1.93115
H     1.12127  -1.35672   1.62553
H     3.61777   1.70472  -1.49780
H     5.20201   1.99221  -0.70498
H     3.77573   2.93778  -0.19735
