15
Generated by autodE on: 2022-06-16. E = -284.055646 Ha
C    -1.87971  -0.30412  -0.88114
N    -0.46557  -0.34139  -0.57847
C     0.20191   0.96076  -0.68359
C     1.41632   0.79430   0.24601
N     1.09898  -0.40771   1.06579
N    -0.26237  -0.72110   0.80977
H    -2.02523  -0.00269  -1.92841
H    -2.43295   0.41705  -0.23877
H    -2.32187  -1.30143  -0.74043
H    -0.45740   1.77578  -0.31804
H     0.47511   1.18136  -1.72549
H     1.54526   1.68304   0.88216
H     2.35354   0.63118  -0.30429
H     1.63226  -1.18708   0.67981
H    -0.80894  -0.05642   1.38278
