15
Generated by autodE on: 2022-06-16. E = -283.985761 Ha. Imaginary frequency = -510.8 cm-1
C    -1.96301  -0.32981  -0.75519
N    -0.54721  -0.55542  -0.51924
C     0.49365   1.18133  -0.83430
C     1.47469   1.16643   0.15701
N     0.97399  -0.69500   1.15202
N    -0.27268  -0.70907   0.76023
H    -2.07874   0.14823  -1.73740
H    -2.43654   0.32000   0.00758
H    -2.51394  -1.28559  -0.78332
H    -0.37490   1.83684  -0.72142
H     0.75945   0.94394  -1.86716
H     1.35389   1.77109   1.05832
H     2.50319   0.88731  -0.08742
H     1.50850  -1.14374   0.40107
H    -0.92584  -0.29444   1.44164
