35
Generated by autodE on: 2022-07-27. E = -878.735686 Ha
C    -3.49817  -2.61236  -1.62780
N    -2.63672  -1.71951  -0.87737
C    -1.43310  -1.35552  -1.34146
O    -0.97315  -1.75591  -2.42105
C    -0.60506  -0.45153  -0.47070
N     0.61385  -0.31566  -0.93628
C     1.75149   0.35725  -0.56629
C     1.75506   1.59175   0.20932
C     0.55520   2.51469   0.15587
O     2.76373   1.96305   0.82097
C     2.92746  -0.20256  -1.22456
C     4.29513   0.37658  -0.98043
O     2.78834  -1.15735  -2.01056
C    -1.06066   0.06607   0.82871
C    -2.26353   0.78428   0.94652
C    -2.68222   1.25188   2.19373
C    -1.91080   1.00355   3.33213
C    -0.71542   0.28315   3.22154
C    -0.28815  -0.18109   1.97920
H    -3.06059  -3.62099  -1.70404
H    -3.65630  -2.23274  -2.64849
H    -4.46570  -2.68230  -1.11712
H    -2.93535  -1.39685   0.03729
H     0.79760  -0.93323  -1.75253
H     0.94318   3.52624  -0.03931
H    -0.17873   2.25218  -0.61532
H     0.05000   2.54039   1.13309
H     4.30544   1.46686  -1.12212
H     5.00415  -0.10253  -1.66879
H     4.60722   0.19168   0.05839
H    -2.85596   1.00111   0.05598
H    -3.61263   1.81810   2.27345
H    -2.23950   1.37063   4.30693
H    -0.11374   0.08031   4.11016
H     0.64565  -0.74052   1.89780
