35
Generated by autodE on: 2022-06-25. E = -878.732435 Ha
C     1.07286   2.67499  -1.32707
N     0.11722   2.72938  -0.23699
C    -0.46997   1.66565   0.33781
O    -1.47736   1.73369   1.04647
C     0.25852   0.33988   0.28497
N    -0.36690  -0.75351  -0.06791
C    -1.57157  -1.04684  -0.70141
C    -1.89292  -2.45290  -0.50764
C    -3.11997  -3.09707  -1.09751
O    -1.11620  -3.15594   0.17237
C    -2.15465  -0.07469  -1.59217
C    -3.45475  -0.33883  -2.31549
O    -1.57584   1.00858  -1.79745
C     1.59791   0.22484   0.87286
C     2.06057   1.18607   1.79516
C     3.32537   1.06134   2.36686
C     4.15206  -0.01434   2.02569
C     3.70626  -0.96901   1.10530
C     2.44287  -0.85173   0.52949
H     0.56260   2.67083  -2.30405
H     1.68605   1.76813  -1.26011
H     1.74216   3.54494  -1.27736
H    -0.41403   3.59236  -0.13634
H     0.05992  -1.64815   0.22924
H    -3.15931  -4.13689  -0.74876
H    -4.03761  -2.57591  -0.79086
H    -3.08564  -3.08987  -2.19684
H    -3.73042   0.57897  -2.85081
H    -4.26056  -0.60863  -1.61854
H    -3.35410  -1.15617  -3.04443
H     1.42233   2.02201   2.08261
H     3.66681   1.80802   3.08691
H     5.14541  -0.10473   2.47073
H     4.35225  -1.80296   0.82268
H     2.12440  -1.58339  -0.21587
