55
Generated by autodE on: 2022-06-25. E = -1336.419509 Ha. Imaginary frequency = -418.2 cm-1
C    -3.82678  -2.33518  -2.27679
N    -3.03959  -1.33039  -1.58915
C    -1.91850  -0.82612  -2.13057
O    -1.57011  -1.11203  -3.28906
C    -1.01157   0.01345  -1.26620
C    -1.54949   0.71710  -0.05898
C    -2.82448   1.31440  -0.12430
C    -3.35046   2.01215   0.96471
C    -2.61127   2.13623   2.14429
C    -1.33464   1.57320   2.21296
C    -0.80860   0.87759   1.12354
N    -0.04239   0.59554  -2.04750
C     1.23016   0.88180  -1.60138
C     1.45804   1.98241  -0.62219
C     0.48179   3.13586  -0.60527
O     2.48142   2.04202   0.05294
C     2.24917   0.69991  -2.67695
C     3.68863   1.03626  -2.41122
O     1.89947   0.22136  -3.75583
C     1.58485  -1.12433  -0.67327
C     2.56725  -1.00535   0.47011
C     1.92935  -1.28006   1.81371
C     2.66348  -1.07324   3.06996
N     3.95331  -0.66785   2.95051
O     2.15756  -1.24810   4.19779
C     0.66902  -1.78748   1.89391
N    -0.13177  -2.02903   0.81999
C    -1.46534  -2.57068   1.02433
C     0.27124  -1.63797  -0.47572
H    -4.68724  -2.59856  -1.64976
H    -4.19408  -1.95696  -3.24299
H    -3.23434  -3.24458  -2.47069
H    -3.25573  -1.12479  -0.62088
H    -3.40842   1.24781  -1.04294
H    -4.34098   2.46605   0.88511
H    -3.02318   2.67749   2.99908
H    -0.73450   1.67523   3.12002
H     0.19793   0.48119   1.20718
H    -0.00619   0.12764  -2.96361
H     0.43239   3.56614   0.40391
H     0.90605   3.89977  -1.28151
H    -0.51869   2.88636  -0.96893
H     4.27405   0.80828  -3.31101
H     3.80478   2.09763  -2.14678
H     4.07132   0.45128  -1.56168
H     2.02206  -1.41670  -1.62634
H     3.40039  -1.71263   0.28561
H     3.02631  -0.00425   0.46307
H     4.40167  -0.52575   2.05462
H     4.49127  -0.50468   3.79431
H     0.23530  -2.02338   2.86653
H    -1.76633  -3.16233   0.14886
H    -2.21050  -1.77444   1.18715
H    -1.46353  -3.22668   1.90478
H    -0.12625  -2.28269  -1.26044
