13
Generated by autodE on: 2022-05-28. E = -585.237997 Ha
C     3.35333   0.33835  -0.61551
O     1.92656   0.48248  -0.73253
C     1.19195  -0.15862   0.17000
O     1.61988  -0.84277   1.07820
C    -0.24223   0.04003  -0.03534
O    -0.71351   0.77450  -1.05442
N    -2.01496   0.82499  -1.08068
O    -2.44292   0.12121  -0.07039
C    -1.34019  -0.45804   0.70570
O    -1.55039  -1.13755   1.66944
H     3.69268   0.69269   0.36799
H     3.63981  -0.71466  -0.74840
H     3.78147   0.95490  -1.41341
