26
Generated by autodE on: 2022-05-28. E = -1451.650781 Ha. Imaginary frequency = -273.4 cm-1
C     3.37601   2.20178   0.89092
O     2.43845   1.13246   1.11112
C     2.31945   0.23975   0.13648
O     2.94018   0.23635  -0.90710
C     1.28022  -0.75429   0.42063
O     0.61502  -0.77919   1.57359
N    -0.41433  -1.63286   1.48390
O    -0.10768  -2.46736   0.45373
C     0.95117  -1.94266  -0.31773
O     1.34641  -2.47328  -1.32063
C    -1.71531  -0.29665   0.22484
F    -2.54075  -1.26181  -0.14552
C    -2.11877   0.79393   1.22614
C    -2.92162   1.83623   0.41575
C    -2.02407   2.42666  -0.38088
C    -0.67920   1.74066  -0.05087
O    -0.85159   1.45415   1.34393
C    -0.79342   0.30863  -0.61571
Cl   -0.63399  -0.02781  -2.29507
H     3.32189   2.83354   1.78397
H     3.09225   2.77402  -0.00352
H     4.39027   1.79737   0.76631
H    -2.51637   0.46016   2.18937
H    -3.99708   1.98980   0.49113
H    -2.16263   3.19387  -1.14110
H     0.24558   2.28814  -0.25773
