61
Generated by autodE on: 2022-10-23. E = -2125.239674 Ha
C     2.87842  -0.14094   2.93452
N     3.22266  -1.28713   2.10805
C     4.44884  -1.74319   1.79957
O     4.61238  -2.71693   1.05573
C     5.64926  -1.07457   2.50499
C     6.91377  -1.02808   1.63895
C     7.72509  -2.04811   2.00772
C     7.08216  -2.79843   3.20067
C     8.16174  -2.97837   4.32108
C     8.25308  -4.27518   5.07001
O     8.84293  -2.01594   4.61919
C     6.45188  -4.16036   2.78915
C     5.38057  -4.71054   3.69742
O     6.76678  -4.74920   1.77358
N     5.98362  -1.92679   3.64651
C     6.10868  -1.18963   4.89901
C     9.04326  -2.66195   1.48418
O     9.28741  -3.73860   2.38068
C    10.05967  -4.86555   1.99923
C    10.31162  -1.71727   1.66765
F    11.28779  -2.33960   2.34250
F    10.85842  -1.34588   0.49046
F    10.04261  -0.59350   2.34436
C     8.92213  -3.19265   0.02852
C     7.98580  -2.48902  -0.94834
C     8.32331  -1.06109  -1.36985
C     8.30959   0.03684  -0.30063
C     7.08675   0.13604   0.64519
C     5.81961   0.34847  -0.23576
F     6.02720   1.29044  -1.16763
F     5.46962  -0.77081  -0.88032
F     4.74285   0.74106   0.47024
C     7.30361   1.45137   1.47752
F     8.38065   1.34373   2.25971
F     7.49200   2.51526   0.68064
F     6.27162   1.76384   2.28176
H     3.33276   0.78714   2.55802
H     1.78869  -0.01858   2.90868
H     3.17891  -0.28247   3.98325
H     2.46025  -1.80647   1.67983
H     5.36431  -0.08718   2.86865
H     9.21414  -4.31819   5.59909
H     7.44073  -4.30506   5.81517
H     8.14051  -5.14918   4.41585
H     5.41219  -4.30223   4.71359
H     4.40616  -4.44546   3.25595
H     5.45591  -5.80713   3.71296
H     6.30333  -1.88049   5.73072
H     6.90347  -0.42193   4.88544
H     5.14949  -0.69508   5.10661
H     9.46286  -5.58852   1.42167
H    10.37752  -5.34197   2.93713
H    10.95536  -4.58800   1.42544
H     9.93005  -3.28084  -0.39916
H     8.52889  -4.20743   0.13958
H     7.98631  -3.10471  -1.86250
H     6.96050  -2.54525  -0.56032
H     9.33178  -1.04275  -1.81434
H     7.63515  -0.77726  -2.18037
H     9.19320  -0.01422   0.33187
H     8.39689   0.99813  -0.82140
