28
Generated by autodE on: 2022-10-23. E = -686.882716 Ha
C     4.06010  -0.48523   0.88080
N     3.10861  -0.24055  -0.18467
C     1.86882   0.20655   0.07632
O     1.47756   0.50147   1.20816
C     1.04525   0.41780  -1.15243
N    -0.24819   0.55722  -1.16149
C    -0.86849   1.09021  -2.39651
C    -1.07894   0.00908  -0.14966
C    -0.75690  -1.35312   0.21676
C    -1.71713  -2.13957   1.07982
O     0.28525  -1.91462  -0.17241
C    -2.16414   0.79290   0.38418
C    -2.21500   2.27894   0.06573
O    -3.03557   0.32669   1.14010
H     3.65884  -1.20972   1.60711
H     4.29454   0.44416   1.42337
H     4.98341  -0.88704   0.44766
H     3.36427  -0.46122  -1.14268
H     1.57134   0.60050  -2.09383
H    -0.76121   2.18170  -2.42384
H    -0.35825   0.65491  -3.26553
H    -1.92554   0.81001  -2.41636
H    -1.34723  -3.17164   1.14717
H    -2.74119  -2.12198   0.68432
H    -1.76246  -1.69924   2.08775
H    -2.72849   2.78415   0.89531
H    -1.22263   2.72758  -0.07856
H    -2.80785   2.45112  -0.84681
