28
Generated by autodE on: 2022-10-26. E = -686.879163 Ha
C    -3.40450   0.89836  -1.43533
N    -2.13839   0.71269  -2.12741
C    -0.92392   0.71082  -1.55102
O     0.11280   0.38955  -2.13917
C    -0.87643   1.27356  -0.16326
N     0.02065   0.95326   0.72150
C     0.16166   1.83352   1.90415
C     0.68499  -0.30193   0.70403
C     2.10267  -0.36744   0.95692
C     2.90587   0.92318   0.94817
O     2.71497  -1.43692   1.12649
C    -0.17911  -1.43248   0.45263
C     0.34079  -2.83470   0.67159
O    -1.35918  -1.29210   0.07353
H    -3.51966   1.92688  -1.05996
H    -3.50550   0.20024  -0.59120
H    -4.21641   0.70669  -2.14706
H    -2.15865   0.35030  -3.07773
H    -1.52802   2.11698   0.07872
H     0.59844   1.26096   2.72761
H    -0.83181   2.19810   2.19494
H     0.80037   2.68958   1.65384
H     3.93705   0.67613   0.66067
H     2.93682   1.35887   1.95953
H     2.50392   1.67822   0.25865
H     0.79140  -2.95899   1.66501
H    -0.49632  -3.53318   0.53759
H     1.12978  -3.06196  -0.06158
