61
Generated by autodE on: 2022-10-23. E = -2125.155725 Ha. Imaginary frequency = -234.4 cm-1
C     2.57006  -1.46724   3.18251
N     3.19304  -1.86423   1.93117
C     4.52394  -2.02478   1.72878
O     4.95936  -2.62699   0.75177
C     5.34945  -1.19185   2.71044
C     7.27191  -1.11407   1.52676
C     7.86749  -2.18105   1.74652
C     6.53119  -2.75638   4.13548
C     7.65203  -2.77369   5.10472
C     8.58691  -1.58509   5.23187
O     7.89128  -3.77485   5.77993
C     5.86610  -3.99832   3.73705
C     6.52700  -5.33863   3.95215
O     4.72959  -3.97561   3.24577
N     5.89197  -1.55238   3.88032
C     5.92682  -0.46929   4.89583
C     8.85669  -3.23206   1.37353
O     8.37482  -4.55208   1.50817
C     7.33810  -4.96468   0.62770
C    10.06411  -3.21298   2.34123
F    10.51551  -1.96216   2.53415
F     9.76575  -3.72721   3.54146
F    11.08281  -3.93896   1.85505
C     9.41376  -2.94775  -0.06014
C     8.45431  -2.31631  -1.07994
C     8.69144  -0.81857  -1.31521
C     8.69448   0.12011  -0.10251
C     7.41570   0.18524   0.79405
C     6.18414   0.54020  -0.07793
F     6.42947   1.62575  -0.82687
F     5.86816  -0.45809  -0.90865
F     5.08110   0.80721   0.64369
C     7.66045   1.32170   1.82973
F     7.93717   2.48884   1.23314
F     6.60813   1.53990   2.63518
F     8.70249   1.01490   2.61659
H     2.94575  -0.49381   3.52834
H     2.74210  -2.20952   3.97910
H     1.48936  -1.37071   3.01818
H     2.62810  -2.43502   1.30549
H     4.96971  -0.17173   2.73677
H     9.59882  -1.98706   5.36992
H     8.33930  -1.00968   6.13663
H     8.57569  -0.91421   4.36636
H     6.32900  -5.67794   4.98020
H     6.06524  -6.04988   3.25378
H     7.61070  -5.30818   3.80692
H     6.04977  -0.90828   5.88914
H     6.73062   0.24522   4.69379
H     4.96349   0.05213   4.86799
H     7.67622  -4.98123  -0.42149
H     6.45022  -4.32225   0.71706
H     7.07681  -5.98891   0.92457
H    10.29753  -2.30072   0.04042
H     9.78641  -3.91806  -0.41721
H     8.60320  -2.82269  -2.04611
H     7.40759  -2.50066  -0.80625
H     9.69042  -0.69931  -1.76751
H     7.97878  -0.45709  -2.07083
H     9.51558  -0.14908   0.57513
H     8.90088   1.13649  -0.46436
