59
Generated by autodE on: 2022-06-25. E = -1251.343985 Ha
C     0.88003  -0.38701   3.11689
C     0.96648  -1.22988   2.07873
C     1.73937  -2.51674   2.17726
C     0.29981  -0.98512   0.73491
C    -1.06963  -0.25821   0.81465
C    -2.17182  -1.03324   0.13652
C    -3.47657  -1.02630   0.46320
C    -4.47940  -1.79186  -0.35768
C    -4.06568  -0.23473   1.59827
C    -0.82766   1.18704   0.21563
C    -1.21675   2.28785   1.21035
C    -1.66932   1.30393  -1.06904
O    -1.30399   0.91945  -2.16304
O    -2.87153   1.84396  -0.86211
C    -3.78955   1.82454  -1.96391
N     0.60009   1.21634  -0.07213
C     1.12096   2.36137  -0.79344
C     1.15690  -0.11916  -0.26023
C     0.94282  -0.64544  -1.70558
O     0.34979  -1.65980  -2.01539
O     1.52915   0.14982  -2.60058
C     1.35162  -0.18563  -3.98253
C     2.65933  -0.16954   0.03168
C     3.23670   0.70460   0.96201
C     4.59443   0.61448   1.27865
C     5.39810  -0.35540   0.67180
C     4.83130  -1.23361  -0.25599
C     3.47345  -1.13956  -0.57181
H     1.38909  -0.60835   4.05981
H     0.31746   0.54723   3.07101
H     1.06669  -3.37885   2.02388
H     2.23230  -2.62698   3.15416
H     2.50712  -2.57881   1.38983
H     0.16393  -1.96476   0.26325
H    -1.33722  -0.11417   1.86573
H    -1.86802  -1.61190  -0.74040
H    -4.00565  -2.33117  -1.19118
H    -5.02978  -2.51995   0.26408
H    -5.23804  -1.10580  -0.77505
H    -3.30993   0.18726   2.27381
H    -4.75555  -0.85899   2.19104
H    -4.66495   0.60338   1.20067
H    -1.10428   3.28909   0.77009
H    -0.56917   2.22138   2.09469
H    -2.25968   2.17448   1.52944
H    -3.40747   2.43260  -2.79634
H    -3.94744   0.79196  -2.30708
H    -4.72700   2.24664  -1.58425
H     2.20946   2.27495  -0.89856
H     0.91686   3.28212  -0.22520
H     0.69641   2.48269  -1.80628
H     0.28347  -0.17131  -4.24178
H     1.76864  -1.18070  -4.19466
H     1.89052   0.58057  -4.55173
H     2.61411   1.45798   1.44264
H     5.02575   1.30691   2.00573
H     6.46009  -0.42510   0.91895
H     5.44595  -1.99836  -0.73659
H     3.04801  -1.84665  -1.28732
