23
Generated by autodE on: 2022-06-25. E = -351.521383 Ha
C     3.71451  -0.31134  -0.63458
C     2.54584  -0.45274   0.02874
C     2.48555  -1.12864   1.37473
C     1.30766   0.05635  -0.55770
C     0.07571  -0.01928   0.00564
C    -1.12161   0.50339  -0.62045
C    -2.38360   0.47221  -0.12242
C    -3.53039   1.05909  -0.89576
C    -2.75767  -0.12726   1.20339
H     3.75493   0.18067  -1.61133
H     4.65571  -0.68217  -0.21923
H     2.08298  -0.44795   2.14327
H     3.48147  -1.46332   1.69765
H     1.81667  -2.00498   1.34996
H     1.40519   0.53812  -1.53807
H    -0.02996  -0.49788   0.98304
H    -0.97707   0.97188  -1.60152
H    -4.30283   0.29362  -1.09139
H    -4.03009   1.85357  -0.31270
H    -3.20932   1.48341  -1.85840
H    -3.23700   0.63360   1.84453
H    -1.90659  -0.54994   1.75260
H    -3.50792  -0.92563   1.06415
