70
Generated by autodE on: 2022-07-01. E = -1872.645951 Ha
C     0.89272  -5.09319  -2.68061
O     2.30168  -4.84837  -2.84031
C     2.68163  -3.58047  -2.89717
O     1.90874  -2.64798  -2.85297
C     4.21358  -3.39346  -3.12422
C     4.12214  -2.75070  -4.53316
O     4.09840  -3.40047  -5.55724
O     3.95211  -1.43957  -4.48290
C     3.78146  -0.74435  -5.72672
C     4.92370  -4.77121  -3.18747
C     6.43899  -4.77242  -3.04233
C     7.25547  -4.05486  -4.11468
C     7.08332  -2.54247  -4.30179
C     7.15344  -1.64590  -3.03508
C     8.43740  -2.04987  -2.25775
C     9.70974  -1.81132  -2.80521
C    10.86729  -2.24649  -2.15517
C    10.78271  -2.94159  -0.94651
C     9.52460  -3.19488  -0.39738
C     8.36812  -2.75416  -1.04622
C     7.29939  -0.18056  -3.53965
F     7.72098   0.65449  -2.57267
F     6.13528   0.29997  -4.00991
F     8.18001  -0.04573  -4.55293
C     5.93649  -1.70325  -2.08702
C     4.81379  -2.45963  -2.06527
C     4.21155  -2.42111  -0.63099
C     3.99258  -3.83173  -0.04969
C     2.92366  -1.67887  -0.49847
N     1.97538  -1.08244  -0.19293
N     5.25108  -1.71415   0.12474
C     4.91450  -1.14904   1.41699
C     5.97959  -0.85653  -0.81440
C     5.37102   0.54230  -0.96139
C     5.90078   1.58259  -0.18467
C     5.33571   2.85977  -0.21004
C     4.22617   3.11604  -1.02198
C     3.69490   2.08788  -1.80629
C     4.26430   0.81184  -1.77845
H     0.33713  -4.66842  -3.52821
H     0.53740  -4.64510  -1.74219
H     0.78085  -6.18256  -2.65335
H     2.88236  -1.10835  -6.24352
H     4.66257  -0.89130  -6.36710
H     3.67235   0.31349  -5.46478
H     4.62377  -5.25089  -4.12929
H     4.51467  -5.38679  -2.37907
H     6.70778  -4.39551  -2.04698
H     6.75202  -5.82939  -3.04617
H     8.31853  -4.25038  -3.90438
H     7.04891  -4.51742  -5.09444
H     6.18385  -2.29883  -4.86970
H     7.90340  -2.22507  -4.95740
H     9.81658  -1.28666  -3.75268
H    11.84159  -2.04187  -2.60521
H    11.68788  -3.28449  -0.44006
H     9.43358  -3.74066   0.54463
H     7.40313  -2.97096  -0.59150
H     3.74580  -3.75186   1.01797
H     3.16792  -4.36405  -0.53988
H     4.91846  -4.41122  -0.16127
H     5.83634  -0.78300   1.89219
H     4.19695  -0.30840   1.37190
H     4.48883  -1.92718   2.06644
H     7.00174  -0.72113  -0.43817
H     6.77143   1.38523   0.44633
H     5.76401   3.65691   0.40257
H     3.78200   4.11405  -1.04798
H     2.83313   2.27933  -2.45039
H     3.84774   0.03159  -2.41412
