25
Generated by autodE on: 2022-07-27. E = -536.089599 Ha
C    -1.19522  -3.24972   0.70991
C    -0.81752  -1.79372   0.74418
C    -1.78838  -0.81779   0.52948
N    -2.61617  -0.00148   0.35124
N     0.45005  -1.39739   1.12029
C     1.22580  -2.37583   1.90702
C     1.04077  -0.22402   0.87420
C     0.73604   0.77197  -0.12863
C     1.33744   2.04574   0.04229
C     1.19864   3.04646  -0.91386
C     0.47248   2.80476  -2.08759
C    -0.10894   1.54818  -2.28537
C    -0.00044   0.54855  -1.31891
H    -1.22040  -3.71607   1.71061
H    -2.20027  -3.35009   0.27735
H    -0.50462  -3.84241   0.08644
H     2.14945  -1.90252   2.25479
H     1.48384  -3.23342   1.27171
H     0.63341  -2.72508   2.76186
H     1.90313  -0.01930   1.50869
H     1.92134   2.23528   0.94649
H     1.66448   4.02092  -0.74801
H     0.36259   3.58844  -2.84060
H    -0.66633   1.34321  -3.20275
H    -0.45709  -0.42108  -1.50989
