25
Generated by autodE on: 2022-07-01. E = -536.094337 Ha
C    -2.76686  -1.65446   0.48587
C    -2.48488  -0.25482   0.04545
C    -3.53573   0.63060  -0.20438
N    -4.46379   1.33058  -0.38805
N    -1.18240   0.16498  -0.11158
C    -0.97158   1.57211  -0.50027
C    -0.14635  -0.66113   0.05408
C     1.27038  -0.35484   0.07334
C     1.85635   0.88052   0.44363
C     3.24265   1.03689   0.45697
C     4.08842  -0.02376   0.11705
C     3.52827  -1.26168  -0.22230
C     2.14646  -1.42623  -0.23723
H    -2.43077  -2.40359  -0.25637
H    -3.84533  -1.79206   0.63817
H    -2.24771  -1.88998   1.43442
H    -1.80425   1.89061  -1.13550
H    -0.93468   2.21217   0.39060
H    -0.04116   1.66072  -1.06702
H    -0.40652  -1.71063   0.17373
H     1.23638   1.71675   0.76087
H     3.66658   2.00030   0.75081
H     5.17260   0.10834   0.12943
H     4.17482  -2.10488  -0.47733
H     1.71832  -2.39615  -0.50229
