70
Generated by autodE on: 2022-07-01. E = -1872.554600 Ha. Imaginary frequency = -229.1 cm-1
C     3.16951  -6.65306  -2.82940
O     3.30659  -5.30557  -3.30909
C     4.08647  -4.49173  -2.60517
O     4.68090  -4.83207  -1.60441
C     4.20738  -3.11623  -3.27335
C     2.80850  -2.49881  -3.45565
O     1.78904  -2.91204  -2.94799
O     2.86522  -1.43083  -4.24537
C     1.63728  -0.72885  -4.50929
C     4.85907  -3.31106  -4.68643
C     6.10228  -4.20371  -4.74348
C     7.29042  -3.85836  -3.83323
C     7.80335  -2.41075  -3.92782
C     7.57086  -1.54486  -2.63845
C     8.46858  -2.06435  -1.49964
C     9.80430  -1.65481  -1.34631
C    10.60553  -2.19293  -0.33584
C    10.09740  -3.16194   0.53349
C     8.77770  -3.59052   0.37759
C     7.97558  -3.04585  -0.62825
C     7.92679  -0.09148  -3.01857
F     8.04397   0.72019  -1.95377
F     6.99837   0.44259  -3.83179
F     9.09617  -0.00642  -3.69019
C     6.12382  -1.62261  -2.27119
C     5.04751  -2.20922  -2.45794
C     3.63343  -1.50591  -0.38349
C     3.00597  -2.74104   0.22439
C     2.67542  -0.59451  -0.88869
N     1.79170   0.07882  -1.25336
N     4.82552  -1.02073   0.10949
C     5.46132  -1.82741   1.16213
C     5.60344  -0.09825  -0.48834
C     5.17497   1.07641  -1.28346
C     5.64389   2.32326  -0.81734
C     5.34094   3.50892  -1.48642
C     4.57004   3.47652  -2.65302
C     4.12010   2.24661  -3.14173
C     4.42118   1.06133  -2.47133
H     2.50623  -7.15867  -3.54001
H     2.72618  -6.65555  -1.82364
H     4.15076  -7.14768  -2.80201
H     0.90816  -1.40794  -4.97325
H     1.90085   0.07798  -5.20237
H     1.23315  -0.31716  -3.57570
H     5.08504  -2.30562  -5.06439
H     4.09637  -3.74134  -5.35314
H     5.80980  -5.24835  -4.54387
H     6.44155  -4.18621  -5.79316
H     7.03648  -4.10795  -2.79558
H     8.11160  -4.54142  -4.09966
H     7.32024  -1.89230  -4.77006
H     8.88271  -2.40214  -4.13004
H    10.24118  -0.91194  -2.01131
H    11.63742  -1.84909  -0.23207
H    10.72618  -3.58011   1.32298
H     8.36131  -4.35025   1.04328
H     6.94938  -3.39073  -0.73567
H     2.62475  -2.55357   1.24423
H     2.15643  -3.04512  -0.40036
H     3.70243  -3.58545   0.26169
H     6.42544  -1.38434   1.42433
H     5.61868  -2.85516   0.81908
H     4.81360  -1.84383   2.04817
H     6.53105   0.07320   0.05674
H     6.25467   2.35543   0.08810
H     5.71122   4.46026  -1.09700
H     4.33235   4.40193  -3.18309
H     3.53290   2.20177  -4.06235
H     4.09998   0.12036  -2.90327
