44
Generated by autodE on: 2022-05-30. E = -996.626237 Ha
C    -1.84621   2.26477   1.27553
C    -1.13197   2.08291  -0.02711
O    -0.80449   3.01786  -0.73155
C    -0.78472   0.63028  -0.50381
C    -0.86094   0.68305  -1.99395
N    -1.04977   0.68157  -3.13915
N    -1.66744  -0.37263   0.03610
C    -3.03877  -0.34546  -0.44786
C    -0.98959  -1.69094   0.10462
C    -1.10966  -2.46049  -1.22705
C    -1.63845  -2.54682   1.19819
C     0.50723  -1.31796   0.42572
C     1.48864  -2.34859  -0.13746
C     0.78724  -1.15512   1.97374
C     2.27220  -0.87210   2.14870
C     2.43590   0.39734   1.76127
C     1.04076   0.87264   1.37342
O     0.21753   0.12646   2.26973
C     0.67299   0.20355  -0.01347
C     1.69390   0.52775  -1.11561
C     2.32011   1.89608  -1.11723
O     1.91957  -0.26506  -2.01169
H    -2.92857   2.16016   1.09269
H    -1.56169   1.50698   2.01239
H    -1.65859   3.28200   1.64404
H    -3.48436   0.64455  -0.27940
H    -3.64034  -1.07277   0.11315
H    -3.13830  -0.57308  -1.52590
H    -0.69378  -3.47206  -1.13088
H    -0.59213  -1.95512  -2.05350
H    -2.16822  -2.57098  -1.50039
H    -2.62804  -2.90258   0.87609
H    -1.02187  -3.43578   1.39848
H    -1.76646  -1.98647   2.13381
H     1.37149  -2.51325  -1.20993
H     1.32899  -3.30743   0.38231
H     2.52792  -2.04397   0.03304
H     0.36215  -1.93901   2.60434
H     3.02657  -1.59659   2.45295
H     3.35366   0.97667   1.67579
H     0.85904   1.94894   1.44985
H     2.89970   2.08826  -0.20392
H     2.96965   1.99697  -1.99584
H     1.51831   2.65061  -1.15498
