21
Generated by autodE on: 2022-05-30. E = -499.581891 Ha
C     2.44668  -1.48997  -0.25947
C     1.84301  -0.11293  -0.38054
O     2.48626   0.82301  -0.86045
C     0.46745   0.04039   0.09696
C    -0.39757   1.06784  -0.08388
C    -0.28126   2.37030  -0.77515
C    -1.72815   0.56317   0.52493
C    -2.25275  -0.54154  -0.41802
C    -1.40956  -1.56370  -0.24245
C    -0.38184  -1.05738   0.79392
O    -1.22627  -0.22860   1.61466
H     1.79194  -2.24180  -0.73019
H     3.43926  -1.50983  -0.72788
H     2.53525  -1.76666   0.80429
H     0.70823   2.51353  -1.22284
H    -1.05880   2.44232  -1.55668
H    -0.48250   3.19403  -0.06791
H    -2.43564   1.33267   0.85322
H    -3.09296  -0.43496  -1.10307
H    -1.37274  -2.53136  -0.74182
H     0.15372  -1.80816   1.38299
