23
Generated by autodE on: 2022-05-30. E = -497.015423 Ha
C     2.66918   0.87941   0.80417
C     1.16875   0.67121   0.79052
O     0.45796   1.32607   1.58343
C     0.62842  -0.26851  -0.13580
C     1.40674  -1.08659  -0.97202
N     2.03848  -1.77844  -1.67721
N    -0.78076  -0.53098  -0.11309
C    -1.18432  -1.89936   0.24960
C    -1.66179   0.43046  -0.23500
C    -3.09571   0.18704   0.09585
C    -1.28036   1.77140  -0.74015
H     2.87956   1.92480   0.52509
H     3.22080   0.21401   0.12781
H     3.03710   0.73828   1.83254
H    -2.14336  -2.15990  -0.21033
H    -0.41527  -2.59098  -0.11268
H    -1.25424  -1.98503   1.34396
H    -3.58400  -0.34018  -0.74288
H    -3.21599  -0.42932   0.99714
H    -3.61318   1.14440   0.23535
H    -0.33877   1.74469  -1.30407
H    -1.14556   2.45397   0.11495
H    -2.09848   2.16559  -1.36075
