23
Generated by autodE on: 2022-07-26. E = -497.014629 Ha
C     0.55594   2.93990  -0.67610
C     0.33263   1.76271   0.25044
O     0.52607   1.90331   1.47842
C    -0.10208   0.53130  -0.31478
C    -0.31290   0.31163  -1.68448
N    -0.48977   0.09691  -2.82414
N    -0.37335  -0.57316   0.56680
C    -1.39890  -0.36494   1.60561
C     0.18889  -1.74579   0.41559
C     1.28107  -1.94498  -0.57055
C    -0.27053  -2.90225   1.23495
H     0.43312   2.70003  -1.74031
H    -0.15402   3.73940  -0.40771
H     1.56943   3.33692  -0.50877
H    -1.62135   0.70191   1.66725
H    -1.03515  -0.71880   2.57809
H    -2.31088  -0.91633   1.33447
H     1.92730  -2.77037  -0.24318
H     1.86467  -1.02536  -0.71672
H     0.85355  -2.22463  -1.55041
H    -1.36819  -2.97190   1.25916
H     0.14832  -3.83725   0.84544
H     0.07034  -2.77694   2.27792
