44
Generated by autodE on: 2022-05-30. E = -996.570866 Ha. Imaginary frequency = -309.8 cm-1
C    -1.09057   3.13157  -1.22004
C    -1.36102   2.01253  -0.24062
O    -1.60292   2.26786   0.93941
C    -1.30294   0.63324  -0.76132
C    -1.13202   0.53659  -2.17128
N    -1.01736   0.56680  -3.33199
N    -1.74956  -0.45682  -0.03197
C    -2.75065  -0.25062   1.02799
C    -1.13860  -1.69322  -0.14913
C    -0.82567  -2.20409  -1.54327
C    -1.65152  -2.77976   0.76000
C     0.83402  -1.27592   0.50329
C     1.63845  -2.44832   0.00032
C     0.73431  -1.13617   2.05230
C     2.14811  -0.79001   2.56108
C     2.35698   0.47049   2.16401
C     1.06437   0.87163   1.42708
O     0.08524   0.13259   2.17300
C     1.08111   0.06954   0.10881
C     1.75431   0.53550  -1.09588
C     2.38965   1.90550  -1.03801
O     1.84137  -0.14804  -2.12367
H    -0.21578   2.93771  -1.85441
H    -1.95833   3.24666  -1.89076
H    -0.94598   4.06279  -0.65816
H    -3.29947   0.67112   0.82860
H    -2.28698  -0.18734   2.01909
H    -3.46104  -1.08559   1.00072
H    -0.46060  -3.23487  -1.47886
H    -0.08093  -1.61034  -2.07743
H    -1.75973  -2.21547  -2.12868
H    -2.61850  -3.15858   0.38478
H    -0.94694  -3.62142   0.74342
H    -1.78862  -2.45989   1.79868
H     2.61192  -2.43569   0.52246
H     1.83745  -2.39789  -1.07400
H     1.15897  -3.40919   0.23596
H     0.19739  -1.92878   2.58197
H     2.81842  -1.47560   3.07850
H     3.24817   1.09102   2.25226
H     0.82075   1.93521   1.38181
H     3.28364   1.85944  -0.39241
H     2.69315   2.21679  -2.04614
H     1.71603   2.65381  -0.59867
