54
Generated by autodE on: 2022-10-23. E = -1835.978029 Ha
C     6.29095  -2.93574  -2.08851
N     5.95973  -1.93234  -1.09654
C     4.88076  -2.05379  -0.32614
O     4.03679  -2.94557  -0.45605
C     4.60545  -0.95852   0.74955
C     5.67973   0.16755   0.92419
O     6.76407   0.18368   0.33123
N     5.31985   1.14014   1.76834
C     6.22926   2.21002   2.12931
N     3.36620  -0.27006   0.36221
C     2.23861  -0.75727   1.12130
C     1.36536   0.38828   1.49167
N     0.72894   1.32889   1.72144
C     1.39554  -1.73297   0.37267
N     0.75720  -2.44069  -0.28730
C     2.89908  -1.44368   2.32761
C     4.21280  -1.61830   2.09168
C     5.13266  -2.45815   2.99573
C     4.90720  -3.97496   2.67064
F     3.60212  -4.26037   2.57193
F     5.40775  -4.76278   3.63367
F     5.48792  -4.34970   1.52213
C     6.64453  -2.16490   2.80778
F     7.39423  -3.00707   3.53550
F     7.05818  -2.28730   1.54065
F     6.94485  -0.92119   3.21422
C     4.84506  -2.26814   4.51983
C     4.56723  -0.83578   5.01879
C     3.15438  -0.68165   5.58692
C     2.03182  -0.61964   4.55158
C     1.99566  -1.75270   3.49987
O     0.68693  -1.86803   2.95159
C    -0.17620  -2.73969   3.65558
H     5.45988  -3.07862  -2.79551
H     6.50432  -3.90855  -1.61485
H     7.17858  -2.60875  -2.64374
H     6.62081  -1.19593  -0.83306
H     4.40529   1.09848   2.20631
H     6.47387   2.83859   1.25857
H     5.75286   2.83344   2.89526
H     7.16918   1.80124   2.53183
H     3.20813  -0.23191  -0.64228
H     5.70031  -2.69169   5.05863
H     4.00671  -2.91852   4.79087
H     5.29445  -0.60229   5.80966
H     4.73619  -0.09075   4.22834
H     3.10432   0.24131   6.18661
H     2.96340  -1.51459   6.28562
H     2.06787   0.34485   4.02246
H     1.06420  -0.65240   5.07581
H     2.26643  -2.71327   3.95740
H    -1.13986  -2.73793   3.12754
H    -0.34022  -2.40552   4.69527
H     0.22535  -3.76897   3.67258
