24
Generated by autodE on: 2022-10-26. E = -734.797521 Ha
C     2.94016  -2.93531  -1.27497
N     2.26188  -1.75244  -0.78208
C     0.93562  -1.72608  -0.61061
O     0.18244  -2.69168  -0.80910
C     0.33847  -0.43566  -0.14208
N    -0.97399  -0.45944  -0.17202
C    -1.96191   0.45979   0.03227
C    -1.70587   1.83066   0.25132
N    -1.53977   2.97455   0.41356
C    -3.30181   0.01987  -0.05807
N    -4.41399  -0.32817  -0.12604
C     1.17753   0.72551   0.28665
O     2.10295   1.11413  -0.43757
N     0.90982   1.23968   1.49461
C     1.55911   2.44969   1.96542
H     2.62841  -3.82064  -0.70294
H     4.02185  -2.79699  -1.16057
H     2.71483  -3.11772  -2.33896
H     2.76173  -0.86624  -0.73313
H    -1.29686  -1.40758  -0.45021
H     0.13301   0.86936   2.03452
H     1.33755   2.57898   3.03133
H     1.19421   3.33111   1.41310
H     2.64676   2.37664   1.82769
