24
Generated by autodE on: 2022-10-23. E = -734.797561 Ha
C    -3.80223  -1.80099  -1.09600
N    -2.73852  -0.89192  -0.71661
C    -1.50126  -1.33011  -0.46007
O    -1.15919  -2.52231  -0.48344
C    -0.47543  -0.29594  -0.11527
N     0.73289  -0.80464  -0.04003
C     1.98792  -0.29399   0.11963
C     2.26067   1.09092   0.12849
N     2.53341   2.22574   0.11779
C     3.06633  -1.20349   0.19970
N     3.96779  -1.94173   0.27059
C    -0.82813   1.13969   0.10620
O    -1.53853   1.73297  -0.71583
N    -0.39558   1.68966   1.24890
C    -0.55032   3.10865   1.51338
H    -4.75625  -1.26116  -1.06892
H    -3.64918  -2.20289  -2.11144
H    -3.84798  -2.64780  -0.39664
H    -2.87306   0.11339  -0.81119
H     0.68409  -1.83448  -0.17256
H     0.17886   1.14187   1.88284
H    -1.59652   3.41416   1.37133
H    -0.25360   3.30892   2.54952
H     0.08329   3.70452   0.83648
