30
Generated by autodE on: 2022-10-23. E = -1101.108995 Ha
C    -1.17522   3.58704  -2.82760
O    -1.58200   2.24702  -3.03325
C    -1.90768   1.56911  -1.83804
C    -0.76224   1.28123  -0.95868
C    -0.09593   0.66588  -0.15603
C     0.35388  -0.46136   0.65520
C     0.58180  -0.00722   2.11789
F     1.58270   0.87856   2.22079
F     0.86675  -1.03828   2.92399
F    -0.52234   0.58407   2.59553
C     1.66777  -1.03600   0.06967
F     2.63198  -0.10753   0.00005
F     1.47548  -1.50006  -1.17260
F     2.13610  -2.05145   0.80888
C    -0.78640  -1.53968   0.62691
C    -1.54399  -1.73357  -0.70209
C    -2.72450  -0.77379  -1.02867
C    -2.53699   0.20996  -2.20161
H    -1.97493   4.18392  -2.35093
H    -0.94257   4.01836  -3.81131
H    -0.27286   3.64397  -2.19023
H    -2.63487   2.16709  -1.25337
H    -1.50906  -1.25988   1.40639
H    -0.33799  -2.49337   0.94117
H    -1.95622  -2.75230  -0.64143
H    -0.83656  -1.75613  -1.54300
H    -3.59080  -1.40151  -1.28633
H    -3.02549  -0.21888  -0.12367
H    -3.50939   0.42659  -2.67058
H    -1.89991  -0.24715  -2.97662
