13
Generated by autodE on: 2022-06-04. E = -5454.682430 Ha
Br    1.54237  -1.28636   0.71881
C    -0.06716  -0.79843  -0.08658
C    -0.51167   0.40304  -0.47408
Br    0.29661   2.08010  -0.36880
C    -1.98973   0.16547  -0.87822
C    -2.76665  -0.14435   0.42399
C    -2.32357  -1.34387   0.80927
C    -1.28292  -1.74501  -0.26365
O    -1.87197  -1.15496  -1.43525
H    -2.42585   0.88254  -1.58126
H    -3.47184   0.53124   0.90628
H    -2.56307  -1.92838   1.69660
H    -1.05961  -2.80889  -0.39457
