22
Generated by autodE on: 2022-07-27. E = -679.401432 Ha
C     3.39581   1.76305   1.62390
N     2.27695   1.76981   0.70217
C     1.53252   0.68104   0.44005
O     1.68113  -0.42155   0.97310
C     0.49060   0.85320  -0.61572
C     0.66403   1.81252  -1.64477
N     0.83181   2.61800  -2.47102
N    -0.55101   0.03266  -0.72664
C    -1.12969  -0.91338   0.03137
C    -0.84064  -1.18379   1.38611
N    -0.75404  -1.45635   2.51677
C    -2.26196  -1.57880  -0.65489
C    -3.02755  -2.62458   0.09336
O    -2.52706  -1.23917  -1.80691
H     3.25432   2.52262   2.40744
H     3.46474   0.77507   2.09298
H     4.33917   1.97632   1.09716
H     2.06193   2.63801   0.21959
H    -1.09219   0.09772  -1.61213
H    -2.34633  -3.41509   0.44663
H    -3.49569  -2.17994   0.98655
H    -3.79944  -3.05475  -0.55617
