24
Generated by autodE on: 2022-07-27. E = -681.316604 Ha
C    -0.81580   0.71352  -1.84104
N    -0.42586  -0.37377  -0.91911
C     0.37781  -0.12251   0.12271
C     1.10683  -1.20003   0.70018
N     1.78115  -2.02423   1.17312
C     0.56625   1.20806   0.71871
C     1.84273   1.58170   1.18485
C     2.03427   2.82416   1.78522
C     0.95695   3.70312   1.94151
C    -0.31732   3.33076   1.49997
C    -0.51806   2.09141   0.89551
C    -0.92249  -1.63143  -1.21727
C    -1.03712  -2.63402  -0.23396
N    -1.17923  -3.47436   0.56537
C    -1.42718  -1.91576  -2.50416
N    -1.86187  -2.19515  -3.55185
H    -0.65068   0.35641  -2.86527
H    -1.87755   0.95388  -1.70514
H    -0.18992   1.59003  -1.66286
H     2.68577   0.89865   1.06369
H     3.02976   3.10849   2.13238
H     1.10854   4.67499   2.41633
H    -1.16468   4.00563   1.63779
H    -1.52187   1.80050   0.58409
