28
Generated by autodE on: 2022-12-30. E = -595.568187 Ha
C     3.79332  -0.15967  -0.16501
N     2.39108   0.17169  -0.03803
C     1.48298  -0.73424   0.40196
O     1.83175  -1.88080   0.75010
C     0.08299  -0.30795   0.45953
C    -0.50764   0.81180  -0.04684
O     0.13847   1.81272  -0.66562
C    -0.60541   2.94925  -1.11373
C    -2.01200   0.63437   0.03432
C    -2.35350  -0.45220  -1.04258
C    -1.71270  -1.74402  -0.45532
C    -1.05843  -1.23155   0.86544
C    -2.11026  -0.20266   1.32605
H     4.34472   0.73568  -0.47892
H     4.21059  -0.50974   0.79274
H     3.96452  -0.95510  -0.91062
H     2.05356   1.07008  -0.36848
H     0.12322   3.62716  -1.57497
H    -1.09467   3.45682  -0.26861
H    -1.35810   2.65749  -1.86131
H    -2.61525   1.54622  -0.03033
H    -3.44564  -0.54687  -1.13234
H    -1.95696  -0.18053  -2.03123
H    -0.96457  -2.19533  -1.12242
H    -2.47838  -2.50515  -0.24069
H    -0.77848  -2.02163   1.57248
H    -1.80548   0.35523   2.22348
H    -3.11218  -0.63369   1.47504
