19
Generated by autodE on: 2022-12-30. E = -568.847912 Ha
C    -4.34479   0.85599   1.00203
N    -3.40979   0.41890  -0.01276
C    -2.12795   0.08261   0.24865
O    -1.61332   0.10768   1.37377
C    -1.35871  -0.33598  -0.94814
N    -0.12741  -0.65566  -0.79781
C     0.98863  -1.02526  -0.51555
C     2.28509  -0.35127  -0.54729
O     2.97344  -0.29158  -1.54664
O     2.62786   0.09207   0.66132
C     3.92275   0.71163   0.77371
H    -5.21356   0.18096   1.05717
H    -3.83733   0.85781   1.97365
H    -4.71090   1.87347   0.79153
H    -3.73379   0.36341  -0.97353
H    -1.80247  -0.38433  -1.94641
H     4.02837   0.99041   1.82804
H     3.97627   1.60542   0.13608
H     4.71145   0.00258   0.48470
