29
Generated by autodE on: 2022-06-09. E = -3203.440218 Ha
C     4.08524  -0.85036   0.16574
N     2.64733  -0.77053   0.33055
C     1.77598  -0.78226  -0.69486
O     2.10394  -0.91396  -1.87995
C     0.33765  -0.65369  -0.31022
C    -0.24696   0.29793   0.42476
Br    0.51640   1.84398   1.18967
C    -1.73820   0.05882   0.54002
C    -2.48391   1.04756  -0.28879
N    -3.11056   1.78943  -0.95750
N    -1.85555  -1.32143   0.09874
C    -3.18263  -1.75992  -0.28859
C    -0.71664  -1.64267  -0.80729
C    -1.02591  -1.38222  -2.29360
C    -0.26686  -3.09121  -0.60305
H     4.31346  -0.95661  -0.90098
H     4.57315   0.06041   0.54707
H     4.49271  -1.71787   0.70700
H     2.27635  -0.67683   1.27032
H    -2.10802   0.18798   1.57279
H    -3.16712  -2.83718  -0.50478
H    -3.59318  -1.23639  -1.17357
H    -3.87789  -1.59716   0.54945
H    -1.78598  -2.09114  -2.65483
H    -1.39737  -0.35872  -2.45092
H    -0.11699  -1.51248  -2.89435
H     0.01620  -3.26999   0.44445
H    -1.07731  -3.78516  -0.87231
H     0.59636  -3.31619  -1.24686
