18
Generated by autodE on: 2022-07-26. E = -344.269044 Ha
C     1.93401   0.78047  -1.22132
C     1.39529  -0.30675  -0.35817
C     2.23878  -1.48167   0.02507
N     0.14783  -0.21361   0.07035
C    -0.38540  -1.28934   0.92569
C    -0.69729   0.85186  -0.23766
C    -2.00347   0.92494   0.22023
N    -3.12076   1.03324   0.58516
H     1.32754   0.90017  -2.13867
H     1.90058   1.75691  -0.70223
H     2.97104   0.57377  -1.51105
H     1.80563  -2.43631  -0.32135
H     2.35936  -1.56935   1.11907
H     3.23722  -1.38299  -0.41791
H    -1.42927  -1.07984   1.17324
H    -0.32564  -2.24868   0.39734
H     0.19914  -1.35196   1.85216
H    -0.30766   1.65056  -0.86010
