18
Generated by autodE on: 2022-06-09. E = -344.269045 Ha
C    -2.44328  -1.08297   0.25959
C    -1.43776  -0.12341  -0.29438
C    -1.82676   0.90891  -1.29454
N    -0.17684  -0.17690   0.10033
C     0.20914  -1.19900   1.09006
C     0.81493   0.68584  -0.36471
C     2.13053   0.61223   0.06528
N     3.26218   0.59003   0.40010
H    -2.52752  -1.01133   1.35796
H    -3.43094  -0.87578  -0.16989
H    -2.18723  -2.13261   0.03138
H    -2.89413   0.83873  -1.53515
H    -1.61543   1.92841  -0.92041
H    -1.24568   0.79877  -2.22942
H    -0.02920  -2.19813   0.70525
H    -0.33806  -1.03430   2.02690
H     1.28281  -1.13616   1.28508
H     0.53452   1.44545  -1.08676
