29
Generated by autodE on: 2022-06-09. E = -3203.336941 Ha. Imaginary frequency = -220.5 cm-1
C     3.77573  -2.34545   0.61856
N     2.70915  -1.39422   0.85935
C     2.24837  -0.59164  -0.13178
O     2.77766  -0.57072  -1.25825
C     1.13567   0.25465   0.20984
C     0.13708   0.94147   0.43466
Br   -0.66859   2.50431   0.95487
C    -1.85807  -0.43560   0.02998
C    -2.52602   0.17748  -1.03969
N    -3.12552   0.74362  -1.87445
N    -1.11851  -1.60905  -0.08233
C    -1.03805  -2.40593   1.15713
C    -0.32735  -1.93472  -1.09281
C    -0.28897  -1.12125  -2.34163
C     0.43477  -3.22162  -1.04640
H     4.71539  -1.83394   0.35571
H     3.93901  -2.93063   1.53192
H     3.52506  -3.03409  -0.20439
H     2.18922  -1.43608   1.72970
H    -2.30556  -0.27770   1.00849
H    -1.28088  -3.45421   0.94542
H    -1.75620  -2.01409   1.88214
H    -0.02325  -2.34275   1.57201
H    -1.11301  -1.40693  -3.02008
H    -0.37938  -0.04713  -2.14150
H     0.65783  -1.30381  -2.86467
H     1.06748  -3.29674  -0.14926
H    -0.24865  -4.08899  -1.03241
H     1.07803  -3.30577  -1.92959
