49
Generated by autodE on: 2022-06-22. E = -1128.580079 Ha
C    -1.83819   3.65422   0.47479
C    -1.91369   2.17032   0.71958
O    -2.28484   1.72979   1.79434
C    -1.49684   1.24293  -0.43896
C    -2.17673   1.71557  -1.74175
C     0.05200   1.24672  -0.56563
C     0.80041   1.38628   0.77164
C     2.18543   0.78958   0.70696
C     3.20706   1.08770   1.71873
N     2.83428   1.91388   2.73078
O     4.36469   0.61995   1.68554
C     2.51701  -0.08905  -0.28311
N     1.68248  -0.49367  -1.27078
C     2.07137  -1.51280  -2.22731
C     0.30045  -0.10688  -1.23747
C    -0.73135  -1.07511  -0.52711
C    -0.10941  -1.83873   0.65623
C    -0.71896  -1.68820   2.01912
O     0.83534  -2.58559   0.45195
C    -1.28341  -2.07433  -1.60019
C    -1.49028  -3.51580  -1.23957
O    -1.60908  -1.63681  -2.68892
N    -1.78294  -0.15437  -0.11540
C    -3.15959  -0.59775  -0.09713
H    -2.73524   3.96797  -0.08470
H    -0.96354   3.92837  -0.13206
H    -1.82243   4.18334   1.43664
H    -1.81839   2.70818  -2.04496
H    -3.26839   1.76930  -1.61662
H    -1.96635   1.00584  -2.55268
H     0.37595   2.04818  -1.24246
H     0.85562   2.45889   1.01868
H     0.22508   0.92409   1.58908
H     3.50324   2.10781   3.46752
H     1.89184   2.26896   2.82709
H     3.52517  -0.50570  -0.31836
H     3.16351  -1.62428  -2.22211
H     1.74970  -1.22646  -3.24074
H     1.61950  -2.48769  -1.98037
H    -0.05073  -0.04988  -2.27428
H    -1.01216  -0.65304   2.22807
H    -0.03268  -2.08383   2.77901
H    -1.64941  -2.28306   2.03612
H    -2.07003  -4.01276  -2.02751
H    -2.00914  -3.59858  -0.27209
H    -0.51720  -4.01499  -1.12184
H    -3.23223  -1.57604   0.40150
H    -3.76741   0.10881   0.48492
H    -3.61788  -0.69779  -1.10049
