29
Generated by autodE on: 2022-07-27. E = -670.822576 Ha
C     0.87511   3.62005  -0.08129
C    -0.23116   2.67205   0.24211
O    -1.21711   2.93809   0.90018
C    -0.13287   1.26913  -0.33748
C    -0.55145   1.09654  -1.74664
N     0.24006   0.28930   0.42140
C     0.63489   0.50353   1.82272
C     0.11375  -1.08961   0.00199
C     1.37662  -1.75461  -0.13344
C     1.46895  -3.21890  -0.51003
O     2.44130  -1.12287   0.05200
C    -1.24256  -1.52865  -0.15968
C    -1.55722  -2.96453  -0.52998
O    -2.20184  -0.74203   0.00374
H     0.98677   3.70412  -1.17453
H     1.82424   3.21173   0.30493
H     0.67158   4.60335   0.36226
H    -0.30770   1.99331  -2.33250
H    -1.64577   0.95824  -1.76300
H    -0.08920   0.19991  -2.18290
H     1.10575   1.48501   1.95803
H     1.34926  -0.27626   2.10015
H    -0.26419   0.42809   2.45054
H     2.53307  -3.48443  -0.56323
H     1.00148  -3.42030  -1.48452
H     0.97593  -3.86232   0.23316
H    -1.15293  -3.67717   0.20259
H    -2.64956  -3.06852  -0.56610
H    -1.14170  -3.22706  -1.51386
