29
Generated by autodE on: 2022-06-22. E = -670.821733 Ha
C     3.11587   0.92688   0.29057
C     1.89583   0.08251   0.51645
O     1.45311  -0.15937   1.62498
C     1.29761  -0.63321  -0.68191
C     2.21764  -1.27991  -1.65635
N     0.00317  -0.76539  -0.78136
C    -0.55338  -1.58878  -1.87104
C    -0.91003   0.06849  -0.05444
C    -0.60225   1.46675  -0.09023
C    -1.61293   2.47735   0.39699
O     0.50522   1.88221  -0.50647
C    -1.98188  -0.54397   0.68002
C    -1.95377  -2.05406   0.86326
O    -2.90294   0.10047   1.21824
H     3.17033   1.32158  -0.73132
H     4.00890   0.30635   0.47830
H     3.11537   1.74851   1.01942
H     2.02343  -0.90290  -2.67448
H     3.26595  -1.09237  -1.40179
H     2.04914  -2.36861  -1.67773
H    -1.64371  -1.54406  -1.82688
H    -0.21038  -2.62713  -1.77746
H    -0.22283  -1.18373  -2.83839
H    -1.24856   3.48134   0.13953
H    -1.71710   2.39976   1.49088
H    -2.61126   2.30695  -0.02652
H    -2.49007  -2.29468   1.79155
H    -0.93335  -2.45921   0.91172
H    -2.48167  -2.55276   0.03431
