49
Generated by autodE on: 2022-06-22. E = -1128.519623 Ha. Imaginary frequency = -415.7 cm-1
C    -2.37768   2.88884  -1.27562
C    -1.70153   2.00403  -0.26016
O    -1.84342   2.21453   0.93323
C    -0.85127   0.83424  -0.77871
C    -1.03719   0.55287  -2.26375
C     0.83905   1.85650  -0.75191
C     1.31237   2.18856   0.65476
C     2.04604   1.01797   1.26509
C     2.21971   0.85054   2.73870
N     1.76829   1.86091   3.50817
O     2.74966  -0.15839   3.22387
C     2.58482   0.07431   0.47486
N     2.50003   0.13977  -0.92686
C     3.25755  -0.84879  -1.69793
C     1.69671   1.01561  -1.50589
C    -1.31044  -1.56109  -0.53478
C    -0.33857  -2.60166  -0.65489
C    -0.69356  -3.98781  -1.16910
O     0.86412  -2.41339  -0.33679
C    -2.73035  -1.60013  -0.72763
C    -3.45975  -2.84330  -1.20962
O    -3.43935  -0.58178  -0.51427
N    -0.83803  -0.30915   0.00324
C    -0.78782  -0.30753   1.45571
H    -3.14190   2.30394  -1.81110
H    -1.67279   3.27150  -2.02701
H    -2.85885   3.72460  -0.75191
H    -0.77757   1.42976  -2.86808
H    -2.08243   0.29065  -2.47015
H    -0.40670  -0.28617  -2.57746
H     0.50220   2.72382  -1.32513
H     1.98174   3.06932   0.62234
H     0.45596   2.49324   1.27311
H     1.86138   1.78345   4.51611
H     1.32949   2.68974   3.12568
H     3.12751  -0.78172   0.87058
H     4.32072  -0.78645  -1.42817
H     3.13369  -0.64282  -2.76695
H     2.87035  -1.84829  -1.46145
H     1.66638   0.99321  -2.59541
H     0.23681  -4.56821  -1.23167
H    -1.16203  -3.95825  -2.16284
H    -1.38510  -4.51103  -0.49249
H    -3.32772  -3.69498  -0.52730
H    -4.52913  -2.60050  -1.26906
H    -3.11464  -3.16062  -2.20445
H    -0.40834   0.62634   1.86671
H    -0.13080  -1.12795   1.78455
H    -1.79306  -0.46999   1.88435
