21
Generated by autodE on: 2022-07-27. E = -549.951399 Ha
C     4.42613   0.70646   0.94393
C     2.98030   0.31201   0.98190
O     2.45296  -0.21928   1.96533
N     2.29182   0.60300  -0.18944
N     1.04141   0.24313  -0.07725
N     0.19648   0.36556  -1.00577
C    -1.12585   0.00502  -0.71090
C    -1.67000  -0.06188   0.58841
C    -3.00207  -0.43346   0.75968
C    -3.80656  -0.73089  -0.34734
C    -3.27413  -0.64295  -1.63807
C    -1.94451  -0.26845  -1.82177
H     4.91437   0.45429   1.89324
H     4.51407   1.78755   0.75154
H     4.93164   0.18946   0.11278
H     0.79050  -0.17111   0.85252
H    -1.07643   0.20778   1.46451
H    -3.42077  -0.47652   1.76752
H    -4.85074  -1.01640  -0.20280
H    -3.89904  -0.86348  -2.50618
H    -1.51255  -0.19283  -2.82118
