18
Generated by autodE on: 2022-06-17. E = -235.966440 Ha
C     0.93950   1.66971  -0.42470
C     0.62353   0.21708  -0.12672
C     1.82644  -0.69052  -0.09723
C    -0.62537  -0.22059   0.10940
C    -1.82223   0.69532   0.12328
C    -0.94268  -1.67259   0.40784
H     0.27575   2.10036  -1.19088
H     1.97310   1.77697  -0.78743
H     0.84820   2.30481   0.47438
H     2.31352  -0.73071  -1.08884
H     1.59499  -1.71910   0.20899
H     2.58867  -0.29551   0.59842
H    -2.36803   0.59976   1.07941
H    -2.54280   0.41295  -0.66604
H    -1.56812   1.75468  -0.01260
H    -0.63089  -1.96130   1.42755
H    -0.44866  -2.36805  -0.28847
H    -2.02607  -1.85581   0.34247
