39
Generated by autodE on: 2022-06-17. E = -785.889710 Ha. Imaginary frequency = -429.1 cm-1
C     3.75417   1.43841   1.42933
C     2.28638   1.17083   1.60859
O     1.78368   1.07155   2.73419
N     1.54570   1.10915   0.44406
N     0.24151   0.93049   0.68529
N    -0.43325   0.65139  -0.41619
C    -1.79568   0.34469  -0.23368
C    -2.39991   0.05884   1.00746
C    -3.75905  -0.25203   1.07180
C    -4.53832  -0.29094  -0.08913
C    -3.94796   0.00443  -1.32287
C    -2.59421   0.32967  -1.39364
C     0.58479  -1.03349  -1.05615
C     0.22339  -1.01239  -2.52088
C    -0.09629  -2.10894  -0.24751
C     1.93533  -0.68446  -0.68947
C     2.83293  -0.10900  -1.74839
C     2.61516  -1.51689   0.37002
H     4.33577   0.77517   2.08589
H     3.94965   2.47499   1.75233
H     4.08231   1.33385   0.38959
H     0.02427   0.43282   1.56489
H    -1.82535   0.07756   1.93424
H    -4.21270  -0.46814   2.04208
H    -5.60069  -0.53789  -0.03069
H    -4.54935  -0.00331  -2.23494
H    -2.13636   0.59325  -2.34681
H     0.43593  -0.04419  -2.99310
H     0.79899  -1.78289  -3.06509
H    -0.84126  -1.24181  -2.66432
H    -0.11090  -1.87311   0.82898
H    -1.13281  -2.25931  -0.57926
H     0.43137  -3.07331  -0.35411
H     2.35989   0.73139  -2.27384
H     3.78492   0.23601  -1.32343
H     3.07030  -0.88214  -2.50205
H     2.04016  -1.57044   1.30587
H     3.62014  -1.13925   0.59868
H     2.72766  -2.55568   0.00806
