26
Generated by autodE on: 2022-06-25. E = -689.460875 Ha
C     3.24627  -0.05157  -0.03078
O     2.16626   0.20033  -0.93582
C     0.91106   0.04441  -0.42031
C     0.08540   1.09156  -0.13910
O     0.31234   2.39937  -0.25495
C     1.56472   2.93128  -0.69918
C    -1.30992   0.82967   0.36369
O    -2.03806   1.78285   0.60430
C    -1.76443  -0.56969   0.56651
C    -3.15308  -0.78044   1.08591
C    -0.93399  -1.60387   0.28352
C    -1.34958  -3.02892   0.46888
C     0.43887  -1.34591  -0.24719
O     1.18028  -2.27888  -0.55120
H     4.17341   0.12430  -0.59230
H     3.23116  -1.08973   0.33296
H     3.20280   0.63911   0.82771
H     1.43545   4.02094  -0.68620
H     1.79718   2.59555  -1.71800
H     2.37771   2.65035  -0.01467
H    -3.75017  -1.37278   0.37298
H    -3.13404  -1.34992   2.02962
H    -3.66067   0.17544   1.26084
H    -2.24095  -3.25676  -0.13908
H    -1.62979  -3.21888   1.51825
H    -0.54396  -3.71658   0.18648
