29
Generated by autodE on: 2022-06-25. E = -688.602144 Ha
N    -0.50640   4.45510   2.35009
C    -0.69618   3.39867   1.86852
C    -0.94361   2.14933   1.30704
N     0.07987   1.44467   0.74389
C     0.10518   0.26697   0.12692
C    -1.15237  -0.44961  -0.16417
C    -1.27817  -1.81198   0.16635
C    -2.45192  -2.50837  -0.12573
C    -3.51568  -1.85898  -0.75998
C    -3.39801  -0.50707  -1.10123
C    -2.22927   0.19412  -0.80355
C     1.40835  -0.29839  -0.23770
C     2.59175   0.04447   0.45458
C     3.82460  -0.47777   0.06468
C     3.90958  -1.36745  -1.01153
C     2.74400  -1.72855  -1.69657
C     1.50973  -1.20372  -1.31725
H    -1.94203   1.71932   1.32131
H     0.99111   1.90268   0.82327
H    -0.44855  -2.32348   0.65814
H    -2.53608  -3.56365   0.14405
H    -4.43349  -2.40488  -0.99040
H    -4.22054   0.00402  -1.60689
H    -2.14565   1.24614  -1.08338
H     2.55318   0.70248   1.32634
H     4.72429  -0.20080   0.61921
H     4.87544  -1.78136  -1.30955
H     2.79690  -2.42095  -2.54014
H     0.61296  -1.48154  -1.87262
