29
Generated by autodE on: 2022-07-27. E = -688.602137 Ha
N     2.34285  -0.32873  -4.47850
C     2.05483  -0.40268  -3.34028
C     1.73676  -0.50045  -1.98842
N     0.57575   0.04483  -1.52324
C     0.03514   0.06302  -0.30845
C    -1.16880   0.87187  -0.09142
C    -2.06732   0.53599   0.94571
C    -3.23122   1.27490   1.15105
C    -3.53248   2.36739   0.33019
C    -2.64896   2.71746  -0.69636
C    -1.47832   1.98798  -0.90133
C     0.65133  -0.70680   0.79094
C     0.89939  -0.08777   2.03022
C     1.45791  -0.81026   3.08574
C     1.76965  -2.16385   2.92404
C     1.51902  -2.79143   1.69874
C     0.96839  -2.07017   0.63899
H     2.40770  -0.99749  -1.29211
H     0.03481   0.53664  -2.23868
H    -1.85616  -0.32354   1.58310
H    -3.91323   0.99012   1.95571
H    -4.44453   2.94567   0.49378
H    -2.86285   3.57871  -1.33364
H    -0.78827   2.31532  -1.68273
H     0.65320   0.96770   2.16128
H     1.65092  -0.31298   4.03914
H     2.20457  -2.72966   3.75115
H     1.74956  -3.85137   1.56881
H     0.76798  -2.57227  -0.30960
