44
Generated by autodE on: 2022-06-18. E = -979.656985 Ha
C    -5.74401   0.45075  -0.78523
C    -4.62329   0.39848  -0.03715
C    -4.66005   0.55743   1.45989
C    -3.32639   0.17835  -0.68705
C    -2.14026   0.10264  -0.05600
C    -0.84612  -0.13680  -0.76134
C    -0.09756  -1.44227  -0.32278
C    -0.76320  -2.73702  -0.70709
C     0.15877  -1.26516   1.18007
O    -0.38010  -1.77124   2.13403
O     1.14128  -0.34142   1.28597
C     1.44688   0.04420  -0.11464
C     2.82307   0.67022  -0.18655
O     3.48759   0.67636  -1.20003
O     3.17139   1.25340   0.95112
C     4.43494   1.94288   0.96328
N     1.25254  -1.16624  -0.87048
C     2.24392  -2.22232  -0.66347
C     0.27055   0.96954  -0.58128
C    -0.05323   2.04834   0.45427
C     0.57685   1.63728  -1.92358
H    -6.72616   0.61144  -0.33179
H    -5.70467   0.33321  -1.87252
H    -4.24672  -0.33271   1.96280
H    -4.04498   1.41392   1.78259
H    -5.68703   0.71312   1.81904
H    -3.34938   0.06896  -1.77772
H    -2.10235   0.20671   1.03161
H    -1.04242  -0.26080  -1.83472
H    -0.85961  -2.80707  -1.80028
H    -0.20287  -3.60769  -0.33846
H    -1.77038  -2.76962  -0.26745
H     5.25135   1.24083   0.74392
H     4.43179   2.75156   0.21902
H     4.54231   2.35177   1.97382
H     3.21851  -1.88036  -1.03377
H     2.35624  -2.52814   0.39351
H     1.95539  -3.10471  -1.24875
H    -0.90990   2.64516   0.10887
H     0.80594   2.72551   0.57466
H    -0.30232   1.63578   1.43950
H     1.33885   2.42440  -1.81604
H     0.92653   0.91139  -2.66924
H    -0.34130   2.10894  -2.30641
