21
Generated by autodE on: 2022-06-18. E = -628.104521 Ha
C     3.86769  -0.05606   0.31328
O     2.52087   0.15354  -0.13337
C     1.55179  -0.32652   0.65758
O     1.75717  -0.91689   1.70802
C     0.24096  -0.04892   0.09542
O     0.09267   0.60559  -1.06913
C    -1.28548   0.73047  -1.36090
O    -1.66183   1.29584  -2.37997
C    -1.94112   0.09634  -0.27447
C    -3.39782  -0.07043  -0.05784
N    -0.97209  -0.35511   0.57495
C    -1.27542  -1.06308   1.81862
H     4.03229   0.43201   1.28491
H     4.51039   0.39534  -0.45108
H     4.08154  -1.13095   0.40388
H    -3.73662   0.42292   0.86863
H    -3.68623  -1.13292   0.00679
H    -3.93278   0.38150  -0.90409
H    -1.90526  -0.41850   2.44532
H    -0.34275  -1.30204   2.33278
H    -1.82625  -1.98142   1.57658
