44
Generated by autodE on: 2022-06-18. E = -979.609875 Ha. Imaginary frequency = -410.7 cm-1
C    -5.51607  -0.93216   0.44992
C    -4.40244  -0.17614   0.58719
C    -4.29774   0.87226   1.66622
C    -3.26028  -0.38105  -0.29439
C    -2.10868   0.34643  -0.26766
C    -0.95947   0.07903  -1.08099
C     0.26006  -1.79993   0.09388
C    -0.37078  -3.09476  -0.23971
C    -0.07968  -0.97177   1.21761
O    -0.92054  -1.08265   2.09603
O     0.81810   0.08796   1.18257
C     1.48776   0.02144  -0.03234
C     2.78129   0.75834  -0.06493
O     3.63346   0.60983  -0.92084
O     2.85438   1.66033   0.90992
C     4.00075   2.52710   0.89818
N     1.41520  -1.31637  -0.43336
C     2.06677  -1.91892  -1.58631
C     0.17600   0.94708  -1.20937
C     0.09446   2.33025  -0.57946
C     0.82326   0.97679  -2.58498
H    -6.37758  -0.80525   1.11129
H    -5.58725  -1.69835  -0.32837
H    -3.43900   0.66243   2.32525
H    -4.12947   1.87380   1.23679
H    -5.20974   0.90847   2.27854
H    -3.34696  -1.19805  -1.02057
H    -2.02655   1.16278   0.45373
H    -1.07406  -0.70088  -1.83920
H    -0.35829  -3.28631  -1.32206
H     0.14246  -3.93356   0.26232
H    -1.41279  -3.08073   0.11127
H     3.87672   3.19784   1.75553
H     4.03105   3.10332  -0.03755
H     4.92477   1.94118   1.00123
H     2.95918  -1.34238  -1.83923
H     2.35262  -2.94869  -1.33222
H     1.38435  -1.94533  -2.44850
H    -0.69107   2.92224  -1.07740
H     1.04312   2.87349  -0.70256
H    -0.13843   2.29325   0.49253
H     0.27371   1.69146  -3.22172
H     0.78647   0.00025  -3.08556
H     1.86948   1.31272  -2.54891
