46
Generated by autodE on: 2022-06-20. E = -1001.754351 Ha
C    -3.27875   2.56879  -1.61562
O    -2.88216   1.38748  -0.90101
C    -1.64944   1.36560  -0.41429
O    -0.87949   2.29921  -0.50664
C    -1.30046   0.04609   0.31016
C    -2.37568  -0.19829   1.40380
C    -1.89042  -0.22812   2.82199
O    -3.54245  -0.36130   1.10424
O    -0.04716   0.24584   0.92586
C     0.91462  -0.72481   0.50835
C     2.30044  -0.13752   0.57017
C     2.52295   1.23760   0.40883
C     3.82338   1.74908   0.42160
C     4.91710   0.89354   0.59073
C     4.70144  -0.47825   0.75724
C     3.40023  -0.98821   0.75393
C     0.43064  -1.20769  -0.88363
C     0.84584  -0.23746  -2.00009
C     1.01490  -2.58295  -1.21919
C    -1.13265  -1.21986  -0.65183
C    -1.94138  -1.13549  -1.94711
C    -1.56977  -2.50419   0.07876
H    -2.63119   2.71728  -2.49151
H    -4.31343   2.39459  -1.93135
H    -3.22094   3.44966  -0.96100
H    -1.41224   0.73107   3.07382
H    -1.11902  -1.00444   2.94158
H    -2.73653  -0.42397   3.49303
H     0.87724  -1.58438   1.19982
H     1.67046   1.90304   0.27202
H     3.98367   2.82299   0.29720
H     5.93329   1.29506   0.59942
H     5.54880  -1.15337   0.89957
H     3.23307  -2.05812   0.90057
H     0.47276   0.78268  -1.84892
H     0.48114  -0.59588  -2.97291
H     1.94217  -0.18519  -2.06040
H     2.08936  -2.48501  -1.43681
H     0.53288  -3.00203  -2.11603
H     0.90681  -3.30369  -0.39779
H    -1.72647  -0.23912  -2.54104
H    -1.71627  -2.01704  -2.56724
H    -3.01746  -1.14345  -1.72452
H    -1.36184  -3.37880  -0.55102
H    -1.05623  -2.64696   1.04027
H    -2.65001  -2.49361   0.26846
