28
Generated by autodE on: 2022-07-27. E = -765.711909 Ha
C    -3.98507   1.97732  -1.49997
O    -3.38106   0.96444  -0.69068
C    -2.03515   0.91046  -0.70090
O    -1.35939   1.69006  -1.36659
C    -1.48351  -0.13941   0.13748
O    -0.11094  -0.08278   0.05897
C     0.82638  -0.76855   0.58948
C     2.18235  -0.41550   0.28334
C     2.49660   0.65888  -0.58163
C     3.82599   0.96438  -0.84286
C     4.85196   0.21061  -0.25119
C     4.54806  -0.85411   0.60503
C     3.21884  -1.17014   0.87428
C    -2.11632  -1.12916   0.95463
C    -3.62537  -1.19699   1.04197
O    -1.43594  -1.95109   1.60636
H    -3.72488   1.83939  -2.55992
H    -5.06735   1.86655  -1.36208
H    -3.66506   2.97924  -1.17778
H     0.56440  -1.59175   1.25543
H     1.68704   1.23508  -1.03287
H     4.07381   1.79313  -1.50928
H     5.89520   0.45757  -0.46085
H     5.35099  -1.43601   1.06189
H     2.96611  -1.99785   1.54077
H    -4.07797  -1.35277   0.05230
H    -4.04442  -0.26357   1.44476
H    -3.88374  -2.03394   1.70436
