46
Generated by autodE on: 2022-06-20. E = -1001.686411 Ha. Imaginary frequency = -252.0 cm-1
C    -3.85722   2.54397  -1.20679
O    -3.25237   1.63227  -0.28642
C    -1.90602   1.61159  -0.25502
O    -1.23516   2.36855  -0.95446
C    -1.34072   0.59415   0.61068
C    -1.98316  -0.21799   1.60587
C    -3.49326  -0.28301   1.68421
O    -1.31552  -0.89671   2.41534
O     0.03086   0.70869   0.60293
C     0.83968  -0.33264   0.68797
C     2.25933  -0.00503   0.61885
C     2.69922   1.20731   0.04928
C     4.06073   1.48795  -0.02941
C     4.99960   0.56697   0.45476
C     4.57047  -0.63418   1.02886
C     3.20753  -0.91991   1.11385
C     0.41394  -1.44802  -1.15217
C     1.05392  -0.57367  -2.20849
C     1.19557  -2.70029  -0.79881
C    -0.98941  -1.51266  -1.09593
C    -1.84443  -0.79284  -2.09581
C    -1.65918  -2.61045  -0.32920
H    -3.56248   2.30844  -2.24020
H    -4.94000   2.41661  -1.08814
H    -3.57313   3.58136  -0.97752
H    -3.93656  -0.57420   0.72180
H    -3.75443  -1.02302   2.45246
H    -3.92174   0.69354   1.95266
H     0.52493  -1.16853   1.30949
H     1.96208   1.91921  -0.32437
H     4.39664   2.42874  -0.47128
H     6.06699   0.79044   0.38935
H     5.30049  -1.34757   1.41747
H     2.86690  -1.84911   1.57400
H     0.67911   0.45901  -2.17162
H     0.84270  -0.96894  -3.21774
H     2.14532  -0.54563  -2.08723
H     2.27419  -2.49602  -0.76936
H     1.02557  -3.46776  -1.57462
H     0.90162  -3.13834   0.16447
H    -1.42883   0.16721  -2.42115
H    -1.91220  -1.43346  -2.99779
H    -2.86791  -0.63961  -1.72912
H    -1.54698  -3.56191  -0.88245
H    -1.21337  -2.76418   0.66371
H    -2.73361  -2.42046  -0.20888
