40
Generated by autodE on: 2022-06-06. E = -1068.570422 Ha
C    -0.59687   3.48389  -0.41561
N    -0.76535   2.04894  -0.56286
C    -0.76111   1.23622   0.49549
O    -0.75949   1.58173   1.67913
C    -0.89882  -0.25459   0.22015
C    -2.25347  -0.79018   0.07022
C    -3.29631  -0.28625   0.87240
C    -4.59403  -0.76336   0.70358
C    -4.86972  -1.71624  -0.28349
C    -3.84291  -2.19533  -1.10395
C    -2.53678  -1.74285  -0.92806
N     0.19113  -0.96401   0.21381
C     0.22111  -2.43037   0.27673
C     1.45645  -0.29971   0.02442
C     1.63815   0.23724  -1.28930
O     0.76309   0.22582  -2.17082
O     2.84909   0.78833  -1.52744
C     3.04069   1.36912  -2.81871
C     2.31213  -0.32680   1.17456
O     1.98042  -0.81768   2.25784
O     3.53022   0.24099   1.00574
C     4.38396   0.25768   2.15028
H     0.44988   3.74612  -0.18889
H    -1.23184   3.85253   0.40100
H    -0.89177   3.97670  -1.35026
H    -0.55396   1.61507  -1.46389
H    -3.07757   0.45840   1.63869
H    -5.39586  -0.38605   1.34142
H    -5.89054  -2.08029  -0.41936
H    -4.06066  -2.92327  -1.88804
H    -1.74318  -2.09676  -1.58636
H    -0.70926  -2.82094   0.70280
H     1.06775  -2.70900   0.91409
H     0.38006  -2.83392  -0.73263
H     2.32764   2.18900  -2.99340
H     2.92561   0.61803  -3.61443
H     4.06549   1.76072  -2.82235
H     3.92442   0.81385   2.98147
H     5.30590   0.76012   1.83180
H     4.61426  -0.76380   2.48926
