64
Generated by autodE on: 2022-06-09. E = -1509.300889 Ha
C    -2.71774  -3.48740  -7.22680
N    -1.32177  -3.25314  -7.53341
C    -0.35175  -3.62569  -6.67634
O    -0.54253  -4.30797  -5.66509
N     0.94856  -3.25347  -7.05065
N     1.07863  -2.22231  -8.00630
C     1.80068  -1.13252  -7.29992
C     2.63163  -0.38629  -8.33727
C     0.63230  -0.30179  -6.69219
C     0.14845   0.90173  -7.44277
O     0.08140  -0.69693  -5.67849
C     2.57794  -1.89052  -6.19080
C     2.00660  -3.10998  -6.08694
C     2.35552  -4.37943  -5.28601
C     2.00872  -5.55945  -6.11059
N     1.84266  -6.51498  -6.74482
C     1.57962  -4.46473  -4.02628
N     1.10033  -4.55808  -2.97521
C     3.85463  -4.56945  -4.86293
C     4.89011  -4.59192  -5.98255
C     4.90632  -3.42202  -6.96692
C     5.04423  -1.99837  -6.41642
C     3.87487  -1.36456  -5.57706
C     3.95756   0.18752  -5.64164
C     2.90600   0.96261  -5.12458
C     2.94248   2.35686  -5.16508
C     4.05661   3.01696  -5.69250
C     5.13245   2.26021  -6.16005
C     5.08431   0.86201  -6.13341
C     3.97132  -1.60454  -4.05196
C     5.21689  -1.62640  -3.40387
C     5.30241  -1.75943  -2.01656
C     4.14201  -1.85622  -1.24179
C     2.89762  -1.80478  -1.87288
C     2.81466  -1.67317  -3.26134
H    -3.31453  -3.33119  -8.13463
H    -3.09154  -2.80985  -6.43967
H    -2.86307  -4.52130  -6.88478
H    -1.05974  -2.55345  -8.22258
H     1.68573  -2.57241  -8.75265
H     3.03546   0.55472  -7.95312
H     3.46583  -1.01706  -8.67431
H     2.00531  -0.16035  -9.21183
H    -0.75384   1.29945  -6.96124
H     0.93435   1.67267  -7.45685
H    -0.06608   0.63721  -8.48949
H     3.89154  -5.52518  -4.32038
H     4.08522  -3.79428  -4.13072
H     5.87007  -4.65896  -5.48111
H     4.77832  -5.52372  -6.56110
H     5.77530  -3.57485  -7.62801
H     4.03036  -3.48166  -7.63027
H     5.17431  -1.35967  -7.29808
H     5.98134  -1.91572  -5.85017
H     2.04444   0.47715  -4.67192
H     2.09701   2.92793  -4.77426
H     4.09085   4.10835  -5.72478
H     6.02146   2.75678  -6.55649
H     5.94176   0.31046  -6.51378
H     6.13862  -1.54106  -3.97939
H     6.28487  -1.78629  -1.53899
H     4.20900  -1.96573  -0.15693
H     1.97895  -1.87806  -1.28643
H     1.83328  -1.63764  -3.73345
