22
Generated by autodE on: 2022-07-27. E = -550.203771 Ha
C    -2.38511  -2.75702  -0.07062
N    -1.78687  -1.70196  -0.85779
C    -0.57409  -1.17819  -0.54572
O     0.03003  -1.48337   0.49502
N    -0.07428  -0.37830  -1.56094
N     0.90590   0.44272  -1.25789
C     1.23590   1.12268  -0.16955
C     2.55776   1.82462  -0.18393
C     0.29112   1.32550   0.95403
C     0.86697   1.89515   2.22160
O    -0.91158   1.10794   0.83753
H    -3.44855  -2.84397  -0.32960
H    -1.90540  -3.73835  -0.23858
H    -2.30336  -2.52208   1.00000
H    -2.14119  -1.52051  -1.79060
H     1.54031   0.59898  -2.05050
H     3.04230   1.72818  -1.16662
H     3.23552   1.38982   0.56929
H     2.45085   2.89401   0.05315
H     1.71063   1.27886   2.57126
H     0.08435   1.93468   2.98986
H     1.25887   2.91001   2.04732
