42
Generated by autodE on: 2022-06-09. E = -959.007766 Ha
N    -3.74844   0.76539  -3.05081
C    -3.39832   0.11972  -2.15467
C    -2.91108  -0.72564  -1.04208
C    -4.05488  -1.05783  -0.16800
N    -4.93353  -1.35206   0.52754
C    -1.83667  -0.03167  -0.31933
C    -0.67619   0.19489  -0.06005
C     0.78579   0.16248  -0.05163
C     1.35505   1.58928   0.00494
C     2.37439   2.03086  -0.84692
C     2.88674   3.32844  -0.72582
C     2.38556   4.19907   0.24375
C     1.36597   3.76417   1.09853
C     0.85857   2.47020   0.97877
C     1.33144  -0.64809   1.14047
C     2.72013  -0.70626   1.33898
C     3.25993  -1.45657   2.38424
C     2.41879  -2.16002   3.25445
C     1.03678  -2.10481   3.06577
C     0.49679  -1.35433   2.01447
C     1.11930  -0.58144  -1.39271
C     0.37232  -1.90923  -1.63467
C    -0.97787  -1.87065  -2.40376
C    -2.28700  -2.05694  -1.61745
H     2.78452   1.36924  -1.60960
H     3.68304   3.65668  -1.39820
H     2.78528   5.21178   0.33453
H     0.96452   4.43599   1.86104
H     0.06633   2.13339   1.65227
H     3.38642  -0.15511   0.67231
H     4.34330  -1.48928   2.52266
H     2.84066  -2.74525   4.07488
H     0.36825  -2.64787   3.73817
H    -0.58489  -1.32172   1.87755
H     2.20162  -0.77411  -1.39277
H     0.91613   0.10872  -2.22581
H     1.05381  -2.53161  -2.23377
H     0.24580  -2.45065  -0.68238
H    -0.96268  -2.70305  -3.12331
H    -1.03889  -0.95761  -3.02009
H    -3.05736  -2.51387  -2.25584
H    -2.13082  -2.72003  -0.75378
