64
Generated by autodE on: 2022-06-09. E = -1509.202191 Ha. Imaginary frequency = -162.4 cm-1
C    -2.79695  -3.44602  -7.50946
N    -1.48434  -3.05325  -7.98702
C    -0.37925  -3.70528  -7.51679
O    -0.46423  -4.82599  -6.99610
N     0.86077  -3.16205  -7.79751
N     0.98641  -1.86433  -8.03810
C     0.88901  -0.84919  -7.18805
C     1.26236   0.49532  -7.71436
C     0.21892  -0.96672  -5.85370
C     0.36583   0.21857  -4.94048
O    -0.44907  -1.94148  -5.53168
C     2.81180  -2.28854  -5.80518
C     2.31357  -3.36524  -6.14707
C     2.34438  -4.82769  -5.87428
C     2.25569  -5.66230  -7.08733
N     2.32353  -6.34968  -8.01803
C     1.26308  -5.16260  -4.92106
N     0.53611  -5.39466  -4.04798
C     3.69255  -5.15561  -5.12752
C     4.97997  -4.90986  -5.91518
C     5.33123  -3.47394  -6.34800
C     5.22813  -2.40925  -5.24034
C     3.90639  -1.51748  -5.16852
C     4.13835  -0.19391  -5.93239
C     3.94736   1.06720  -5.35218
C     4.16840   2.23954  -6.08601
C     4.58497   2.17320  -7.41607
C     4.76974   0.91988  -8.00963
C     4.54422  -0.24602  -7.27706
C     3.59907  -1.29188  -3.67967
C     4.57311  -0.69094  -2.86256
C     4.35028  -0.50544  -1.49795
C     3.14759  -0.92437  -0.91665
C     2.17945  -1.53393  -1.71571
C     2.40529  -1.71814  -3.08513
H    -2.92053  -3.26242  -6.42751
H    -3.56000  -2.87246  -8.05191
H    -2.96921  -4.51492  -7.69559
H    -1.37568  -2.07420  -8.22827
H     1.53598  -1.64591  -8.87666
H     1.79405   0.40857  -8.67122
H     1.89479   1.04030  -7.00502
H     0.35044   1.09606  -7.87110
H     1.41610   0.52134  -4.83765
H    -0.05322  -0.03079  -3.95867
H    -0.18276   1.07628  -5.36426
H     3.64700  -6.21496  -4.83333
H     3.67335  -4.55814  -4.20484
H     5.78866  -5.27941  -5.26249
H     4.99132  -5.56054  -6.80520
H     6.37463  -3.50039  -6.70025
H     4.73250  -3.19407  -7.22428
H     6.07238  -1.71000  -5.31482
H     5.33430  -2.91124  -4.26844
H     3.61916   1.15069  -4.31725
H     4.00796   3.20878  -5.60769
H     4.75885   3.08748  -7.98815
H     5.08536   0.84770  -9.05322
H     4.67955  -1.20972  -7.76852
H     5.51620  -0.35832  -3.30006
H     5.12070  -0.03221  -0.88428
H     2.97180  -0.77984   0.15194
H     1.23844  -1.87454  -1.27700
H     1.63972  -2.20599  -3.68769
