26
Generated by autodE on: 2022-05-28. E = -743.649183 Ha
C     4.40087   0.84733   0.96372
O     3.00635   0.53261   1.08201
C     2.31201   0.41506  -0.05874
O     2.80881   0.56470  -1.15982
C     0.90076   0.08665   0.22753
C    -0.06992  -0.14223  -0.67599
C    -0.05431  -0.14888  -2.16058
C    -1.35334  -0.44594   0.10825
C    -1.84453  -1.80645  -0.20509
N    -2.21265  -2.88549  -0.41597
C    -2.45212   0.59209  -0.27822
C    -2.49047   1.83179   0.55164
O    -3.16937   0.36164  -1.22759
O    -1.00974  -0.35908   1.47203
C     0.38569  -0.05921   1.62954
H     4.53514   1.81012   0.44977
H     4.78469   0.90675   1.98849
H     4.92578   0.05890   0.40508
H     0.95884   0.00852  -2.54341
H    -0.44500  -1.10759  -2.54022
H    -0.71496   0.63997  -2.55642
H    -1.47838   2.25309   0.65493
H    -3.17275   2.56258   0.09986
H    -2.83119   1.57128   1.56666
H     0.49134   0.86684   2.21819
H     0.88649  -0.87570   2.17622
