13
Generated by autodE on: 2022-05-28. E = -344.695463 Ha
C    -3.46741   0.15593   0.25872
C    -2.02982   0.01789   0.11599
C    -0.82521  -0.09292   0.00072
C     0.59625  -0.28579  -0.16223
O     1.10128  -1.28481  -0.63972
O     1.29670   0.76747   0.27597
C     2.72572   0.67681   0.16059
H    -3.99801  -0.62705  -0.30552
H    -3.75535   0.07330   1.31952
H    -3.80120   1.14010  -0.10743
H     3.10511  -0.17656   0.74114
H     3.11927   1.61638   0.56487
H     3.01998   0.56218  -0.89273
