13
Generated by autodE on: 2022-05-28. E = -398.825294 Ha
C    -2.08141  -1.05505   0.87559
O    -0.85987  -1.00665   0.54887
C    -0.14252   0.02762   0.02800
C    -0.78049   1.25663  -0.20842
N    -1.33306   2.26974  -0.39626
C     1.24827  -0.20975  -0.25180
C     1.80340  -1.58031   0.05399
O     1.94933   0.69307  -0.72795
H    -2.72922  -0.17933   0.75293
H    -2.42194  -2.01199   1.27598
H     2.86910  -1.59644  -0.20815
H     1.26934  -2.35406  -0.51983
H     1.68093  -1.82226   1.12147
