26
Generated by autodE on: 2022-05-28. E = -743.527386 Ha. Imaginary frequency = -250.6 cm-1
C     4.39408   0.09812   1.10050
O     3.07821  -0.21993   0.61828
C     2.47815   0.70449  -0.13884
O     2.97388   1.77530  -0.42718
C     1.15601   0.27461  -0.56885
C     0.27387  -0.01246  -1.38188
C    -0.60093  -0.33058  -2.49601
C    -1.68528  -0.35662   0.47771
C    -1.47085  -1.74727   0.38407
N    -1.29493  -2.89902   0.30032
C    -2.81493   0.28901  -0.14687
C    -2.98847   1.76767   0.08665
O    -3.56379  -0.35868  -0.88755
O    -0.89836   0.40246   1.28134
C     0.30770   0.09555   1.59976
H     4.36430   1.00355   1.72339
H     4.70972  -0.76476   1.69769
H     5.08438   0.25256   0.25903
H    -0.00149  -0.38477  -3.42079
H    -1.10551  -1.29837  -2.35315
H    -1.36956   0.44573  -2.63071
H    -2.12673   2.31534  -0.32782
H    -3.90876   2.10224  -0.40876
H    -3.03487   1.99734   1.16217
H     0.83110   0.85288   2.18655
H     0.64248  -0.94447   1.56903
