46
Generated by autodE on: 2022-06-02. E = -3609.382155 Ha
C    -3.03857  -1.18192   2.01584
C    -1.85585  -1.83610   1.37372
O    -1.25137  -2.75931   1.88569
C    -1.38272  -1.35830  -0.03851
C    -2.24605  -2.21500  -0.99875
C    -1.54191  -3.21032  -1.86552
O    -3.45574  -2.07448  -0.99548
N     0.03838  -1.59599  -0.22297
C     0.80296  -0.47036   0.29633
C     0.99861  -0.62961   1.76578
N     1.19596  -0.89032   2.87963
C     2.20238  -0.37588  -0.32141
C     2.55006  -1.15591  -1.42816
C     3.81548  -1.02447  -2.00953
C     4.73889  -0.11428  -1.49005
C     4.39557   0.66138  -0.37706
C     3.13596   0.52713   0.20820
C    -0.13145   0.77002  -0.05633
Br   -0.12531   2.05923   1.45903
C     0.20936   1.46762  -1.39605
C    -0.68863   2.70361  -1.60476
C    -2.10588   2.09078  -1.78638
C    -1.83226   0.57116  -1.77320
C    -0.43268   0.49437  -2.41062
C    -1.55408   0.16105  -0.30487
H    -2.72535  -0.20350   2.41806
H    -3.83198  -0.99782   1.27839
H    -3.40439  -1.80391   2.84291
H    -2.27611  -3.76080  -2.46722
H    -0.81694  -2.69501  -2.51320
H    -0.96602  -3.90880  -1.23671
H     0.33785  -2.48667   0.17349
H     1.82792  -1.86348  -1.83372
H     4.07763  -1.63917  -2.87376
H     5.72607  -0.01158  -1.94652
H     5.11265   1.37211   0.03986
H     2.87777   1.13557   1.07745
H     1.27848   1.67226  -1.51163
H    -0.35788   3.21750  -2.51866
H    -0.62734   3.42349  -0.78035
H    -2.80195   2.38645  -0.98727
H    -2.55372   2.39133  -2.74444
H    -2.62372  -0.01720  -2.24910
H    -0.00074  -0.51115  -2.41327
H    -0.40531   0.90245  -3.43162
H    -2.31220   0.58676   0.35682
