46
Generated by autodE on: 2022-06-02. E = -3609.313775 Ha. Imaginary frequency = -300.2 cm-1
C    -3.07046  -1.28314   1.95548
C    -1.72815  -1.80892   1.53724
O    -0.97027  -2.31630   2.35422
C    -1.27734  -1.71474   0.10579
C    -2.14734  -2.34676  -0.93028
C    -1.49361  -3.02675  -2.11062
O    -3.36978  -2.28980  -0.84826
N     0.08377  -1.79445  -0.11939
C     1.02923  -0.95867   0.39261
C     1.08523  -0.66144   1.78375
N     1.26039  -0.36550   2.89668
C     2.29210  -0.74120  -0.34465
C     2.63734  -1.48573  -1.48835
C     3.80921  -1.20455  -2.19127
C     4.66055  -0.17924  -1.76931
C     4.33112   0.56157  -0.62961
C     3.16338   0.28310   0.07814
C    -0.41266   1.09015  -0.03646
Br   -0.33454   2.13925   1.56099
C     0.19906   1.66316  -1.30810
C    -0.74567   2.81989  -1.75403
C    -2.05755   2.06954  -2.12818
C    -1.68869   0.56734  -1.90348
C    -0.20725   0.57958  -2.32613
C    -1.59519   0.41786  -0.38724
H    -2.93335  -0.23511   2.27450
H    -3.80157  -1.30447   1.14155
H    -3.42340  -1.85253   2.82609
H    -2.28094  -3.46740  -2.73397
H    -0.92752  -2.30260  -2.71835
H    -0.79764  -3.81652  -1.78639
H     0.31766  -2.11358  -1.05503
H     2.01095  -2.30737  -1.84061
H     4.05946  -1.79891  -3.07269
H     5.57635   0.03868  -2.32298
H     4.98609   1.36653  -0.28901
H     2.91208   0.87868   0.95700
H     1.26210   1.92532  -1.24551
H    -0.31271   3.33193  -2.62622
H    -0.88545   3.56502  -0.95913
H    -2.91680   2.37399  -1.51320
H    -2.32682   2.22927  -3.18292
H    -2.35751  -0.13496  -2.41468
H     0.31190  -0.37400  -2.20600
H    -0.06986   0.91559  -3.36421
H    -2.50095   0.48184   0.21358
