64
Generated by autodE on: 2022-10-25. E = -4031.765952 Ha
C     3.02509 -13.22989  -3.04684
O     3.41835 -14.36848  -2.26306
C     2.63031 -14.68739  -1.24652
O     1.64718 -14.04034  -0.94583
C     3.18839 -15.81501  -0.32563
C     4.24287 -16.77485  -0.97179
C     5.10040 -17.53441   0.00930
O     4.44316 -16.83151  -2.16717
C     2.00497 -16.50079   0.40558
C     1.85815 -15.93484   1.63033
C     0.74820 -16.01623   2.71238
O    -0.54910 -15.87425   2.18394
C    -0.82721 -14.64018   1.52551
O     1.02246 -14.90191   3.54727
C     0.15663 -14.64685   4.64176
C     0.79992 -17.30828   3.55125
C     0.07124 -18.54211   3.03048
C     0.54991 -19.05509   1.67642
C     0.05242 -18.21932   0.48195
C     1.11217 -17.49005  -0.34146
Br    2.29330 -19.07494  -0.98123
C     0.52171 -16.83776  -1.59531
C     1.23513 -16.71128  -2.79771
C     0.70660 -15.99877  -3.87638
C    -0.55154 -15.40021  -3.77937
C    -1.28060 -15.53792  -2.59593
C    -0.75291 -16.25199  -1.51781
C     3.03848 -14.98762   1.92687
C     3.83585 -15.35265   3.19673
C     2.57421 -13.57291   2.01046
N     2.33517 -12.43669   1.99891
N     3.89289 -15.15176   0.76009
C     4.88680 -14.14242   0.44933
H     3.00311 -12.32562  -2.42254
H     3.78098 -13.13420  -3.83437
H     2.03212 -13.40004  -3.48629
H     5.95474 -16.89684   0.28964
H     5.48757 -18.43557  -0.48310
H     4.56245 -17.79325   0.92942
H    -0.12006 -14.44761   0.70631
H    -0.80064 -13.79228   2.22704
H    -1.84136 -14.73098   1.11552
H    -0.88200 -14.93215   4.41784
H     0.19486 -13.56318   4.82538
H     0.48871 -15.17014   5.55361
H     0.37610 -17.06151   4.53428
H     1.86294 -17.53965   3.71825
H    -1.01277 -18.34559   2.99557
H     0.21439 -19.33462   3.78308
H     0.20177 -20.09042   1.54474
H     1.64913 -19.11136   1.68235
H    -0.49915 -18.85411  -0.22403
H    -0.65420 -17.46778   0.84416
H     2.22079 -17.15940  -2.89767
H     1.28966 -15.91097  -4.79581
H    -0.96363 -14.83833  -4.62063
H    -2.27118 -15.08642  -2.50407
H    -1.34302 -16.33160  -0.60838
H     3.25619 -15.17667   4.10760
H     4.11627 -16.41299   3.13320
H     4.75271 -14.74771   3.23706
H     5.49776 -13.94076   1.34025
H     5.55889 -14.51309  -0.33732
H     4.45511 -13.18183   0.10767
