26
Generated by autodE on: 2022-10-25. E = -685.642201 Ha
C     2.93797  -1.84598  -1.28998
O     1.67296  -1.25373  -0.99088
C     1.68656  -0.18328  -0.15241
O     2.72734   0.19728   0.37458
C     0.36480   0.36584   0.04403
C     0.03046   1.43445   0.95762
C     1.13892   2.11744   1.72759
O    -1.14135   1.82400   1.11748
N    -0.67566  -0.08049  -0.80553
C    -0.52756   0.05582  -2.26606
C    -1.85615  -0.38849  -0.31930
C    -3.07900  -0.51446  -1.16258
C    -1.96305  -0.70469   1.07228
N    -2.13009  -1.04707   2.17075
H     2.73123  -2.66451  -1.99024
H     3.61539  -1.11534  -1.75705
H     3.41106  -2.24322  -0.37957
H     0.69721   2.94323   2.30069
H     1.92779   2.49358   1.06224
H     1.61735   1.40561   2.41728
H    -1.18105   0.87013  -2.61139
H    -0.81250  -0.87877  -2.76541
H     0.51020   0.30509  -2.49338
H    -3.95514  -0.72792  -0.54007
H    -2.95325  -1.33008  -1.89365
H    -3.25058   0.41588  -1.72715
