38
Generated by autodE on: 2022-10-25. E = -3346.050530 Ha
C    -2.85201   4.22926   1.05858
O    -2.00129   3.10731   1.26788
C    -1.20933   2.71491   0.16714
O    -0.29659   3.72737  -0.19687
C     0.62462   4.11526   0.81379
C    -0.50779   1.46777   0.53805
C    -0.03507   0.36772   0.34966
C     0.32305  -0.86380  -0.32055
Br   -1.01564  -2.28042   0.37943
C     1.70371  -1.39824  -0.02100
C     2.46629  -0.85209   1.02069
C     3.74980  -1.33505   1.29104
C     4.28558  -2.37075   0.52211
C     3.52879  -2.92253  -0.51846
C     2.24774  -2.44138  -0.78826
C     0.02652  -0.65247  -1.82478
C    -1.28268   0.07706  -2.18037
C    -1.27593   1.63213  -2.21148
C    -2.03149   2.38713  -1.09865
H    -3.72994   3.97087   0.44362
H    -3.19879   4.54862   2.05110
H    -2.31284   5.06458   0.58440
H     0.10897   4.52014   1.69914
H     1.25538   3.26485   1.12740
H     1.26491   4.89431   0.37884
H     2.05299  -0.04147   1.62440
H     4.33119  -0.89721   2.10572
H     5.28867  -2.74934   0.73183
H     3.93890  -3.73487  -1.12291
H     1.66456  -2.89214  -1.59254
H     0.04615  -1.63479  -2.31655
H     0.88546  -0.08481  -2.22168
H    -1.54771  -0.26769  -3.19136
H    -2.09192  -0.28712  -1.52645
H    -1.74384   1.93814  -3.15927
H    -0.24080   2.00755  -2.26346
H    -2.91251   1.81088  -0.77628
H    -2.39167   3.34865  -1.49421
