64
Generated by autodE on: 2022-10-25. E = -4031.664628 Ha. Imaginary frequency = -245.0 cm-1
C     2.96807 -12.00579  -1.86966
O     3.53127 -13.20069  -1.30583
C     2.67496 -14.19246  -1.02697
O     1.49477 -14.14004  -1.27596
C     3.46116 -15.37168  -0.46210
C     4.11168 -16.02575  -1.63526
C     5.52135 -16.56838  -1.65137
O     3.47214 -16.00561  -2.68692
C     1.63118 -16.57302   0.51733
C     1.45111 -15.92370   1.56420
C     0.57153 -15.72777   2.75754
O    -0.76265 -15.51056   2.33304
C    -0.98084 -14.32293   1.57977
O     1.04550 -14.60614   3.47403
C     0.34839 -14.23154   4.65226
C     0.57105 -16.99125   3.63335
C    -0.10307 -18.25117   3.08334
C     0.57176 -19.00952   1.92694
C     0.19198 -18.57550   0.49989
C     1.21736 -17.72871  -0.29015
Br    2.86089 -18.93907  -0.50115
C     0.63030 -17.36894  -1.65471
C     1.02963 -17.92931  -2.87202
C     0.38219 -17.58396  -4.06328
C    -0.67895 -16.67734  -4.05456
C    -1.09226 -16.11938  -2.84023
C    -0.44597 -16.46453  -1.65377
C     3.43226 -14.51847   1.77040
C     3.96840 -14.58036   3.18004
C     2.70007 -13.33076   1.47491
N     2.12762 -12.32373   1.34403
N     4.01496 -15.25496   0.78665
C     4.85603 -16.35825   1.28954
H     2.24589 -11.56489  -1.16766
H     3.80989 -11.32290  -2.03068
H     2.46919 -12.23322  -2.82232
H     6.21076 -15.98801  -1.02440
H     5.85752 -16.54111  -2.69642
H     5.54711 -17.61815  -1.32374
H    -0.30178 -14.26043   0.71496
H    -0.84929 -13.41915   2.19555
H    -2.01753 -14.36589   1.21954
H    -0.74097 -14.34445   4.53808
H     0.57639 -13.17021   4.82731
H     0.68078 -14.81126   5.52963
H     0.05460 -16.72594   4.56787
H     1.62077 -17.19905   3.89456
H    -1.14528 -18.01630   2.81314
H    -0.16704 -18.94615   3.93624
H     0.28502 -20.06770   2.02428
H     1.66560 -18.98978   2.05378
H    -0.03926 -19.45130  -0.12420
H    -0.72728 -17.96974   0.53193
H     1.86265 -18.62963  -2.90015
H     0.71751 -18.02923  -5.00300
H    -1.18183 -16.40650  -4.98593
H    -1.92171 -15.40872  -2.81416
H    -0.77401 -16.01785  -0.71503
H     3.48256 -13.81418   3.79152
H     3.77915 -15.55650   3.64758
H     5.05478 -14.39594   3.18948
H     5.03249 -17.09175   0.51112
H     5.81060 -15.96408   1.65774
H     4.32771 -16.86406   2.10531
