41
Generated by autodE on: 2022-10-21. E = -1491.236491 Ha
C    -2.95762  -2.42351  -1.66570
N    -2.24371  -1.17575  -1.49163
C    -2.14764  -0.55412  -0.31138
O    -2.72163  -0.91707   0.72136
C    -1.17519   0.63090  -0.27058
C    -1.77794   1.78089   0.55340
O    -1.12393   2.53078   1.25064
O    -3.07832   1.94561   0.31873
C    -3.71106   3.08517   0.92156
C     0.16078   0.18049   0.38453
C     0.57251  -1.30563   0.14351
O     1.06505  -1.26971  -1.20431
C     2.08377  -0.28800  -0.97833
C     2.82214  -0.88089   0.22684
O     4.07255  -0.60545   0.61986
C     4.97795  -0.11118  -0.37215
C     1.86288  -1.52717   0.91642
Cl    1.93446  -2.16009   2.52274
C     1.27650   0.92379  -0.41666
C     0.53462   1.74732  -1.46631
N    -0.78315   1.12609  -1.59763
C    -1.73669   1.93635  -2.34033
H    -3.22099  -2.55000  -2.72390
H    -3.87807  -2.41251  -1.06633
H    -2.34993  -3.28823  -1.34802
H    -1.62316  -0.82870  -2.21985
H    -4.76092   3.04703   0.60992
H    -3.24077   4.01386   0.56823
H    -3.63558   3.02832   2.01673
H     0.14931   0.40392   1.45526
H    -0.20457  -2.06489   0.27752
H     2.66088  -0.09499  -1.88842
H     5.94840   0.00276   0.12676
H     5.07608  -0.82322  -1.20654
H     4.65001   0.86783  -0.75483
H     1.91622   1.55625   0.21005
H     0.44678   2.79887  -1.12720
H     1.04624   1.76089  -2.44181
H    -1.88629   2.94424  -1.90307
H    -2.71197   1.43600  -2.39742
H    -1.36165   2.07282  -3.36606
