24
Generated by autodE on: 2022-10-21. E = -609.421304 Ha
C     0.16770  -2.51040  -0.83799
N    -0.44229  -1.61777  -0.12623
C    -1.51185  -2.05965   0.79834
C     0.01164  -0.27324  -0.09798
C     1.46459  -0.09399   0.01677
O     2.26856  -1.05401  -0.00593
N     1.91435   1.17587   0.16827
C     3.31524   1.46077   0.37569
C    -0.92648   0.80003  -0.05800
O    -0.65897   2.00001   0.11814
O    -2.21480   0.41657  -0.27620
C    -3.21105   1.43391  -0.18288
H    -0.06278  -3.56601  -0.68219
H     0.88979  -2.20043  -1.58938
H    -2.48608  -1.95920   0.30851
H    -1.33592  -3.10968   1.06088
H    -1.48582  -1.43540   1.69758
H     1.20653   1.90340   0.26039
H     3.68309   1.09182   1.34981
H     3.93669   0.99744  -0.40685
H     3.46641   2.54774   0.34158
H    -4.17177   0.93351  -0.35762
H    -3.05437   2.21381  -0.94326
H    -3.21071   1.90167   0.81345
