17
Generated by autodE on: 2022-10-21. E = -881.716872 Ha
C     2.76346  -0.02181   0.74687
O     1.60350  -0.77693   1.10996
C     0.47474  -0.56813   0.42838
C     0.06535   0.22068  -0.58346
Cl    0.83578   1.48463  -1.48282
C    -1.45668  -0.03776  -0.68468
C    -2.11870   0.54853   0.58589
C    -1.70705  -0.24344   1.58043
C    -0.80939  -1.29792   0.89184
O    -1.48952  -1.44256  -0.36669
H     3.57082  -0.36232   1.40714
H     2.59121   1.05447   0.89650
H     3.03859  -0.21100  -0.30179
H    -1.91887   0.18696  -1.65220
H    -2.73098   1.44917   0.61635
H    -1.88379  -0.17335   2.65297
H    -0.64845  -2.25261   1.40480
