41
Generated by autodE on: 2022-10-21. E = -1491.132888 Ha. Imaginary frequency = -270.5 cm-1
C    -2.80595  -2.42325  -1.77950
N    -2.02139  -1.28716  -1.34281
C    -2.57864  -0.07633  -1.15224
O    -3.80517   0.09486  -1.22439
C    -1.63691   1.05378  -0.84920
C    -1.95465   1.92954   0.25413
O    -1.55234   3.07907   0.44327
O    -2.79500   1.33317   1.14491
C    -3.18350   2.11485   2.27263
C     0.48126   0.56726   0.88956
C     0.50672  -0.95848   0.72149
O     0.78581  -1.04950  -0.69490
C     1.97467  -0.23801  -0.66298
C     2.78600  -1.00989   0.41206
O     4.11785  -1.03092   0.55139
C     4.90878  -0.63911  -0.57424
C     1.85151  -1.47601   1.26136
Cl    2.06380  -2.20565   2.81139
C     1.43838   1.04065   0.02623
C     0.32053   2.23403  -1.51943
N    -0.69615   1.41298  -1.79512
C    -0.62021   0.67675  -3.07175
H    -3.26974  -2.23939  -2.76347
H    -3.61371  -2.64676  -1.06513
H    -2.15016  -3.29963  -1.85629
H    -1.00751  -1.36645  -1.28493
H    -3.86230   1.48361   2.85967
H    -3.70542   3.03261   1.96159
H    -2.31064   2.39069   2.88416
H     0.04136   1.07660   1.74427
H    -0.38497  -1.52456   1.00816
H     2.42224  -0.13225  -1.65552
H     5.95613  -0.75943  -0.27061
H     4.70409  -1.28233  -1.44458
H     4.72697   0.41437  -0.83914
H     2.05712   1.92670   0.15983
H     0.18060   2.97976  -0.74791
H     1.02711   2.42707  -2.32655
H    -0.07987   1.29971  -3.79217
H    -1.63002   0.49289  -3.45577
H    -0.08980  -0.27474  -2.94742
