26
Generated by autodE on: 2022-06-24. E = -689.460850 Ha
C     2.99645   1.23791  -0.21827
O     2.28441   0.27169   0.56181
C     0.95536   0.13779   0.27776
C     0.43590  -0.94928  -0.35975
O     1.06221  -2.01796  -0.85116
C     2.48601  -2.16253  -0.82352
C    -1.05212  -1.05455  -0.56696
O    -1.50075  -2.04357  -1.13013
C    -1.93602   0.04330  -0.09837
C    -3.40647  -0.09612  -0.34502
C    -1.40723   1.12398   0.52737
C    -2.25883   2.25273   1.01582
C     0.06479   1.21107   0.76896
O     0.54529   2.16312   1.38167
H     4.03829   1.21343   0.12771
H     2.96084   0.97519  -1.28864
H     2.58783   2.24911  -0.07524
H     2.68761  -3.12324  -1.31410
H     2.86088  -2.18476   0.20782
H     2.97525  -1.35416  -1.38536
H    -3.77854   0.73789  -0.96280
H    -3.63555  -1.04007  -0.85338
H    -3.96649  -0.05918   0.60382
H    -1.65044   3.03453   1.48502
H    -2.99944   1.89188   1.74900
H    -2.83176   2.69589   0.18466
