26
Generated by autodE on: 2022-06-24. E = -664.772829 Ha
C    -1.99981   1.84417  -2.31393
N    -1.46732   0.76543  -1.51825
N    -0.32763   0.92305  -0.99341
C     0.48860   2.12849  -1.27531
C     0.13709  -0.00150  -0.05072
C     1.55435  -0.38906  -0.16439
O     2.25699  -0.02351  -1.13061
N     2.06904  -1.17173   0.81189
C     3.40185  -1.72143   0.70155
C    -0.75704  -0.54301   0.94984
O    -0.42183  -1.38644   1.79090
O    -1.99261  -0.00426   0.98611
C    -2.85140  -0.44584   2.03921
H    -1.35244   2.08453  -3.17404
H    -2.98225   1.53157  -2.68566
H    -2.12239   2.76869  -1.72249
H     0.72618   2.17680  -2.34498
H     1.40066   2.09765  -0.68207
H    -0.11533   3.00243  -0.99497
H     1.41194  -1.52484   1.50625
H     4.15847  -0.92551   0.61683
H     3.61756  -2.31149   1.60144
H     3.51127  -2.37620  -0.18071
H    -3.02475  -1.53057   1.97825
H    -3.79776   0.09088   1.89894
H    -2.42640  -0.20533   3.02542
