26
Generated by autodE on: 2022-07-27. E = -664.771885 Ha
C     1.40758  -1.47330  -1.97243
N     1.18256  -0.07863  -2.23085
N     0.72132   0.64552  -1.27845
C     0.77993   2.09617  -1.59555
C     0.21044   0.22782  -0.07048
C    -0.50455  -1.07894   0.06558
O    -0.29341  -1.87719   0.98688
N    -1.44484  -1.31729  -0.87450
C    -2.14990  -2.58269  -0.93804
C     0.27874   1.12123   1.07331
O     0.96684   2.13165   1.16978
O    -0.52992   0.71948   2.07970
C    -0.47794   1.48749   3.28389
H     2.19148  -1.81027  -2.66443
H     1.71697  -1.66169  -0.92883
H     0.51294  -2.08773  -2.16815
H    -0.06242   2.61694  -1.13201
H     0.73785   2.17398  -2.68596
H     1.72558   2.50708  -1.22648
H    -1.61210  -0.62670  -1.59825
H    -2.83991  -2.70472  -0.08732
H    -2.72925  -2.62017  -1.86872
H    -1.44218  -3.42632  -0.92276
H     0.54232   1.50422   3.69549
H    -0.81036   2.52105   3.10519
H    -1.15760   0.99201   3.98773
