52
Generated by autodE on: 2022-06-24. E = -1354.198132 Ha. Imaginary frequency = -452.9 cm-1
C    -3.95304  -2.22389  -0.86174
N    -3.11571  -1.04378  -0.77051
C    -2.09666  -0.97678   0.11225
O    -1.94580  -1.80815   1.00831
C    -1.24003   0.26095  -0.05650
C    -1.49287   1.33172   0.92039
O    -1.16395   2.50368   0.82119
O    -2.11755   0.84924   2.00751
C    -2.37636   1.77589   3.06821
N    -0.66760   0.55939  -1.26820
C    -0.52950   1.94157  -1.77384
N     0.06985  -0.33673  -1.94498
C    -0.49610  -1.66319  -2.17415
C     1.61346  -0.68546  -0.89396
O     2.23950  -1.69194  -1.57061
C     2.69982  -1.53892  -2.91627
C     2.27072   0.68600  -0.93511
O     2.89595   1.02278  -1.93141
C     2.12924   1.58549   0.22478
C     2.66665   2.97899   0.08794
C     1.54744   1.15064   1.37309
C     1.45677   2.03553   2.57523
C     0.99664  -0.24019   1.52448
O     0.58800  -0.61364   2.63623
C     1.10954  -1.13062   0.38170
O     0.91550  -2.45272   0.45233
C     0.82428  -3.19024   1.67747
H    -4.39667  -2.46146   0.11583
H    -4.75842  -2.03486  -1.58182
H    -3.37233  -3.10080  -1.19645
H    -3.15143  -0.36526  -1.52391
H    -1.43877   2.20927   3.44289
H    -3.03904   2.58242   2.72204
H    -2.86670   1.19580   3.85844
H    -1.49466   2.45248  -1.68208
H     0.22284   2.52419  -1.23547
H    -0.25180   1.85646  -2.82817
H     0.19842  -2.21745  -2.81266
H    -0.68824  -2.27041  -1.27860
H    -1.43331  -1.53743  -2.73388
H     3.71617  -1.12222  -2.93965
H     2.71397  -2.55319  -3.34026
H     2.03246  -0.89866  -3.50537
H     3.43579   3.18397   0.84996
H     1.86358   3.71948   0.23900
H     3.10727   3.13512  -0.90352
H     0.80591   1.59895   3.34027
H     1.08588   3.03381   2.30392
H     2.45973   2.17543   3.01543
H    -0.11369  -2.97582   2.19918
H     0.85489  -4.24447   1.37182
H     1.68022  -2.97098   2.32996
