21
Generated by autodE on: 2022-06-01. E = -797.432634 Ha
C     2.76342  -1.65356   0.86867
C     2.00383  -0.46405   0.35611
O     2.48654   0.65994   0.30653
C     0.61514  -0.71464  -0.09309
C    -0.38639   0.15962  -0.29568
C    -0.42161   1.64638  -0.13849
F    -1.68406   2.10374  -0.26089
F     0.02182   2.04911   1.06517
F     0.31570   2.27671  -1.06864
C    -1.62960  -0.70812  -0.60704
C    -2.00343  -1.43029   0.70873
C    -1.01716  -2.30831   0.90637
C    -0.05778  -2.10279  -0.28782
O    -0.99383  -1.77341  -1.32651
H     3.73394  -1.33944   1.27306
H     2.91706  -2.37313   0.04700
H     2.17620  -2.17577   1.64225
H    -2.43324  -0.23176  -1.17626
H    -2.86803  -1.19020   1.32581
H    -0.84520  -2.99722   1.73218
H     0.59725  -2.93389  -0.56484
