20
Generated by autodE on: 2022-06-01. E = -661.180985 Ha
C     4.08571  -0.46006   0.10805
N     2.72610  -0.05586  -0.17779
C     1.64838  -0.58960   0.43861
O     1.71326  -1.47392   1.30578
C     0.36596  -0.02592  -0.00737
C     0.15267   0.98598  -0.98421
O     0.88076   1.64968  -1.70100
O    -1.25618   1.15790  -1.02703
C    -1.80479   0.31299  -0.14782
C    -3.19801   0.23969   0.03721
N    -4.35247   0.18753   0.18240
N    -0.87036  -0.40100   0.47042
C    -1.14873  -1.41880   1.48668
H     4.56322  -0.90620  -0.77926
H     4.69218   0.40172   0.42848
H     4.07635  -1.20381   0.91313
H     2.56287   0.66440  -0.87929
H    -0.64535  -1.13978   2.41829
H    -2.23242  -1.47132   1.63815
H    -0.76316  -2.38336   1.13970
