41
Generated by autodE on: 2022-06-01. E = -1458.596302 Ha. Imaginary frequency = -302.7 cm-1
C     4.49120  -0.81602   1.16523
N     3.45017  -0.22768   0.34560
C     2.45446  -0.97393  -0.15525
O     2.41337  -2.20695  -0.08471
C     1.33519  -0.19340  -0.76371
C     1.33145   1.27135  -0.94919
O     2.08862   2.13870  -0.59500
O     0.20342   1.53824  -1.70155
C    -0.39738   0.31818  -1.97093
C    -1.33641   0.28480  -3.04424
N    -2.15690   0.25499  -3.86552
N     0.52593  -0.66611  -1.77101
C     0.52490  -1.98121  -2.40824
C    -1.44637   0.15817  -0.07034
C    -2.17719   1.45403  -0.05423
C    -3.60518   1.43031  -0.53238
O    -1.63991   2.48859   0.31765
C    -2.21719  -1.19468  -0.18164
C    -2.82436  -1.47160   1.20182
C    -1.78180  -1.77853   1.98226
C    -0.55525  -1.69231   1.05703
O    -1.11903  -2.10997  -0.18408
C    -0.32876  -0.17003   0.76211
C     0.18594   0.61415   1.94064
F     0.68809   1.82276   1.67344
F    -0.78293   0.79680   2.86732
F     1.16944  -0.08728   2.55512
H     5.27582  -0.06870   1.33347
H     4.09200  -1.14156   2.14065
H     4.92996  -1.69037   0.66422
H     3.36557   0.78654   0.29319
H    -0.46882  -2.17436  -2.82601
H     0.77517  -2.74783  -1.67497
H     1.26942  -1.97697  -3.21804
H    -4.00912   2.45051  -0.53476
H    -3.67016   0.99650  -1.54241
H    -4.21604   0.79518   0.12948
H    -2.85800  -1.32018  -1.05966
H    -3.87675  -1.36325   1.46062
H    -1.74784  -1.98307   3.05118
H     0.33508  -2.26871   1.32066
