45
Generated by autodE on: 2022-06-22. E = -1109.117225 Ha
C     1.62412  -2.88684   0.42763
C     1.27435  -2.30586  -0.72769
C     1.75041  -2.81943  -2.05973
C     0.39773  -1.07386  -0.80216
C    -0.67426  -0.85024   0.30909
C    -2.08070  -0.92927  -0.20367
C    -3.13767  -1.46067   0.43762
C    -4.50688  -1.42858  -0.18571
C    -3.08188  -2.09411   1.80026
C    -0.30701   0.61820   0.75307
C    -1.39871   1.36726   1.48070
O    -1.79229   0.92838   2.56376
N    -1.86186   2.45865   0.86061
C    -2.93548   3.28088   1.38283
O     0.14600   1.21401  -0.47157
C     1.16640   0.27486  -0.72443
C     1.99309   0.67151  -1.93814
O     1.43388   0.74664  -3.03329
N     3.29081   0.89509  -1.72210
C     4.18823   1.25101  -2.80556
O     1.93664   0.29170   0.50598
C     1.02630   0.49478   1.49740
O     1.29661   0.51047   2.66478
H     2.27928  -3.76283   0.43521
H     1.28358  -2.52036   1.39978
H     0.89148  -3.11281  -2.68773
H     2.41689  -3.68630  -1.94733
H     2.28918  -2.03812  -2.62190
H    -0.09895  -1.05110  -1.78169
H    -0.52455  -1.52204   1.15877
H    -2.24469  -0.46444  -1.18198
H    -4.50394  -0.93411  -1.16810
H    -4.90494  -2.45111  -0.30833
H    -5.21779  -0.89686   0.47095
H    -3.65137  -1.48194   2.52079
H    -2.06337  -2.20918   2.19232
H    -3.56371  -3.08638   1.78215
H    -1.44225   2.70878  -0.02995
H    -3.24960   2.87937   2.35320
H    -3.79807   3.27766   0.69891
H    -2.59948   4.32011   1.51764
H     3.64511   0.83052  -0.77288
H     4.11945   0.51539  -3.62102
H     3.94268   2.24250  -3.21776
H     5.21548   1.26850  -2.42367
