23
Generated by autodE on: 2022-06-22. E = -351.521383 Ha
C     3.65138  -0.69331   0.69638
C     2.57453  -0.01204   0.24684
C     2.72099   1.32733  -0.42892
C     1.23518  -0.57336   0.41165
C     0.07837   0.00667   0.00396
C    -1.22573  -0.59557   0.19227
C    -2.42489  -0.08324  -0.18354
C    -3.69875  -0.83471   0.08188
C    -2.60483   1.23699  -0.87772
H     4.66468  -0.29707   0.58635
H     3.54154  -1.66568   1.18639
H     2.16453   2.10943   0.11389
H     2.31095   1.30305  -1.45230
H     3.77581   1.63087  -0.48667
H     1.18304  -1.54877   0.91024
H     0.12229   0.97882  -0.49430
H    -1.22842  -1.57103   0.69364
H    -4.23790  -1.03643  -0.86126
H    -3.51819  -1.79274   0.59117
H    -4.38638  -0.23273   0.70287
H    -1.66475   1.77426  -1.05751
H    -3.26715   1.89242  -0.28493
H    -3.10935   1.09193  -1.84940
