22
Generated by autodE on: 2022-06-22. E = -757.535869 Ha
C    -2.01881  -0.38178   2.69152
N    -2.94133   0.15491   1.69759
C    -2.72423   0.48396   0.41616
O    -3.57621   0.91720  -0.35800
C    -1.33591   0.31540  -0.12673
O    -1.06960   0.56234  -1.36458
C     0.39089   0.30147  -1.57682
O     0.87907   0.46278  -2.67014
C     0.79377  -0.09468  -0.29956
C     2.07886  -0.48632   0.27448
O     2.17725  -0.77750   1.47442
N     3.10704  -0.49376  -0.60469
C     4.46326  -0.84226  -0.23692
O    -0.30262  -0.06774   0.54331
H    -1.20269   0.32070   2.91147
H    -2.59038  -0.55522   3.61028
H    -1.58092  -1.33526   2.36450
H    -3.90706   0.29935   1.98708
H     2.91729  -0.23796  -1.57025
H     4.48994  -1.08352   0.83201
H     5.15326  -0.00489  -0.42753
H     4.81629  -1.71730  -0.80552
