22
Generated by autodE on: 2022-07-27. E = -757.541553 Ha
C     3.97404  -0.16122  -2.87516
N     3.03367  -0.16791  -1.77135
C     1.71412  -0.01278  -1.93499
O     1.10651   0.15621  -2.98787
C     0.94071  -0.05774  -0.64995
O     1.42930  -0.24174   0.52630
C     0.27213  -0.19850   1.50760
O     0.48444  -0.34698   2.68573
C    -0.80239   0.02464   0.64761
C    -2.23779   0.18583   0.87054
O    -3.01136   0.38831  -0.07488
N    -2.61953   0.09521   2.16589
C    -3.99491   0.23085   2.59704
O    -0.33723   0.10224  -0.65897
H     4.51511  -1.11829  -2.92489
H     4.70725   0.64990  -2.75053
H     3.42542  -0.00935  -3.81142
H     3.39399  -0.29654  -0.82854
H    -1.90604  -0.07150   2.87053
H    -4.62594   0.40502   1.71776
H    -4.11210   1.07949   3.28981
H    -4.34287  -0.68172   3.10677
