42
Generated by autodE on: 2022-06-01. E = -1600.520960 Ha
C    -3.77635  -1.76471  -2.15191
N    -3.32291  -0.97998  -1.01861
C    -2.07130  -0.51158  -0.95593
O    -1.26445  -0.65399  -1.88056
C    -1.63485   0.28601   0.30857
C    -2.78764   0.56401   1.27101
N    -1.00666   1.53586  -0.12729
C    -1.77501   2.43807  -0.97059
C     0.38218   1.34828  -0.48305
C     0.65491   1.19908  -1.94843
N     0.92894   1.21174  -3.07496
C     1.12957   2.58361  -0.11962
N     1.66981   3.57503   0.14029
C     0.87084   0.08462   0.35094
C     1.76217  -0.79637  -0.51537
O     1.48352  -1.85387  -1.02176
O     2.93914  -0.18058  -0.66607
C     3.88383  -0.79632  -1.55712
C     1.63503   0.54847   1.65689
C     2.01951  -0.69710   2.43117
C     0.88063  -1.13176   2.98067
C    -0.18879  -0.15303   2.50754
O     0.54065   1.06992   2.41235
C    -0.45558  -0.48089   0.98582
Cl   -0.78372  -2.25818   0.88576
H    -4.84788  -1.96792  -2.03838
H    -3.23490  -2.72282  -2.21476
H    -3.61227  -1.21907  -3.09290
H    -3.93898  -0.87686  -0.22108
H    -2.46739   1.25876   2.05663
H    -3.12620  -0.36963   1.74337
H    -3.64112   1.01682   0.74954
H    -2.74121   2.65049  -0.49594
H    -1.95686   2.03316  -1.98330
H    -1.23790   3.39271  -1.07000
H     4.77139  -0.15425  -1.54298
H     3.46181  -0.84587  -2.57115
H     4.13482  -1.80757  -1.20828
H     2.41350   1.29487   1.48619
H     3.01354  -1.14177   2.44561
H     0.69713  -2.02846   3.56942
H    -1.08784  -0.05225   3.11893
