23
Generated by autodE on: 2022-07-27. E = -605.335480 Ha
C    -1.79372  -2.99818  -1.12262
N    -1.80798  -1.75177  -0.37886
C    -0.70364  -1.28451   0.21730
O     0.37009  -1.89160   0.24782
C    -0.85033   0.03063   0.94670
C    -1.93525   0.18467   1.95926
N     0.04290   0.97654   0.76567
C     0.04222   2.13756   1.67838
C     0.95726   1.01713  -0.31015
C     0.67576   0.37081  -1.52273
N     0.44434  -0.14785  -2.54686
C     2.16589   1.72106  -0.18759
N     3.18109   2.30253  -0.12522
H    -2.79973  -3.18731  -1.51488
H    -1.49723  -3.83779  -0.47593
H    -1.08338  -2.94231  -1.96264
H    -2.64644  -1.17817  -0.38269
H    -1.51821   0.16508   2.98107
H    -2.65735  -0.63552   1.87764
H    -2.46428   1.14307   1.83879
H     0.01600   1.79167   2.71725
H    -0.84089   2.75693   1.47059
H     0.94560   2.72979   1.51063
