23
Generated by autodE on: 2022-06-01. E = -605.333749 Ha
C     2.46945   1.78695  -0.25909
N     2.41777   0.39359  -0.66228
C     1.30797  -0.32301  -0.88107
O     1.27921  -1.55076  -0.99547
C     0.02242   0.43672  -1.14022
C    -0.07226   1.23577  -2.39630
N    -1.01948   0.24325  -0.37084
C    -2.33715   0.74229  -0.81237
C    -0.95502  -0.34798   0.91383
C     0.21796  -0.27896   1.67863
N     1.18493  -0.20901   2.33619
C    -2.07776  -0.99689   1.45075
N    -2.99678  -1.54129   1.93243
H     2.79604   1.87024   0.78906
H     3.16496   2.35304  -0.89568
H     1.47486   2.24437  -0.33462
H     3.26619  -0.15925  -0.55109
H    -0.57021   2.20255  -2.22433
H     0.92751   1.41556  -2.80916
H    -0.66073   0.68822  -3.15304
H    -3.11500   0.33311  -0.16217
H    -2.52216   0.43298  -1.84690
H    -2.34655   1.83861  -0.74357
