19
Generated by autodE on: 2022-06-01. E = -995.131160 Ha
C    -3.61274   1.28603   0.09528
O    -2.21175   1.20699  -0.19547
C    -1.60617   0.03520   0.06740
O    -2.18871  -0.93008   0.52920
C    -0.18630   0.09052  -0.27171
C     0.79888  -0.78370   0.00931
Cl    0.76798  -2.27309   0.84003
C     2.10995  -0.11580  -0.46806
C     2.36738   1.06816   0.49211
C     1.40471   1.94920   0.20714
C     0.57057   1.28417  -0.91083
O     1.60525   0.57283  -1.61951
H    -4.17162   0.54447  -0.49428
H    -3.79585   1.11104   1.16564
H    -3.92250   2.30066  -0.18066
H     2.94206  -0.78866  -0.69810
H     3.14493   1.09571   1.25414
H     1.17502   2.90774   0.67076
H    -0.01595   1.93225  -1.56814
