23
Generated by autodE on: 2022-06-19. E = -351.521384 Ha
C     3.63040   0.34042   1.00108
C     2.50531   0.57094   0.28917
C     2.49757   1.52756  -0.87570
C     1.26461  -0.11625   0.64225
C     0.07418   0.02447   0.00675
C    -1.12795  -0.68332   0.39728
C    -2.34950  -0.60252  -0.18832
C    -2.66518   0.26067  -1.37675
C    -3.50759  -1.40458   0.33443
H     4.57229   0.84031   0.75851
H     3.63279  -0.35551   1.84572
H     2.19979   1.01700  -1.80667
H     3.48942   1.97543  -1.02966
H     1.77047   2.34133  -0.71754
H     1.32301  -0.80086   1.49705
H     0.00818   0.70471  -0.84671
H    -1.02411  -1.35299   1.25960
H    -3.03815  -0.36001  -2.21068
H    -3.48018   0.96457  -1.13205
H    -1.80837   0.84234  -1.74038
H    -4.34218  -0.74230   0.62710
H    -3.90856  -2.07074  -0.45063
H    -3.22980  -2.01897   1.20345
