46
Generated by autodE on: 2022-06-19. E = -1055.795305 Ha. Imaginary frequency = -244.9 cm-1
C     4.93873   0.85766  -1.73881
C     4.03331   0.09635  -1.08417
C     4.40923  -0.75210   0.10199
C     2.64159   0.12288  -1.51061
C     1.64740  -0.62584  -0.95906
C     0.26838  -0.50434  -1.33560
C    -0.69126   1.41239   0.18635
C     0.64003   1.65597   0.73803
C     1.53182   2.68503   0.10665
O     1.00491   1.03106   1.73727
C    -1.41181   2.35438  -0.68836
C    -2.91916   2.37044  -0.63365
O    -0.79763   3.09152  -1.45877
O    -1.51703   0.53322   0.78513
C    -1.32247  -0.74364   1.09470
C    -0.17799  -1.27604   1.76736
N     0.64845  -1.90277   2.29720
C    -2.58462  -1.50673   1.32171
C    -3.88389  -0.78358   1.12475
O    -2.51852  -2.68269   1.65625
C    -0.70775  -1.48986  -1.08322
C    -2.03398  -1.34326  -1.77869
C    -0.31812  -2.90270  -0.74544
H     4.64393   1.47661  -2.59134
H     5.98942   0.88030  -1.43725
H     5.47479  -0.64417   0.34708
H     4.20312  -1.81817  -0.08898
H     3.81237  -0.46733   0.98438
H     2.39301   0.80941  -2.32673
H     1.89762  -1.33931  -0.17256
H     0.00972   0.29473  -2.03457
H     1.64611   2.51376  -0.97024
H     2.50842   2.64946   0.60602
H     1.09006   3.68715   0.22360
H    -3.29359   2.33258   0.39858
H    -3.27389   3.27802  -1.13870
H    -3.32440   1.49405  -1.16345
H    -3.93409  -0.31617   0.13256
H    -3.96897   0.02661   1.86691
H    -4.70904  -1.49503   1.25292
H    -2.38917  -0.30524  -1.77886
H    -1.90915  -1.65104  -2.83228
H    -2.80386  -1.99612  -1.34516
H    -0.18688  -3.44957  -1.69616
H     0.62065  -2.98094  -0.18621
H    -1.11221  -3.41301  -0.18244
