26
Generated by autodE on: 2022-06-22. E = -689.460819 Ha
C    -2.90165  -1.30794   0.68666
O    -2.22112  -0.70439  -0.41889
C    -0.92511  -0.33553  -0.19875
C    -0.52703   0.96573  -0.11768
O    -1.26104   2.07696  -0.17255
C    -2.69201   2.05694  -0.20369
C     0.93456   1.29287   0.03625
O     1.27297   2.46711   0.09377
C     1.92584   0.19048   0.13110
C     3.36537   0.56292   0.30893
C     1.51783  -1.10074   0.05708
C     2.48003  -2.24278   0.14569
C     0.07288  -1.42550  -0.14185
O    -0.29626  -2.59134  -0.27234
H    -3.92239  -1.52448   0.34467
H    -2.41350  -2.24378   0.99557
H    -2.94303  -0.61407   1.54272
H    -2.99589   3.11116  -0.18238
H    -3.06199   1.58033  -1.12037
H    -3.09595   1.54069   0.67906
H     3.49195   1.65103   0.35193
H     3.97539   0.16817  -0.52030
H     3.77012   0.12211   1.23480
H     3.02239  -2.22084   1.10549
H     3.24355  -2.17068  -0.64659
H     1.96358  -3.20508   0.05211
