47
Generated by autodE on: 2022-06-22. E = -1301.277264 Ha. Imaginary frequency = -320.8 cm-1
C    -4.13145  -0.07743   1.71243
O    -3.64039  -1.00330   0.73406
C    -2.55730  -0.69105   0.00730
C    -2.18252   0.56178  -0.39228
O    -3.02343   1.60748  -0.21616
C    -2.56541   2.81927   0.40422
C    -0.89920   0.77085  -1.09504
O    -0.58701   1.90006  -1.48752
C    -0.02701  -0.39616  -1.34496
C     1.08337  -0.18898  -2.32457
C     1.50665   0.00797   0.64728
C     2.51108   0.93741   0.20358
C     2.25970   2.32532   0.27543
C     3.20410   3.22763  -0.20911
C     4.40411   2.76832  -0.76427
C     4.65895   1.39355  -0.83333
C     3.72200   0.47968  -0.35697
O     1.71184  -1.33944   0.56299
C     0.57019  -1.94452   0.92664
C     0.58582  -3.37632   1.29307
O    -0.15220  -1.08060   1.67754
C     0.36623   0.21422   1.49556
O    -0.15611   1.18320   2.00629
C    -0.43293  -1.70635  -1.00090
C     0.13697  -2.87950  -1.76352
C    -1.80473  -1.89388  -0.45163
O    -2.31233  -3.00398  -0.33374
H    -4.71530  -0.67731   2.42306
H    -4.77298   0.68664   1.25496
H    -3.29267   0.40550   2.23693
H    -3.44749   3.26846   0.88160
H    -1.80474   2.60545   1.16592
H    -2.15769   3.51233  -0.34354
H     1.95857  -0.81005  -2.09020
H     0.74056  -0.49101  -3.33086
H     1.38532   0.86271  -2.37026
H     1.32495   2.68272   0.70549
H     3.00188   4.29954  -0.15386
H     5.14095   3.48097  -1.14138
H     5.59542   1.03140  -1.26321
H     3.92134  -0.59137  -0.41128
H     0.95150  -3.47476   2.32866
H     1.25388  -3.92554   0.61988
H    -0.42872  -3.79146   1.23459
H     1.23342  -2.89970  -1.71217
H    -0.14311  -2.80661  -2.82762
H    -0.25418  -3.82697  -1.37600
