33
Generated by autodE on: 2022-06-06. E = -959.658077 Ha
C    -0.92763  -1.00043   3.52081
O    -0.62583  -0.66647   2.15255
C    -1.51412   0.07225   1.50760
O    -2.55459   0.47565   1.97983
C    -1.08021   0.43618   0.07639
C    -2.33459   0.26891  -0.80182
O    -2.90943   1.17283  -1.35989
O    -2.69996  -1.00805  -0.84990
C    -3.88071  -1.32260  -1.60978
C     0.03772  -0.36180  -0.40706
C     1.16881  -0.66103  -0.71544
C     2.59715  -0.40969  -0.89733
F     2.85508  -0.10893  -2.23836
C     3.43860  -1.57819  -0.55943
N     4.11396  -2.47851  -0.28377
C     2.97391   0.81136  -0.02731
C     2.05684   2.03667  -0.20543
C     0.79934   2.16604   0.69971
C    -0.58368   1.91868   0.06568
H    -1.02401  -0.08422   4.11973
H    -0.08331  -1.60282   3.87326
H    -1.86089  -1.57824   3.57038
H    -4.75069  -0.79828  -1.18986
H    -3.74360  -1.03219  -2.66084
H    -4.01080  -2.40720  -1.52614
H     2.98712   0.48293   1.02347
H     4.00880   1.06544  -0.30501
H     1.77465   2.12926  -1.26688
H     2.69607   2.90741   0.00294
H     0.77353   3.20476   1.06117
H     0.92068   1.54624   1.60349
H    -1.35039   2.50925   0.58794
H    -0.58318   2.24979  -0.98284
