54
Generated by autodE on: 2022-06-06. E = -1638.066613 Ha. Imaginary frequency = -246.1 cm-1
C    -7.51235   8.05376  29.59526
N    -8.17378   7.51731  30.77196
C    -9.31434   8.07855  31.22779
O    -9.84293   9.05236  30.68254
N    -9.89593   7.55676  32.39645
N    -9.56949   6.33805  32.72664
C   -10.07601   5.80405  33.85266
C    -9.93918   4.38738  33.98056
N    -9.78767   3.23816  34.06405
C   -10.23944   6.62610  35.09614
O    -9.91847   7.78541  35.21408
O   -10.77287   5.88207  36.06335
C   -11.00008   6.53031  37.32600
C   -12.25571   6.36085  33.20912
C   -12.07914   7.31162  32.42806
C   -12.60322   8.33064  31.50431
C   -12.13104   9.72325  31.96099
O   -11.75105   9.94447  33.09009
O   -12.30559  10.66054  31.03988
C   -11.89717  11.99088  31.39330
C   -12.24985   8.01851  30.03711
O   -12.60452   8.69269  29.09773
O   -11.59069   6.86793  29.91496
C   -11.18189   6.49490  28.59020
C   -14.16761   8.35372  31.61361
C   -14.89110   7.04133  31.26121
C   -15.35545   6.14895  32.42633
C   -14.40162   5.08267  32.96994
C   -13.26506   5.53834  33.90172
F   -12.70092   4.37395  34.43510
C   -13.79056   6.30794  35.05528
N   -14.21369   6.91349  35.94831
H    -8.18535   8.02314  28.72573
H    -7.19407   9.09747  29.74936
H    -6.62879   7.44039  29.38177
H    -7.65638   6.86349  31.35051
H    -9.28716   5.66638  31.99601
H   -11.67790   7.38478  37.19612
H   -11.46116   5.77314  37.96938
H   -10.04660   6.87027  37.75389
H   -10.81859  12.00698  31.60631
H   -12.12238  12.61542  30.52145
H   -12.45335  12.34504  32.27264
H   -12.06053   6.34097  27.94805
H   -10.54126   7.27777  28.16009
H   -10.62096   5.56043  28.70201
H   -14.41989   8.66994  32.63712
H   -14.49672   9.15198  30.93444
H   -15.79821   7.33069  30.70999
H   -14.29559   6.44227  30.55201
H   -15.72236   6.78062  33.25355
H   -16.23504   5.58974  32.07228
H   -14.97987   4.35492  33.55986
H   -13.91682   4.53484  32.14739
