53
Generated by autodE on: 2022-10-22. E = -1433.688929 Ha
C    -8.07231  -0.56688 -16.03701
N    -8.20994   0.21619 -17.24807
C    -7.86892  -0.28667 -18.44639
O    -7.45824  -1.43817 -18.62758
N    -8.07729   0.57140 -19.53319
N    -8.55510   1.88535 -19.29917
N    -7.61314   2.69673 -19.97205
C    -6.74600   3.43230 -19.15687
O    -5.60261   3.70915 -19.45219
O    -7.35689   3.83333 -18.04019
C    -6.55944   4.60525 -17.13128
C    -7.07343   1.88232 -21.05167
C    -7.34106   0.58483 -20.75677
C    -6.97477  -0.73069 -21.40115
C    -5.74613  -1.28620 -20.58971
C    -5.44269  -2.75729 -20.56030
O    -4.98735  -0.48405 -20.07811
C    -8.14859  -1.74322 -21.48811
C    -9.56269  -1.36519 -21.13107
O    -7.91474  -2.85619 -21.92476
C    -6.42368  -0.58576 -22.85555
C    -7.42419  -0.16207 -23.93996
C    -8.29668   1.06980 -23.68415
C    -7.60278   2.41624 -23.49469
C    -6.61190   2.57340 -22.33260
F    -6.57840   3.94984 -22.04649
O    -5.35454   2.21832 -22.79052
C    -4.25324   2.31489 -21.88633
H    -8.60634  -0.05884 -15.22445
H    -7.01699  -0.69044 -15.74114
H    -8.50733  -1.56729 -16.17400
H    -8.44589   1.20368 -17.20540
H    -9.43820   1.96364 -19.81474
H    -6.22458   5.53746 -17.60836
H    -5.68511   4.02738 -16.79876
H    -7.21094   4.82914 -16.27877
H    -6.26311  -3.31374 -20.09059
H    -5.31951  -3.15239 -21.57810
H    -4.51588  -2.90092 -19.98964
H   -10.24092  -2.01479 -21.70044
H    -9.79601  -0.31040 -21.31718
H    -9.71916  -1.56122 -20.05906
H    -6.02400  -1.56915 -23.13715
H    -5.57874   0.10569 -22.82327
H    -8.10084  -1.00703 -24.14856
H    -6.84103  -0.00707 -24.86371
H    -8.96854   1.18294 -24.55022
H    -8.96134   0.88795 -22.82740
H    -7.04779   2.70477 -24.40138
H    -8.37776   3.17796 -23.32520
H    -3.38447   1.91636 -22.42689
H    -4.06485   3.36144 -21.60857
H    -4.42500   1.71819 -20.98065
