19
Generated by autodE on: 2022-10-22. E = -602.175620 Ha
C    -4.62370  -0.05188  -0.01368
N    -3.35643  -0.26252  -0.68449
C    -2.19008  -0.04861  -0.06960
O    -2.05904   0.32608   1.09886
N    -1.08068  -0.31046  -0.93291
N     0.00319  -0.10020  -0.31186
N     1.17210  -0.24779  -0.82129
C     2.15280   0.06501   0.12888
O     1.94782   0.42486   1.27725
O     3.35446  -0.09079  -0.41422
C     4.47931   0.19302   0.43085
H    -4.77614   1.01234   0.22820
H    -5.43306  -0.38498  -0.67358
H    -4.66811  -0.62538   0.92460
H    -3.33602  -0.55636  -1.65637
H    -0.07575   0.21660   0.69239
H     5.36914   0.00540  -0.18061
H     4.47456  -0.46769   1.30981
H     4.45639   1.24218   0.75917
