34
Generated by autodE on: 2022-10-22. E = -831.448891 Ha
C    -2.13723  -1.12088   3.04417
O    -1.83583  -1.94867   1.92249
C    -1.95466  -1.35154   0.67853
F    -3.31158  -1.08084   0.44842
C    -1.16839  -0.11309   0.54798
C    -0.18941   0.51349   0.20507
C     1.09377   0.83394  -0.40434
C     0.90506   1.66328  -1.71590
C    -0.21106   2.66227  -1.72993
O     1.66390   1.50055  -2.64831
C     1.96053   1.71871   0.53282
C     3.41727   1.84488   0.20397
O     1.44630   2.27687   1.48225
C     1.78463  -0.53075  -0.70631
C     0.89108  -1.59826  -1.37256
C     0.05603  -2.54131  -0.46018
C    -1.46938  -2.33262  -0.39196
H    -3.17287  -0.74949   2.99703
H    -1.44548  -0.26337   3.10087
H    -2.01427  -1.74482   3.93873
H    -1.16687   2.12432  -1.84114
H    -0.08487   3.35634  -2.57065
H    -0.25863   3.20616  -0.77410
H     3.85774   2.66282   0.78822
H     3.57095   2.00845  -0.87233
H     3.92723   0.90227   0.46240
H     2.18934  -0.92626   0.23802
H     2.63775  -0.31554  -1.36289
H     0.23729  -1.12308  -2.12305
H     1.57799  -2.23670  -1.94886
H     0.46690  -2.54052   0.56315
H     0.20416  -3.56585  -0.83286
H    -1.97328  -3.28691  -0.17137
H    -1.85191  -1.97098  -1.35844
