25
Generated by autodE on: 2022-07-27. E = -573.223427 Ha
C    -2.54385  -0.69104   1.68408
C    -3.13358  -0.32726   0.34643
O    -4.36694  -0.32001   0.18837
C    -2.31086   0.05118  -0.78050
N    -0.96774   0.09914  -0.85463
C    -0.43039   0.69389  -2.11272
N    -0.20147  -0.40406   0.06083
C     1.15611  -0.08960   0.10626
C     2.03388  -1.13404   0.46726
C     3.39978  -0.89804   0.60912
C     3.91976   0.38787   0.41833
C     3.05282   1.43655   0.09347
C     1.68468   1.20944  -0.05911
H    -3.35912  -0.75388   2.41826
H    -2.02210  -1.65847   1.62435
H    -1.78904   0.04288   2.00288
H    -2.83901   0.36362  -1.67897
H    -0.37466   1.78411  -2.01736
H    -1.11711   0.43302  -2.92415
H     0.56151   0.27848  -2.31272
H     1.61989  -2.13232   0.62246
H     4.06411  -1.72413   0.87412
H     4.98975   0.57346   0.53474
H     3.44296   2.44935  -0.03405
H     1.02122   2.04689  -0.27541
