25
Generated by autodE on: 2022-06-18. E = -573.226741 Ha
C    -3.05613   1.91281   0.51245
C    -2.77498   0.53745  -0.06017
O    -3.68984  -0.12999  -0.56628
C    -1.39369   0.13607   0.04053
N    -0.88126  -1.05143  -0.34020
C    -1.77213  -2.12283  -0.83508
N     0.36022  -1.41885  -0.29104
C     1.35089  -0.46994   0.01723
C     2.29217  -0.81097   1.00401
C     3.36665   0.03730   1.27967
C     3.53011   1.22511   0.56103
C     2.60823   1.55834  -0.43937
C     1.52311   0.72615  -0.71018
H    -4.12326   2.14635   0.40240
H    -2.77734   1.95323   1.57794
H    -2.45652   2.67737  -0.00807
H    -0.68307   0.84186   0.46246
H    -2.21712  -1.81003  -1.78620
H    -2.57311  -2.30095  -0.11069
H    -1.14846  -3.01071  -0.96784
H     2.16581  -1.74882   1.54854
H     4.08347  -0.23664   2.05745
H     4.37417   1.88528   0.77246
H     2.73671   2.47675  -1.01737
H     0.81491   0.99257  -1.49682
