14
Generated by autodE on: 2022-06-18. E = -270.683218 Ha
C    -1.89247  -1.38971  -0.08885
C    -0.77877  -0.39147  -0.05168
C    -1.17346   1.04793  -0.21903
C     0.50741  -0.80038   0.12648
C     1.67635   0.06454   0.18120
O     1.69078   1.28855   0.07107
H    -2.62722  -1.16066   0.70313
H    -2.44046  -1.30459  -1.04375
H    -1.54073  -2.42326   0.03424
H    -0.67223   1.49386  -1.09282
H    -2.26072   1.14987  -0.34207
H    -0.85401   1.64702   0.64844
H     0.71079  -1.86903   0.24225
H     2.63819  -0.48088   0.34072
