39
Generated by autodE on: 2022-06-18. E = -843.896567 Ha. Imaginary frequency = -303.0 cm-1
C    -1.56457   0.60125   2.15254
C    -2.34831   0.67881   0.86985
O    -3.57705   0.62252   0.87590
C    -1.68015   0.87161  -0.43652
C    -1.51415  -1.26577  -1.20897
C    -2.73251  -1.80761  -0.65297
O    -3.82436  -1.78774  -1.22469
C    -0.20652  -1.62392  -0.76161
C    -0.07131  -2.55491   0.42343
C     0.83612  -1.80132  -1.84198
N     0.39612   0.17482   0.06770
C     1.70434   0.55549   0.36746
C     2.69358  -0.41376   0.64349
C     3.98478  -0.03178   1.00862
C     4.33181   1.31769   1.12640
C     3.35297   2.28660   0.88280
C     2.06045   1.91927   0.51129
N    -0.36012   1.06969  -0.58403
C     0.09050   1.66058  -1.86004
H    -2.23679   0.86699   2.98013
H    -1.20700  -0.42791   2.30468
H    -0.68182   1.25403   2.14224
H    -2.32306   1.29153  -1.21203
H    -1.61583  -0.92087  -2.24261
H    -2.65773  -2.25973   0.36103
H     0.97387  -2.66006   0.73669
H    -0.65597  -2.22109   1.28932
H    -0.42491  -3.56028   0.14001
H     1.86122  -1.69297  -1.46300
H     0.74896  -2.82437  -2.24960
H     0.68842  -1.09609  -2.67107
H     2.45451  -1.47177   0.58117
H     4.72801  -0.80778   1.20812
H     5.34359   1.60924   1.41583
H     3.59240   3.34777   0.98971
H     1.30740   2.69210   0.35534
H    -0.24448   2.70363  -1.92300
H    -0.34171   1.08549  -2.69317
H     1.18148   1.61987  -1.92093
