30
Generated by autodE on: 2022-06-14. E = -1415.998686 Ha
N    -2.27758  -3.74481   0.86934
C    -1.88365  -2.88042   0.20624
C    -1.41322  -1.76330  -0.63008
C    -0.94150  -2.36591  -1.98259
F    -0.53579  -1.41216  -2.82447
F     0.07895  -3.21204  -1.79577
F    -1.93496  -3.04302  -2.56862
C    -0.31445  -1.03702   0.00591
C     0.34377  -0.08973   0.36184
C     0.70876   1.29249   0.65587
C     2.10540   1.60832   0.06695
F     2.41354   2.90371   0.19604
F     2.13055   1.31155  -1.23943
F     3.07399   0.89592   0.65749
C     0.71078   1.51142   2.19011
F     1.56016   0.68468   2.81290
F    -0.50800   1.28852   2.69926
F     1.05723   2.76582   2.50489
C    -0.36544   2.21154  -0.03004
C    -1.81002   1.67656  -0.07324
C    -2.17772   0.70035  -1.22595
C    -2.59005  -0.73104  -0.83386
H    -0.33913   3.18088   0.48734
H    -0.02600   2.39414  -1.05911
H    -2.08398   1.24000   0.89779
H    -2.44253   2.57021  -0.18076
H    -1.37497   0.67416  -1.97688
H    -3.05259   1.11503  -1.74860
H    -3.15057  -0.70562   0.11127
H    -3.26074  -1.16342  -1.59023
