62
Generated by autodE on: 2022-06-14. E = -2239.059927 Ha. Imaginary frequency = -245.5 cm-1
C     8.18446   3.25920   0.99630
O     6.79605   3.16639   1.33456
C     5.99663   4.15029   0.90248
O     6.41076   5.12958   0.31058
C     4.56868   3.87358   1.22452
C     3.46515   4.83887   1.05862
C     3.66445   6.16049   0.61706
C     2.58066   7.02892   0.47303
C     1.28218   6.60271   0.76210
C     1.07432   5.29197   1.20873
C     2.15113   4.42346   1.36101
N     4.34968   2.80553   1.95419
C     4.24624   1.60235   2.07550
C     4.08277   0.76687   3.26115
C     5.08601   0.70958   4.24494
C     4.88743  -0.06860   5.38437
C     3.68745  -0.76763   5.56016
C     2.68365  -0.69348   4.58924
C     2.88242   0.05919   3.43237
C     4.63328   0.91337   0.05935
C     4.48514   1.83186  -0.77270
C     4.38116   2.28443  -2.17731
C     5.80390   2.43231  -2.77897
F     5.75756   2.91573  -4.02969
F     6.45188   1.26123  -2.83313
F     6.57457   3.26076  -2.05569
C     3.66651   3.66972  -2.26811
F     3.37847   4.01378  -3.53452
F     2.50616   3.63204  -1.59900
F     4.40459   4.66374  -1.76356
C     3.48766   1.30850  -3.01353
C     3.88517  -0.15324  -3.23777
C     3.91988  -1.11635  -2.04222
C     5.24027  -1.15879  -1.25747
C     5.19272  -0.47745   0.14872
C     4.42650  -1.38960   1.01408
N     3.83053  -2.19932   1.58947
C     6.65443  -0.40081   0.67628
F     6.72946   0.11727   1.91007
F     7.21279  -1.61793   0.72316
F     7.40331   0.36536  -0.12562
H     8.66274   2.38635   1.45368
H     8.61901   4.18603   1.39749
H     8.31504   3.23455  -0.09466
H     4.66802   6.50169   0.37780
H     2.75747   8.05074   0.12888
H     0.43765   7.28559   0.64462
H     0.06486   4.94510   1.44160
H     1.97249   3.40449   1.70855
H     6.01082   1.27070   4.10571
H     5.66957  -0.12163   6.14497
H     3.53477  -1.37095   6.45790
H     1.74571  -1.23569   4.72669
H     2.11596   0.10217   2.65715
H     2.50140   1.33344  -2.52737
H     3.36392   1.76710  -4.00385
H     3.11811  -0.52921  -3.93359
H     4.83545  -0.21716  -3.78897
H     3.06897  -0.91649  -1.36997
H     3.74988  -2.12696  -2.44143
H     5.55449  -2.19818  -1.09233
H     6.03922  -0.67195  -1.82556
