29
Generated by autodE on: 2022-06-11. E = -870.513074 Ha
C     5.03931   0.42612   0.02938
N     3.67184   0.86209   0.24201
C     2.63456   0.06187  -0.03710
O     2.75965  -1.08539  -0.49134
C     1.25779   0.59431   0.21392
C     1.08232   1.86678   0.80255
N     1.11793   2.91365   1.31710
N     0.31597  -0.29605  -0.09630
C    -1.00633  -0.45762  -0.11104
C    -1.37502  -1.84726  -0.51822
O    -0.46851  -2.64254  -0.82699
N    -2.67226  -2.17334  -0.52666
C    -3.11587  -3.50101  -0.89921
C    -1.98572   0.59527   0.15323
O    -3.18824   0.40279   0.28747
O    -1.43070   1.80171   0.19596
C    -2.27095   2.92153   0.50263
H     5.21341   0.17017  -1.02735
H     5.71598   1.24006   0.31423
H     5.27240  -0.46138   0.63829
H     3.50576   1.79284   0.61166
H     0.77707  -1.18304  -0.42217
H    -3.33673  -1.45752  -0.23522
H    -2.79880  -3.75446  -1.92311
H    -2.70583  -4.26584  -0.22016
H    -4.21071  -3.53446  -0.84930
H    -1.60341   3.78912   0.55037
H    -2.77061   2.77035   1.46999
H    -3.02459   3.05814  -0.28588
