12
Generated by autodE on: 2022-06-17. E = -157.299005 Ha
C     1.62076  -0.41094   0.16620
C     0.62542   0.65533  -0.18119
C    -0.71346   0.55628  -0.18650
C    -1.54404  -0.64477   0.15411
H     2.30529  -0.59888  -0.67985
H     1.15028  -1.36621   0.43956
H     2.25831  -0.09232   1.00985
H     1.05867   1.62386  -0.46171
H    -1.28222   1.45080  -0.47076
H    -2.18679  -0.93101  -0.69714
H    -0.94062  -1.52070   0.43214
H    -2.22809  -0.42323   0.99241
