19
Generated by autodE on: 2022-06-17. E = -680.987550 Ha
C     4.92999   0.25607  -0.02269
O     3.55890  -0.09928  -0.30868
C     2.63084   0.54194   0.37674
O     2.78333   1.39804   1.21943
C     1.30406   0.09658   0.00078
N     0.20081  -0.20916  -0.22622
C    -1.07577  -0.50090  -0.43149
C    -1.42100  -1.49335  -1.37660
N    -1.71631  -2.31125  -2.15416
C    -2.06267   0.24550   0.35653
O    -1.77463   1.10160   1.17311
O    -3.31033  -0.13635   0.06071
C    -4.36921   0.52309   0.77029
H     5.15591   0.05415   1.03328
H     5.09464   1.31900  -0.24642
H     5.53853  -0.37649  -0.67712
H    -4.35338   1.60368   0.56746
H    -4.27288   0.35079   1.85203
H    -5.30030   0.08117   0.39765
