31
Generated by autodE on: 2022-06-17. E = -838.284175 Ha. Imaginary frequency = -341.6 cm-1
C     4.39153   2.03089  -0.33273
O     3.25704   1.23494   0.07474
C     2.11217   1.48285  -0.53600
O     1.90725   2.29865  -1.40601
C     1.05458   0.56083  -0.08649
N     0.28866   0.40834   0.82791
C    -0.88684  -0.14833   1.13328
C    -0.96841  -1.10215   2.17178
N    -1.03083  -1.92380   2.99783
C    -2.07537   0.38111   0.45387
O    -2.05739   1.29718  -0.34958
O    -3.18056  -0.28165   0.82311
C    -4.40677   0.11590   0.19391
C    -0.55009  -1.53722  -1.25828
C    -0.55473  -2.88638  -0.61027
C     0.57789  -0.89403  -1.71150
C     1.93576  -1.55334  -1.75471
H     4.20194   3.09183  -0.11985
H     4.57930   1.89013  -1.40616
H     5.23637   1.66370   0.25931
H    -4.34879  -0.03979  -0.89320
H    -5.18637  -0.52192   0.62602
H    -4.62219   1.17375   0.40234
H    -1.51882  -1.10327  -1.51662
H    -1.49174  -3.06501  -0.06385
H     0.28604  -3.01319   0.08985
H    -0.45704  -3.68360  -1.37154
H     0.42398  -0.03457  -2.37403
H     2.17540  -2.06712  -0.81142
H     2.73648  -0.82876  -1.96331
H     1.96420  -2.31198  -2.55652
