81
Generated by autodE on: 2022-07-05. E = -2211.660965 Ha
C     3.76562   4.94187   9.44845
N     2.72934   4.41926  10.31178
C     2.71659   3.17572  10.78583
O     3.52062   2.29799  10.43290
C     1.52037   2.82086  11.72711
C     0.40779   2.40548  10.70398
O    -0.79314   2.65893  10.85278
N     0.82196   1.66923   9.66496
C    -0.11798   1.13682   8.69639
C     1.77647   1.46654  12.47866
C     2.51874   1.50484  13.80384
C     3.95721   2.00887  13.75296
C     4.18080   3.46366  13.32846
C     3.33521   4.59210  13.99574
C     3.95523   5.89604  13.38125
O     3.43264   6.40355  12.38861
N     5.08913   6.38199  13.90454
C     5.70020   7.58227  13.36113
C     3.63930   4.48571  15.52060
F     4.96725   4.27072  15.72745
F     3.01541   3.44866  16.09612
F     3.34886   5.57629  16.23251
C     1.81379   4.61540  13.66046
C     1.10473   3.95036  12.70333
C    -0.36339   4.42648  12.70582
C    -1.30900   3.26398  13.16527
C    -2.79001   3.26440  12.89170
O    -0.82848   2.39984  13.88140
C    -0.70212   5.10506  11.36938
O     0.14629   5.52113  10.59601
O    -1.99141   5.35459  11.20331
C    -2.36969   6.10053  10.03463
N    -0.36629   5.51075  13.67144
C    -1.58834   6.01844  14.25547
C     0.89392   5.65613  14.38142
C     1.43033   7.11275  14.12535
C     0.86578   7.85907  12.94934
O     2.24818   7.62738  14.86402
C     0.62829   5.38011  15.88112
C     0.30908   4.07065  16.26629
C    -0.07998   3.77511  17.57354
C    -0.17467   4.79314  18.52689
C     0.11552   6.10591  18.14887
C     0.50819   6.39715  16.83877
H     4.17155   5.87010   9.87645
H     3.37283   5.16158   8.44226
H     4.57050   4.20277   9.35690
H     1.97892   5.04532  10.60791
H     1.81062   1.44694   9.57787
H    -0.83102   0.44451   9.17110
H    -0.69384   1.94560   8.22125
H     0.44269   0.59712   7.92396
H     2.31243   0.81559  11.77654
H     0.79316   1.01333  12.65822
H     1.93989   2.07474  14.54082
H     2.53831   0.46888  14.18097
H     4.41559   1.84935  14.74059
H     4.53477   1.38979  13.04692
H     5.23221   3.70455  13.52629
H     4.08720   3.58794  12.25384
H     5.53501   5.92973  14.69361
H     4.99404   8.42615  13.39531
H     6.58249   7.82942  13.96360
H     6.01141   7.43532  12.31508
H    -2.98575   3.15303  11.81925
H    -3.25749   4.20372  13.21291
H    -3.23226   2.42388  13.44321
H    -3.46067   6.19178  10.07947
H    -1.90097   7.09433  10.04673
H    -2.06760   5.55924   9.12721
H    -2.04288   5.34251  15.00420
H    -1.38357   6.97264  14.75925
H    -2.32540   6.22001  13.46687
H     0.83307   7.23513  12.05005
H     1.47631   8.75473  12.77713
H    -0.16873   8.16582  13.17202
H     0.35490   3.27175  15.52958
H    -0.31368   2.74272  17.84518
H    -0.47892   4.56658  19.55158
H     0.03412   6.91739  18.87630
H     0.72328   7.43112  16.57811
