37
Generated by autodE on: 2022-07-05. E = -937.906691 Ha
C    -3.65831   0.22761  -2.72645
O    -2.54670   0.10948  -1.83752
C    -2.83185   0.11032  -0.50628
O    -3.98272   0.27478  -0.10799
C    -1.65526  -0.04314   0.31061
C    -1.60362   0.21907   1.71573
C    -2.88068   0.37041   2.50862
O    -0.50960   0.32989   2.31773
N    -0.42645  -0.44906  -0.28561
C    -0.43768  -1.73966  -1.00422
C     0.69956   0.14813   0.01600
C     0.68661   1.58296   0.53249
C     1.74806   1.97093   1.52017
O    -0.08737   2.38404   0.04230
C     2.01620  -0.46900  -0.22127
C     2.34790  -1.70132   0.36913
C     3.61749  -2.24547   0.17868
C     4.55996  -1.57395  -0.60750
C     4.23559  -0.34593  -1.19310
C     2.97411   0.21436  -0.99128
H    -4.17877   1.18596  -2.58041
H    -4.37387  -0.59503  -2.57759
H    -3.24190   0.18096  -3.74026
H    -2.62180   0.39998   3.57546
H    -3.59523  -0.43818   2.30802
H    -3.37856   1.31353   2.23298
H     0.40873  -1.79013  -1.69711
H    -0.38332  -2.56165  -0.27857
H    -1.37490  -1.81153  -1.56112
H     2.61173   2.37268   0.96426
H     2.08963   1.11969   2.12065
H     1.35661   2.76928   2.16514
H     1.61705  -2.21627   0.99426
H     3.87301  -3.19758   0.64871
H     5.55179  -2.00587  -0.75881
H     4.96979   0.18127  -1.80590
H     2.72289   1.17578  -1.44471
