37
Generated by autodE on: 2022-07-27. E = -937.908202 Ha
C     1.83684   0.48611  -3.99321
O     0.56866   0.38760  -3.34141
C     0.57859  -0.06953  -2.06999
O     1.63304  -0.36112  -1.50544
C    -0.73317  -0.16925  -1.46694
C    -2.03676   0.00823  -2.03900
C    -2.20889   0.41356  -3.48517
O    -3.05460  -0.14087  -1.32833
N    -0.69599  -0.67074  -0.12030
C    -1.15301  -2.04439   0.11583
C    -0.11389   0.08576   0.76725
C     0.04822   1.55307   0.37773
C    -1.21281   2.36194   0.26790
O     1.16856   2.02342   0.30445
C     0.40628  -0.34983   2.06053
C     1.08472  -1.57709   2.19999
C     1.61087  -1.94329   3.43676
C     1.45678  -1.10177   4.54396
C     0.79328   0.12302   4.41019
C     0.28375   0.50821   3.17258
H     1.62988   0.87519  -4.99767
H     2.50322   1.17502  -3.45336
H     2.32101  -0.49915  -4.06592
H    -3.28497   0.45727  -3.70038
H    -1.71784  -0.29626  -4.16572
H    -1.75775   1.39955  -3.67041
H    -0.39446  -2.75168  -0.24648
H    -2.07822  -2.17944  -0.45411
H    -1.34779  -2.20579   1.18181
H    -1.06273   3.19101  -0.43738
H    -1.40147   2.79119   1.26839
H    -2.08387   1.75621  -0.00900
H     1.23537  -2.22034   1.33337
H     2.14884  -2.88816   3.53654
H     1.86512  -1.39694   5.51313
H     0.67961   0.78303   5.27240
H    -0.22895   1.46657   3.06991
