81
Generated by autodE on: 2022-07-05. E = -2211.557849 Ha. Imaginary frequency = -271.5 cm-1
C     3.81763   3.88700   9.03834
N     2.95079   3.77032  10.19344
C     2.34841   2.62452  10.51185
O     2.46237   1.59621   9.83505
C     1.46755   2.56897  11.79480
C     0.07361   2.18852  11.20044
O    -0.30669   2.71835  10.15330
N    -0.63741   1.26395  11.85907
C    -1.91216   0.74479  11.40336
C     2.00799   1.38716  12.66393
C     3.49739   1.33226  12.99827
C     4.00745   2.35660  14.01053
C     4.33239   3.73954  13.41776
C     3.39814   4.92087  13.81134
C     3.74378   6.12820  12.86059
O     4.19850   5.90637  11.73233
N     3.49479   7.36010  13.30653
C     3.61490   8.50846  12.42608
C     3.76812   5.26991  15.27473
F     3.09770   6.29169  15.81828
F     3.61141   4.23189  16.11369
F     5.07475   5.61412  15.33173
C     1.95875   4.58002  13.47330
C     1.40954   3.82515  12.61112
C    -0.63099   5.01598  12.44160
C    -1.82920   4.50016  11.66563
C    -2.26717   5.22933  10.41692
O    -2.48787   3.55943  12.07734
C     0.21056   6.00384  11.70264
O     0.60337   7.07816  12.12804
O     0.48968   5.59251  10.46873
C     1.21171   6.49300   9.61932
N    -0.73371   5.08138  13.81226
C    -1.81328   4.36834  14.52187
C     0.29830   5.65821  14.54778
C     0.31475   7.18981  14.47679
C    -1.04295   7.83425  14.31749
O     1.26710   7.87744  14.81117
C     0.47116   5.11912  15.93574
C     0.62669   3.72956  16.11508
C     0.79503   3.18376  17.38493
C     0.81813   4.01431  18.51039
C     0.66370   5.39348  18.34867
C     0.48994   5.94123  17.07613
H     4.65041   3.16656   9.08684
H     3.26175   3.70215   8.10566
H     4.22916   4.90318   9.01268
H     2.93125   4.55591  10.83882
H    -0.24943   0.86359  12.70493
H    -2.67144   0.83882  12.19230
H    -2.24019   1.31336  10.52739
H    -1.82043  -0.31824  11.12783
H     1.43836   1.36899  13.60665
H     1.76881   0.46923  12.11137
H     3.66719   0.32676  13.41699
H     4.09838   1.37527  12.07443
H     3.28061   2.42837  14.83038
H     4.92850   1.96027  14.46443
H     5.35665   4.03617  13.68032
H     4.31968   3.68554  12.32648
H     2.87390   7.47232  14.11405
H     2.84681   8.49012  11.63639
H     3.48696   9.42136  13.02129
H     4.60438   8.52842  11.94886
H    -3.33075   5.00588  10.26024
H    -1.69760   4.86283   9.55283
H    -2.11617   6.31582  10.48916
H     1.31276   5.97676   8.65836
H     0.65103   7.43028   9.49249
H     2.20296   6.70887  10.03946
H    -1.70017   3.27918  14.48098
H    -2.77399   4.64347  14.07543
H    -1.81211   4.70077  15.56194
H    -0.91231   8.90869  14.13372
H    -1.57657   7.69899  15.27497
H    -1.65748   7.38022  13.53290
H     0.62925   3.07353  15.24542
H     0.92122   2.10422  17.49526
H     0.95752   3.58886  19.50691
H     0.67637   6.05271  19.21969
H     0.37888   7.02092  16.98097
