32
Generated by autodE on: 2022-10-07. E = -1063.335214 Ha
C    -3.18127  -2.57258   1.49995
N    -2.24498  -1.95063   0.58749
C    -2.43324  -0.71669   0.10043
O    -3.45121  -0.04716   0.32223
C    -1.34218  -0.17775  -0.82852
C    -1.92778  -0.14562  -2.24827
N    -0.16190  -1.06404  -0.82930
C     0.88617  -0.33760  -0.79808
C     2.25327  -0.92546  -0.95131
O     3.04810  -0.51956  -1.77673
O     2.46693  -1.96768  -0.15016
C     3.75217  -2.59961  -0.25199
C     0.68625   1.14647  -0.71731
C     1.63572   1.83418   0.29322
O     1.40564   3.04132   0.54276
O     2.57583   1.13681   0.76007
C    -0.83184   1.24459  -0.40561
C    -1.08848   1.53895   1.08924
O    -1.76943   2.55271   1.37915
O    -0.59209   0.71627   1.90920
H    -2.92866  -3.63487   1.60773
H    -4.20869  -2.48848   1.11616
H    -3.15201  -2.10013   2.49655
H    -1.35137  -2.38894   0.38567
H    -2.83967   0.46769  -2.25715
H    -1.19907   0.29024  -2.94821
H    -2.18006  -1.16151  -2.58842
H     3.91359  -2.98508  -1.26896
H     4.54857  -1.88383  -0.00100
H     3.74203  -3.42423   0.46995
H     0.90867   1.58995  -1.70388
H    -1.31939   2.02067  -1.00548
