32
Generated by autodE on: 2022-10-07. E = -1063.232878 Ha. Imaginary frequency = -352.4 cm-1
C    -2.20265  -1.60648   2.04637
N    -1.46836  -1.25888   0.84627
C    -2.14277  -0.84705  -0.24512
O    -3.37679  -0.91454  -0.35539
C    -1.33081  -0.27406  -1.36657
C    -2.06665   0.27141  -2.54907
N    -0.06923  -0.62348  -1.46393
C     1.07027  -0.36188  -1.11953
C     2.37555  -0.97761  -1.34553
O     3.02787  -0.77150  -2.35307
O     2.79466  -1.67378  -0.28963
C     4.12847  -2.20647  -0.36154
C     0.82173   1.51529   0.04425
C     1.36067   0.93628   1.34358
O     2.22332   1.62193   1.94226
O     0.95820  -0.20960   1.71200
C    -0.49109   1.87714  -0.19419
C    -1.63570   1.90750   0.78282
O    -2.77086   2.21389   0.30669
O    -1.41218   1.66999   2.00474
H    -1.49003  -1.94689   2.80926
H    -2.92312  -2.41469   1.85139
H    -2.75777  -0.74189   2.44919
H    -0.51127  -0.88816   1.01304
H    -2.78587   1.02284  -2.19297
H    -1.37104   0.74013  -3.25806
H    -2.63547  -0.51615  -3.07252
H     4.21199  -2.92266  -1.19137
H     4.85641  -1.39435  -0.50000
H     4.29936  -2.71201   0.59546
H     1.58989   1.98325  -0.57887
H    -0.69480   2.42194  -1.12137
