28
Generated by autodE on: 2022-05-25. E = -848.230069 Ha
C    -3.90822  -0.01653   1.01793
C    -2.54001   0.60052   0.90157
O    -2.33056   1.79982   1.13248
N    -1.52011  -0.20187   0.49952
C    -0.13375   0.24463   0.55187
C     0.39961   0.88759  -0.76706
O     0.60960  -0.27050  -1.58979
C     1.52251  -0.94130  -0.70376
C     2.53484   0.16985  -0.45565
F     3.79825  -0.04739  -0.10598
C     1.83571   1.30662  -0.49259
F     2.20134   2.54894  -0.19217
C     0.68448  -1.07594   0.60354
C    -0.38372  -2.18330   0.64161
N    -1.67139  -1.58749   0.24051
C    -2.06582  -1.86030  -1.14443
H    -4.54106   0.65503   1.61205
H    -4.35921  -0.12734   0.01869
H    -3.86545  -1.01456   1.47300
H     0.00090   0.92146   1.40319
H    -0.25678   1.62706  -1.23779
H     1.90740  -1.87199  -1.13520
H     1.34591  -1.13873   1.47523
H    -0.14345  -3.02634  -0.01918
H    -0.46096  -2.57016   1.66934
H    -1.32243  -1.52396  -1.88456
H    -3.02635  -1.36991  -1.35375
H    -2.21589  -2.94422  -1.24962
