15
Generated by autodE on: 2022-05-25. E = -342.083535 Ha
C    -1.56615   0.68534  -0.81987
N    -1.16235  -0.08047   0.15043
C    -2.15519  -0.68868   1.05246
N     0.09504  -0.45872   0.50743
C     1.15030   0.06909  -0.15075
C     2.47960  -0.45144   0.35444
O     1.13781   0.90363  -1.08061
H    -0.82768   1.12885  -1.47991
H    -2.63948   0.84457  -0.92539
H    -2.04958  -1.77926   0.99530
H    -3.16526  -0.38358   0.75981
H    -1.93511  -0.36110   2.07631
H     2.36523  -1.15380   1.18957
H     3.10386   0.39970   0.67049
H     3.00845  -0.95023  -0.47397
