13
Generated by autodE on: 2022-05-25. E = -506.057103 Ha
F    -2.00771  -0.68054   0.82744
C    -0.91575  -0.28576   0.18004
C    -0.33860   0.91139   0.08840
F    -0.67504   2.08457   0.61549
C     0.98887   0.65897  -0.64948
C     1.90776  -0.15491   0.29857
C     1.32943  -1.35519   0.38867
C     0.06537  -1.25516  -0.50438
O     0.56130  -0.38807  -1.54600
H     1.42226   1.51883  -1.17205
H     2.79804   0.23334   0.79149
H     1.61199  -2.22755   0.97648
H    -0.36560  -2.18504  -0.89145
