28
Generated by autodE on: 2022-05-25. E = -848.129018 Ha. Imaginary frequency = -230.1 cm-1
C    -4.16051  -0.06083   0.56051
C    -2.78603   0.48537   0.90215
O    -2.64189   1.70857   1.08589
N    -1.73015  -0.33708   1.09434
C     0.55194   0.28323   1.04137
C     0.51594   0.98030  -0.33293
O     0.34488  -0.16185  -1.19468
C     1.48816  -0.88712  -0.70231
C     2.57182   0.18425  -0.93179
F     3.85174  -0.09595  -1.16203
C     1.96453   1.34926  -0.70102
F     2.45472   2.58425  -0.62619
C     1.16598  -0.91770   0.81205
C    -0.72720  -2.35334   1.07102
N    -1.62423  -1.54830   0.53140
C    -2.10398  -1.81165  -0.83836
H    -4.91038   0.58614   1.03669
H    -4.32070  -0.00967  -0.52796
H    -4.30722  -1.09909   0.88657
H     0.40601   0.80497   1.98291
H    -0.24344   1.75394  -0.48816
H     1.63774  -1.84069  -1.22093
H     1.70195  -1.53723   1.52844
H    -0.47108  -3.27200   0.54459
H    -0.52666  -2.24844   2.13413
H    -2.10076  -0.87872  -1.40906
H    -3.11834  -2.22883  -0.80130
H    -1.43637  -2.53525  -1.31962
