27
Generated by autodE on: 2022-10-07. E = -628.623323 Ha
C     4.46364   1.03331   0.31360
N     3.02776   0.86075   0.33401
C     2.45354  -0.33964   0.05386
O     3.15479  -1.32810  -0.23454
C     0.99650  -0.31066   0.11921
N     0.19025  -1.36487  -0.02915
C     0.74993  -2.72457  -0.19835
N    -1.11605  -1.37036  -0.00403
C    -1.80513  -0.14747  -0.02018
C    -2.84173   0.02903   0.91479
C    -3.64905   1.16824   0.87784
C    -3.44647   2.14600  -0.10027
C    -2.42746   1.97049  -1.04557
C    -1.60963   0.84223  -1.00862
H     4.69864   2.08090   0.53907
H     4.96223   0.39291   1.06031
H     4.88585   0.78274  -0.67328
H     2.44055   1.64923   0.58166
H     0.50714   0.64242   0.30530
H     1.46689  -2.93251   0.60147
H    -0.09789  -3.41348  -0.16427
H     1.26541  -2.78553  -1.16294
H    -3.00321  -0.74527   1.66768
H    -4.44416   1.28902   1.61780
H    -4.07966   3.03547  -0.13183
H    -2.26997   2.72083  -1.82450
H    -0.82530   0.71723  -1.75764
