27
Generated by autodE on: 2022-10-13. E = -628.626639 Ha
C    -3.40044   1.41468   1.56955
N    -2.45932   0.58705   0.84980
C    -2.87084  -0.30341  -0.07575
O    -4.07679  -0.48186  -0.34798
C    -1.85686  -1.08824  -0.78530
N    -0.53172  -0.98432  -0.67800
C     0.25800  -1.88149  -1.56663
N     0.03812  -0.20400   0.20788
C     1.39263   0.11374   0.11887
C     2.10008   0.21082   1.33691
C     3.43879   0.59713   1.35706
C     4.10484   0.90925   0.16564
C     3.40590   0.84351  -1.04408
C     2.06453   0.45864  -1.07487
H    -2.85064   2.05192   2.27349
H    -4.12265   0.80495   2.13737
H    -3.97852   2.06086   0.88787
H    -1.44652   0.63958   0.99685
H    -2.22882  -1.83128  -1.48543
H     0.47125  -1.37923  -2.51648
H    -0.33780  -2.78041  -1.75283
H     1.19237  -2.14829  -1.06310
H     1.57617  -0.03266   2.26360
H     3.96795   0.65373   2.31160
H     5.15398   1.21240   0.18173
H     3.90605   1.10735  -1.97940
H     1.52947   0.45638  -2.02462
