37
Generated by autodE on: 2022-10-07. E = -1083.660104 Ha. Imaginary frequency = -340.1 cm-1
C    -2.99985   2.91810   0.93131
N    -2.12137   1.95403   0.30699
C    -2.59154   0.97167  -0.47973
O    -3.80190   0.83441  -0.73639
C    -1.61673  -0.00790  -1.04009
C    -1.52737  -1.34185   0.58588
C    -1.59255  -2.76213  -0.01185
O    -1.61779  -3.67924   0.85115
O    -1.69498  -2.93129  -1.25640
C    -0.42826  -0.89113   1.32591
C     0.88950  -1.60403   1.39399
O     1.56933  -1.43011   2.44917
O     1.24377  -2.32542   0.41685
N     0.29458   0.79293  -0.13598
C     1.59713   1.27029  -0.22690
C     2.36654   1.30883   0.95798
C     3.64953   1.85281   0.95245
C     4.20014   2.38245  -0.22120
C     3.43830   2.36441  -1.39429
C     2.15437   1.81785  -1.40600
N    -0.29413   0.26799  -1.20502
C     0.43946  -0.56258  -2.18463
H    -2.39449   3.65150   1.47894
H    -3.69442   2.43714   1.64111
H    -3.60671   3.45219   0.18289
H    -1.11967   1.90265   0.51488
H    -2.04846  -0.65000  -1.80365
H    -2.50646  -1.04404   0.98059
H    -0.59917  -0.15773   2.11567
H     1.95310   0.87765   1.86865
H     4.22923   1.86001   1.87932
H     5.20568   2.80884  -0.21951
H     3.84388   2.78874  -2.31656
H     1.56738   1.84313  -2.32422
H     0.43416  -0.07962  -3.17152
H    -0.05507  -1.53856  -2.24381
H     1.46984  -0.70314  -1.84821
