46
Generated by autodE on: 2022-10-21. E = -1222.251990 Ha
C    -2.32305   4.50635   1.43784
N    -1.70452   3.30111   0.92444
C    -0.58005   2.79555   1.44891
O     0.00906   3.30391   2.41045
C    -0.01642   1.55333   0.75937
N    -0.97920   0.92676  -0.14638
C    -1.22544  -0.27954   0.22554
C    -2.15033  -1.16568  -0.50477
C    -2.53616  -2.40174   0.04265
C    -3.39084  -3.25290  -0.66135
C    -3.86310  -2.88496  -1.92408
C    -3.47972  -1.65788  -2.48045
C    -2.63172  -0.80500  -1.77733
C    -0.45232  -0.73949   1.44425
C     0.63421  -1.85816   1.21230
O     1.65759  -1.45291   2.11521
C     1.86194  -0.14295   1.54782
C     2.07287  -0.47414   0.06564
C     2.93204   0.28696  -0.82735
O     3.38412  -0.07452  -1.90377
O     3.23228   1.49320  -0.29506
C     4.11549   2.32982  -1.04916
C     1.26199  -1.55478  -0.13879
O     0.81335  -2.22854  -1.18063
C     0.93925  -1.70017  -2.50908
C     0.44735   0.48021   1.76189
H    -1.65318   5.37565   1.33774
H    -2.57833   4.39924   2.50400
H    -3.24244   4.70392   0.87344
H    -2.11361   2.80569   0.13796
H     0.83200   1.93413   0.16588
H    -2.17293  -2.70193   1.02660
H    -3.68571  -4.20860  -0.22230
H    -4.52647  -3.55380  -2.47745
H    -3.84188  -1.36909  -3.46986
H    -2.32349   0.14705  -2.21025
H    -1.11444  -1.04522   2.26527
H     0.30669  -2.88981   1.37417
H     2.68525   0.38055   2.04260
H     4.24697   3.24282  -0.45659
H     3.67710   2.57462  -2.02776
H     5.08541   1.83377  -1.20071
H     0.61753  -0.64926  -2.52369
H     1.97632  -1.77369  -2.85741
H     0.27400  -2.30649  -3.13512
H     0.35944   0.81956   2.79969
