46
Generated by autodE on: 2022-10-21. E = -1222.125427 Ha. Imaginary frequency = -291.3 cm-1
C    -2.40089   4.03123   1.85994
N    -1.80339   3.01972   1.01352
C    -0.48976   3.05495   0.68879
O     0.24984   3.99527   1.03033
C     0.05726   1.91309  -0.06021
N    -0.70314   0.92190  -0.46126
C    -1.25762  -0.13284  -0.22985
C    -2.22123  -0.99814  -0.86649
C    -2.62185  -2.17977  -0.21631
C    -3.52449  -3.04344  -0.83512
C    -4.02375  -2.73956  -2.10621
C    -3.62455  -1.56769  -2.76189
C    -2.72845  -0.69640  -2.14808
C    -0.32661  -0.47772   1.96013
C     0.57077  -1.72203   1.74083
O     1.72826  -1.38329   2.52446
C     1.94187  -0.10644   1.86350
C     2.06807  -0.58425   0.39607
C     2.93222   0.04269  -0.58287
O     3.28000  -0.39871  -1.67038
O     3.37548   1.24372  -0.13459
C     4.24825   1.97101  -1.00235
C     1.16491  -1.60716   0.33093
O     0.66262  -2.39826  -0.59893
C     0.88269  -2.14994  -1.99441
C     0.56383   0.55268   2.08584
H    -2.00810   3.99338   2.89055
H    -2.20623   5.03970   1.46413
H    -3.48586   3.87163   1.89426
H    -2.35574   2.20927   0.75745
H     1.05113   2.03694  -0.49211
H    -2.21600  -2.41270   0.76882
H    -3.83608  -3.95920  -0.32861
H    -4.72679  -3.42049  -2.59153
H    -4.01459  -1.33590  -3.75534
H    -2.40758   0.21800  -2.65042
H    -1.35267  -0.53579   2.31645
H     0.14647  -2.69898   1.99578
H     2.81263   0.41911   2.26562
H     4.49732   2.89866  -0.47316
H     3.74576   2.20403  -1.95291
H     5.16363   1.39694  -1.20921
H     0.65896  -1.10157  -2.23372
H     1.92121  -2.37467  -2.26552
H     0.19031  -2.81329  -2.52630
H     0.42649   1.52134   2.55805
