32
Generated by autodE on: 2022-06-08. E = -656.749298 Ha
C    -1.93905   3.05412  -0.15367
C    -0.75821   2.15138   0.12303
O     0.38478   2.61098   0.09202
C    -1.06480   0.74319   0.41945
C    -0.25840  -0.36402   0.31378
C     1.17183  -0.52305   0.02543
C     2.15485   0.33184   0.56344
C     3.50851   0.11517   0.30229
C     3.91222  -0.95051  -0.50831
C     2.94953  -1.81411  -1.04170
C     1.59737  -1.61319  -0.76549
C    -1.17894  -1.57479   0.41620
C    -2.01410  -1.61030  -0.90712
C    -2.93286  -0.36560  -0.77194
C    -2.49481   0.23159   0.60206
C    -2.23316  -1.05222   1.40826
H    -2.54646   3.16427   0.75972
H    -1.57902   4.04170  -0.47049
H    -2.59783   2.62742  -0.92567
H     1.84863   1.16135   1.19610
H     4.25482   0.78407   0.73779
H     4.97242  -1.11273  -0.71678
H     3.25392  -2.65335  -1.67158
H     0.85945  -2.29983  -1.18313
H    -0.67427  -2.51773   0.65738
H    -2.59751  -2.54201  -0.94648
H    -1.37034  -1.57796  -1.79686
H    -2.80165   0.35679  -1.58969
H    -3.99531  -0.65024  -0.74107
H    -3.20180   0.95267   1.02738
H    -3.11407  -1.70776   1.48627
H    -1.82310  -0.85723   2.41024
