25
Generated by autodE on: 2022-06-08. E = -797.523749 Ha
C     0.71581   2.34815   2.69279
O     0.49029   1.17684   1.88058
C    -0.09864   1.36224   0.71126
O    -0.53168   2.40754   0.28585
C    -0.20501   0.05649  -0.04005
O     0.84181  -0.64655  -0.29618
C     2.18043  -0.44317  -0.13616
C     2.73366   0.78926   0.23312
N     3.22320   1.81456   0.51441
C     2.97528  -1.54290  -0.49435
N     3.65431  -2.45153  -0.78015
C    -1.47367  -0.46172  -0.48390
C    -1.52462  -1.65847  -1.24022
C    -2.74774  -2.16971  -1.65162
C    -3.93741  -1.50354  -1.32310
C    -3.89792  -0.32006  -0.57779
C    -2.67952   0.20360  -0.15713
H     1.35291   3.05864   2.14933
H    -0.24512   2.81709   2.94434
H     1.22077   1.98951   3.59560
H    -0.59832  -2.17239  -1.49851
H    -2.78029  -3.09147  -2.23575
H    -4.89684  -1.90918  -1.65132
H    -4.82421   0.19778  -0.32189
H    -2.66235   1.12609   0.42279
