57
Generated by autodE on: 2022-06-08. E = -1454.274082 Ha. Imaginary frequency = -265.8 cm-1
C     3.23415   1.20443   3.01479
O     2.84804   0.80498   1.68881
C     2.06725   1.63228   1.01634
O     1.72589   2.72837   1.40922
C     1.67314   1.13190  -0.34451
C     2.64810   0.48059  -1.23087
C     3.56706  -0.48191  -0.75925
C     4.43814  -1.11746  -1.64252
C     4.42525  -0.80222  -3.00412
C     3.52800   0.16003  -3.48140
C     2.64637   0.79139  -2.60960
O     0.79472   1.88274  -0.99896
C    -0.45096   2.27566  -0.66445
C    -0.80251   2.90317   0.56542
N    -1.24546   3.40101   1.52070
C    -1.19880   2.66458  -1.81286
N    -1.82907   2.93268  -2.75549
C    -1.34656   0.08563  -0.15863
C    -2.49200   0.44237   0.72243
C    -3.47054   1.34540   0.26479
C    -4.61049   1.62010   1.01955
C    -4.81630   0.97387   2.24161
C    -3.87589   0.04238   2.68997
C    -2.72862  -0.22191   1.93993
C    -1.71435  -0.49360  -1.52558
C    -2.19587  -1.94704  -1.20639
C    -0.88273  -2.65879  -0.77808
C     0.18850  -1.53021  -0.91913
C    -0.34988  -0.78813  -2.15707
C    -0.10726  -0.52473   0.19443
C     0.38553  -0.64802   1.58248
C     1.21457  -1.85480   1.92724
O     0.12954   0.20801   2.43011
H     3.80651   2.14150   2.97924
H     2.33790   1.33311   3.63646
H     3.85545   0.38877   3.39994
H     3.58777  -0.74493   0.29411
H     5.13255  -1.86836  -1.25973
H     5.11325  -1.30036  -3.69077
H     3.51651   0.42234  -4.54143
H     1.95820   1.54540  -2.99043
H    -3.33979   1.84970  -0.69260
H    -5.34375   2.33851   0.64604
H    -5.70993   1.18447   2.83372
H    -4.03741  -0.49208   3.62906
H    -2.02992  -0.97457   2.29841
H    -2.43416   0.10145  -2.09936
H    -2.97366  -1.96843  -0.43148
H    -2.61651  -2.38866  -2.12110
H    -0.92963  -3.05891   0.24380
H    -0.63394  -3.49061  -1.45343
H     1.22156  -1.88894  -0.96296
H    -0.42583  -1.44402  -3.03619
H     0.20996   0.10676  -2.43675
H     2.00787  -2.02309   1.18642
H     0.57059  -2.74999   1.91369
H     1.64686  -1.73397   2.92870
