23
Generated by autodE on: 2022-06-19. E = -351.515502 Ha
C     2.76558   1.46219  -0.05515
C     2.56471   0.11710  -0.11840
C     3.72048  -0.83638  -0.30354
C     1.24416  -0.52658  -0.00589
C     0.03617   0.08270  -0.00072
C    -1.21661  -0.63142   0.12007
C    -2.46077  -0.09510   0.12508
C    -2.75171   1.37280  -0.00618
C    -3.67418  -0.97057   0.25873
H     1.94531   2.16837   0.10175
H     3.76910   1.88486  -0.15662
H     3.79462  -1.52745   0.55403
H     4.67818  -0.30626  -0.40540
H     3.57159  -1.46567  -1.19778
H     1.26127  -1.62069   0.06916
H    -0.00779   1.17180  -0.09995
H    -1.13454  -1.72080   0.21647
H    -3.29457   1.57050  -0.94794
H    -3.41992   1.70486   0.80721
H    -1.85395   2.00430   0.00757
H    -4.36665  -0.81187  -0.58736
H    -4.24307  -0.71260   1.17025
H    -3.41443  -2.03848   0.30161
