45
Generated by autodE on: 2022-06-01. E = -1510.778421 Ha
C    -3.55199   2.28949  -1.16168
N    -2.63877   1.16557  -1.15595
C    -1.92561   0.83042  -0.08233
O    -1.97793   1.45078   0.99041
C    -1.03790  -0.43080  -0.24549
C    -1.54488  -1.51911   0.74178
O    -1.66081  -2.68979   0.36421
N    -1.80463  -1.12220   1.98944
C    -2.18317  -2.06167   3.02603
N    -1.14645  -0.95784  -1.59308
C    -0.06397  -0.41647  -2.39610
C     1.14122  -0.15123  -1.46943
Cl    1.97426   1.34315  -2.10362
C     2.15895  -1.31681  -1.41144
C     3.37767  -0.93077  -0.55391
C     2.78327  -0.87253   0.88078
C     1.30411  -1.28801   0.67682
C     1.45360  -2.30530  -0.46841
C     0.53189  -0.10652   0.00423
C     0.66710   1.18687   0.79972
O     0.70104   2.30745   0.34485
O     0.70194   0.93711   2.11610
C     0.70332   2.07743   2.98265
H    -3.05811   3.18562  -0.75837
H    -3.86774   2.48845  -2.19297
H    -4.44604   2.08794  -0.54867
H    -2.57087   0.52495  -1.94507
H    -1.72535  -0.12596   2.18934
H    -2.30576  -1.51672   3.96979
H    -3.13037  -2.56834   2.78173
H    -1.40880  -2.83409   3.15772
H    -1.13210  -1.97451  -1.53812
H    -0.37073   0.53889  -2.84472
H     0.19475  -1.10411  -3.21200
H     2.40576  -1.67890  -2.41784
H     4.14390  -1.71480  -0.63997
H     3.82952   0.01662  -0.87091
H     3.27078  -1.59866   1.54718
H     2.89449   0.11478   1.34646
H     0.82569  -1.64516   1.59385
H     0.51471  -2.72279  -0.84126
H     2.11088  -3.14155  -0.18786
H     0.70413   1.68084   4.00449
H    -0.19612   2.68525   2.80904
H     1.59973   2.69097   2.81236
