22
Generated by autodE on: 2022-06-01. E = -550.237694 Ha
C     1.20027   2.53203   0.85151
N     0.23653   1.65751   0.80703
C    -0.00691   0.45222   0.19420
C     0.95334  -0.32412  -0.56826
O     0.60692  -1.31523  -1.25596
N     2.26845   0.03584  -0.52739
C     3.27306  -0.78215  -1.17978
C    -1.38396   0.01606   0.47095
O    -2.11751   0.71108   1.21873
N    -1.82093  -1.12586  -0.08925
C    -3.15929  -1.62396   0.13473
H     2.12001   2.41184   0.28361
H     1.03333   3.42913   1.44732
H    -0.62505   1.88924   1.33966
H     2.58573   0.62116   0.23665
H     3.35720  -1.78651  -0.72934
H     4.24470  -0.27803  -1.09989
H     3.03096  -0.91162  -2.24418
H    -1.16034  -1.59451  -0.71156
H    -3.27498  -2.57986  -0.39162
H    -3.92652  -0.92533  -0.23986
H    -3.35721  -1.78996   1.20633
