38
Generated by autodE on: 2022-06-17. E = -839.212876 Ha
C     2.76764  -2.06706  -1.75713
N     2.11194  -0.90194  -1.19950
C     0.94130  -0.99454  -0.56163
O     0.36672  -2.07607  -0.37287
C     0.26401   0.30758  -0.05772
C     1.19275   1.53729  -0.00190
O     2.03856   1.76582  -0.88486
N     0.97092   2.38329   1.00690
C     1.67938   3.64082   1.13348
C    -0.93077   0.67669  -0.99948
C    -0.65658   0.56097  -2.49079
C    -2.07667  -0.21463  -0.49336
C    -3.46961   0.32485  -0.78184
C    -1.77936  -0.37178   1.02177
C    -2.01570  -1.75822   1.46264
N    -2.23344  -2.83358   1.84228
N    -0.40330   0.09388   1.22177
C     0.36285  -0.49873   2.30540
H     2.17527  -2.51317  -2.57343
H     2.91513  -2.84119  -0.98853
H     3.74635  -1.77018  -2.15385
H     2.46732   0.04297  -1.36013
H     0.23450   2.12476   1.65824
H     2.76765   3.47913   1.10734
H     1.41946   4.33388   0.31661
H     1.41166   4.10524   2.09026
H    -1.18604   1.72218  -0.76237
H    -0.47003  -0.48323  -2.78656
H    -1.52443   0.92144  -3.06330
H     0.21466   1.16644  -2.77981
H    -1.96265  -1.20099  -0.96421
H    -4.24210  -0.34780  -0.37692
H    -3.63722   0.41367  -1.86598
H    -3.60826   1.31985  -0.32870
H    -2.47588   0.24387   1.61998
H     0.57047  -1.57435   2.15972
H    -0.18317  -0.37806   3.25346
H     1.32475   0.02371   2.40432
