12
Generated by autodE on: 2022-06-17. E = -157.300301 Ha
C     1.96051   0.11458  -0.03390
C     0.54000  -0.13696   0.37194
C    -0.54000   0.13690  -0.37197
C    -1.96052  -0.11454   0.03392
H     2.02555   0.55641  -1.04070
H     2.54962  -0.81974  -0.03011
H     2.46400   0.79716   0.67372
H     0.39115  -0.58200   1.36580
H    -0.39115   0.58192  -1.36583
H    -2.02552  -0.55694   1.04047
H    -2.54937   0.81995   0.03080
H    -2.46429  -0.79653  -0.67405
