26
Generated by autodE on: 2022-06-17. E = -681.832685 Ha
C    -1.62405  -3.45516  -0.42700
N    -1.20922  -2.06745  -0.49676
C    -0.11864  -1.60779   0.14817
O     0.65014  -2.37865   0.75184
C     0.16158  -0.14606   0.03550
C     1.52041   0.29893  -0.33781
O     1.78981   1.47376  -0.65888
N     2.48682  -0.65113  -0.31574
C     3.86910  -0.30660  -0.56544
N    -0.83527   0.75729   0.24820
C    -2.04684   0.32636   0.99775
C    -0.80337   2.04934  -0.11875
C    -1.79692   2.95831   0.26977
N    -2.58455   3.75637   0.54183
H    -1.39975  -3.86360   0.56749
H    -1.10677  -4.07626  -1.17771
H    -2.70542  -3.51768  -0.60633
H    -1.75333  -1.43228  -1.07087
H     2.25898  -1.52643   0.15302
H     4.45434  -1.23017  -0.66153
H     4.30437   0.30090   0.24777
H     3.96283   0.26931  -1.49764
H    -2.88290   0.18474   0.30195
H    -1.84322  -0.59283   1.54967
H    -2.29960   1.11605   1.71371
H     0.04366   2.38857  -0.70874
