47
Generated by autodE on: 2022-06-20. E = -1056.865861 Ha
C    -0.45076   2.55481  -2.11540
O    -0.94954   1.64508  -1.11566
C    -0.93700   2.06615   0.13337
O    -0.58138   3.16437   0.50223
C    -1.44826   1.00492   1.13739
C    -2.62470   1.59540   1.81113
N    -3.56032   2.03125   2.33973
C    -0.35843   0.61533   2.17523
C     0.20167  -0.70454   1.62278
C     0.77222  -1.59679   2.73278
C     1.24515  -0.52363   0.54474
C     1.85224   0.62081   0.17880
C     2.84784   0.70466  -0.87727
C     3.44841   1.83167  -1.32964
C     3.17449   3.21147  -0.79842
C     4.46329   1.77316  -2.43662
C    -1.11831  -1.31074   1.04469
C    -0.96863  -2.38179   0.00018
C    -0.87959  -3.72278   0.39865
C    -0.67186  -4.73090  -0.54711
C    -0.56407  -4.40776  -1.90333
C    -0.66374  -3.07197  -2.30732
C    -0.86133  -2.06309  -1.36145
O    -1.83369  -0.18885   0.49402
H    -1.02844   3.48905  -2.09785
H    -0.57793   2.04049  -3.07389
H     0.61065   2.76630  -1.93219
H     0.37953   1.41235   2.31567
H    -0.84329   0.42747   3.14182
H     1.11834  -2.55589   2.31824
H     0.01219  -1.80532   3.50187
H     1.63154  -1.10428   3.21167
H     1.53599  -1.44860   0.03539
H     1.59780   1.55366   0.68543
H     3.12159  -0.24578  -1.35058
H     4.08797   3.63581  -0.34491
H     2.90148   3.88885  -1.62620
H     2.37086   3.24867  -0.05224
H     4.64423   0.74432  -2.78091
H     4.13443   2.37790  -3.30070
H     5.42534   2.20634  -2.10902
H    -1.69484  -1.71287   1.89489
H    -0.97696  -3.97643   1.45714
H    -0.60276  -5.77243  -0.22427
H    -0.40847  -5.19538  -2.64448
H    -0.58497  -2.81339  -3.36611
H    -0.93274  -1.02115  -1.67445
