23
Generated by autodE on: 2022-06-20. E = -351.521382 Ha
C     3.54446  -1.24497   0.42922
C     2.54724  -0.34398   0.28933
C     2.82641   1.13717   0.27037
C     1.16549  -0.80045   0.15284
C     0.07865  -0.00133   0.00770
C    -1.27205  -0.50896  -0.12241
C    -2.40858   0.21767  -0.27033
C    -3.74430  -0.46019  -0.38977
C    -2.45613   1.71819  -0.32740
H     3.33832  -2.31969   0.44254
H     4.58696  -0.93155   0.53339
H     3.90055   1.34156   0.38247
H     2.28887   1.65347   1.08304
H     2.48342   1.59401  -0.67284
H     1.01617  -1.88677   0.17227
H     0.21964   1.08281  -0.01177
H    -1.37104  -1.60095  -0.09562
H    -4.23847  -0.18757  -1.33965
H    -3.66063  -1.55590  -0.34301
H    -4.42527  -0.12715   0.41415
H    -3.09689   2.11094   0.48188
H    -2.92113   2.04948  -1.27271
H    -1.47122   2.19543  -0.24549
