24
Generated by autodE on: 2022-06-20. E = -705.266811 Ha
C     4.75049   0.24318  -0.76190
O     3.69659   0.28618   0.20473
C     2.43743   0.14141  -0.26814
O     2.18847  -0.01989  -1.46258
C     1.46629   0.20013   0.78297
C     1.77810   0.38231   2.13820
N     2.04634   0.53495   3.26739
O     0.12108   0.07631   0.54056
C    -0.50665  -0.09563  -0.56332
C    -1.93308  -0.19929  -0.54776
C    -2.59138  -0.38714  -1.78405
C    -3.97848  -0.49505  -1.82373
C    -4.71797  -0.41747  -0.63777
C    -4.07104  -0.23094   0.59402
C    -2.68764  -0.12166   0.64663
H     4.76373  -0.72469  -1.28506
H     4.63927   1.05181  -1.49974
H     5.68178   0.37665  -0.19863
H     0.07215  -0.15947  -1.48727
H    -2.00052  -0.44533  -2.70079
H    -4.48768  -0.64015  -2.77850
H    -5.80651  -0.50273  -0.67006
H    -4.65708  -0.17210   1.51344
H    -2.17568   0.02327   1.59926
