24
Generated by autodE on: 2022-07-27. E = -705.268176 Ha
C     2.95460  -1.59500   2.40607
O     1.80528  -1.09450   1.71600
C     0.61935  -1.24135   2.34614
O     0.50550  -1.77309   3.44746
C    -0.48771  -0.71376   1.59967
C    -1.80505  -0.75579   2.06657
N    -2.91959  -0.77407   2.42699
O    -0.20709  -0.15275   0.38196
C    -1.01493   0.37614  -0.45640
C    -0.51132   0.90322  -1.68468
C    -1.42838   1.48176  -2.59101
C    -0.97381   2.00291  -3.79880
C     0.38973   1.95249  -4.11182
C     1.30619   1.37942  -3.21572
C     0.86643   0.85582  -2.00757
H     3.81180  -1.38976   1.75368
H     3.08647  -1.08338   3.37112
H     2.86676  -2.67767   2.58115
H    -2.08349   0.41198  -0.21241
H    -2.48937   1.51397  -2.33383
H    -1.68076   2.44988  -4.50043
H     0.74423   2.36187  -5.06043
H     2.36760   1.34509  -3.46951
H     1.56769   0.40719  -1.30196
