47
Generated by autodE on: 2022-06-20. E = -1056.795646 Ha. Imaginary frequency = -338.4 cm-1
C     2.61285  -1.71640   3.84975
O     1.58817  -1.01656   3.12938
C     0.32750  -1.24156   3.51911
O     0.01393  -1.99275   4.42946
C    -0.65334  -0.55608   2.67911
C    -1.98049  -0.42593   3.17142
N    -3.08751  -0.32740   3.52491
C    -1.04426  -2.09434   1.08737
C    -1.21413  -1.41387  -0.12364
C    -2.60847  -1.13796  -0.63605
C    -0.08217  -1.30592  -1.02490
C    -0.12424  -0.81309  -2.29142
C     1.05035  -0.62000  -3.11074
C     1.10993  -0.00025  -4.31716
C    -0.08188   0.56466  -5.03686
C     2.42282   0.18858  -5.02300
C    -0.89418   0.85094   0.84237
C    -0.24833   1.62448  -0.16830
C    -1.02954   2.20037  -1.19370
C    -0.41623   2.84123  -2.26890
C     0.97853   2.91972  -2.33664
C     1.76319   2.35469  -1.31972
C     1.16255   1.70318  -0.24999
O    -0.16602   0.40108   1.84861
H     3.56180  -1.41348   3.39256
H     2.59762  -1.43695   4.91307
H     2.47588  -2.80336   3.75536
H    -0.08929  -2.58645   1.28305
H    -1.91017  -2.50637   1.60826
H    -2.68063  -0.17572  -1.16427
H    -3.33596  -1.13292   0.18832
H    -2.91343  -1.91819  -1.35527
H     0.88977  -1.59814  -0.61006
H    -1.08876  -0.50688  -2.70291
H     1.99449  -0.96987  -2.67599
H    -0.20405   0.07689  -6.02062
H     0.07023   1.63838  -5.24323
H    -1.02253   0.45611  -4.48229
H     2.39822  -0.25828  -6.03336
H     2.63441   1.26339  -5.16926
H     3.26122  -0.25562  -4.46635
H    -1.97983   0.86154   0.95626
H    -2.11808   2.13572  -1.13759
H    -1.02790   3.27645  -3.06174
H     1.45768   3.41628  -3.18322
H     2.85238   2.41103  -1.37837
H     1.76916   1.23730   0.52808
