31
Generated by autodE on: 2022-10-20. E = -784.207271 Ha
C     3.26054   0.11221  -2.68345
O     2.08312  -0.23558  -1.93777
C     2.12577  -0.03042  -0.62313
O     3.10689   0.33558  -0.01195
C     0.80786  -0.35388   0.02055
N     0.64968  -1.43324   0.70382
C    -0.75023  -1.46130   1.16978
C    -1.43876  -2.66300   0.49843
C    -0.75325  -1.58817   2.69880
C    -1.34083  -0.14572   0.65391
O    -2.56819   0.30895   0.79159
C    -3.50396  -0.19669   1.75781
C    -0.36622   0.51191  -0.06840
C    -0.37626   1.81486  -0.72775
C    -1.66215   2.59326  -0.79873
O     0.66867   2.26538  -1.20716
H     4.12672  -0.46595  -2.33183
H     3.46664   1.18737  -2.57807
H     3.03940  -0.13145  -3.72876
H    -1.40510  -2.56638  -0.59668
H    -2.48702  -2.75391   0.81181
H    -0.91011  -3.58265   0.78724
H    -0.33007  -0.68861   3.17000
H    -0.13296  -2.45218   2.97701
H    -1.76477  -1.75325   3.08999
H    -4.45234   0.30411   1.53144
H    -3.63194  -1.28211   1.67006
H    -3.17681   0.07291   2.77105
H    -2.02588   2.81589   0.21676
H    -2.44745   1.99928  -1.29137
H    -1.49324   3.52835  -1.34849
