13
Generated by autodE on: 2022-10-20. E = -344.660261 Ha
C     3.02009   0.83623   0.37525
O     2.27511  -0.36347   0.01279
C     0.99977  -0.27112  -0.02384
C    -0.21862  -0.23587  -0.07384
C    -1.65528  -0.16329  -0.12568
C    -2.26231   1.17566   0.20599
O    -2.33996  -1.13938  -0.42311
H     4.07661   0.54958   0.34274
H     2.73170   1.14990   1.38785
H     2.80849   1.62970  -0.35443
H    -3.35657   1.11934   0.12928
H    -1.87397   1.94389  -0.48215
H    -1.97037   1.47612   1.22542
