18
Generated by autodE on: 2022-10-20. E = -439.401342 Ha
C     3.32593   0.72645   0.36740
O     1.99917   0.77028  -0.18205
C     1.33434  -0.39328  -0.23419
O     1.78320  -1.45943   0.15164
C     0.05701  -0.26041  -0.93956
N    -1.02290  -0.06593  -0.37058
C    -2.18521   0.12497   0.11073
C    -3.02370  -1.03949   0.55126
C    -2.72996   1.51665   0.24883
H     3.30181   0.39168   1.41457
H     3.96454   0.04937  -0.21845
H     3.70942   1.75171   0.30901
H    -3.98037  -1.03968   0.00201
H    -2.51027  -1.99536   0.38231
H    -3.26541  -0.94591   1.62337
H    -2.02293   2.26799  -0.12723
H    -2.95275   1.73073   1.30766
H    -3.67957   1.60274  -0.30587
