31
Generated by autodE on: 2022-10-20. E = -784.052075 Ha. Imaginary frequency = -210.6 cm-1
C     3.58809  -0.06499  -2.51642
O     2.40713  -0.49818  -1.82501
C     2.33035  -0.18194  -0.52523
O     3.21223   0.37793   0.10482
C     1.01130  -0.45849   0.01628
N     0.53959  -1.38423   0.65945
C    -0.44009  -1.96331   1.27603
C    -1.30114  -2.94448   0.53829
C    -0.52305  -1.89233   2.77085
C    -1.79353   0.25755   0.62414
O    -2.85018  -0.16500   1.23795
C    -4.00716   0.71430   1.17200
C    -0.94463   0.88673  -0.02757
C    -0.48058   1.99536  -0.83461
C    -1.54313   3.03983  -1.10927
O     0.65468   2.11554  -1.28574
H     4.48857  -0.51407  -2.07332
H     3.66839   1.03152  -2.48069
H     3.47052  -0.40125  -3.55312
H    -1.21677  -2.81386  -0.54928
H    -2.35038  -2.80476   0.84156
H    -1.02121  -3.98148   0.79588
H     0.10044  -1.08097   3.17055
H    -0.20330  -2.84617   3.22686
H    -1.57067  -1.72506   3.06646
H    -4.27834   0.88352   0.12036
H    -4.81440   0.19559   1.70216
H    -3.76909   1.66710   1.66576
H    -2.00003   3.37966  -0.16720
H    -2.34704   2.59224  -1.71580
H    -1.10472   3.89076  -1.64815
