65
Generated by autodE on: 2022-06-14. E = -1554.340578 Ha
C    -3.27549   6.39518  -7.52276
O    -3.51406   7.52294  -6.66043
C    -3.19912   8.72333  -7.11689
O    -2.73877   8.94456  -8.21168
C    -3.55828   9.81610  -6.05783
C    -5.02714   9.69058  -5.99685
N    -6.18309   9.64291  -6.08295
C    -3.32719  11.28542  -6.60380
C    -2.36776  12.17155  -5.81655
C    -0.87617  11.96997  -6.12577
C    -0.44435  10.56254  -6.53322
C    -0.36724   9.46480  -5.41516
C    -0.28458   8.05921  -6.07990
C     0.38523   7.90461  -7.42060
O    -0.79766   7.09425  -5.54128
C     0.99979   9.79661  -4.72903
C     2.23401   9.01282  -5.09260
O     1.08515  10.78727  -4.03104
C    -1.55170   9.44643  -4.43931
C    -2.87269   9.49802  -4.71515
C    -3.70655   9.18502  -3.47080
C    -4.53342  10.37848  -2.97994
C    -4.56487   7.91854  -3.58987
O    -2.70942   8.89192  -2.47618
C    -1.38381   9.10171  -2.94151
C    -0.57853   7.78498  -2.82245
C    -1.31025   6.54097  -2.43553
O     0.62364   7.80697  -3.02046
C    -0.78816  10.18895  -2.02968
C    -1.15791  11.52793  -2.21615
C    -0.73886  12.51937  -1.33052
C     0.05683  12.18724  -0.22779
C     0.41995  10.85514  -0.02475
C    -0.00142   9.86284  -0.91793
H    -3.66975   5.52554  -6.98620
H    -2.19759   6.27925  -7.69565
H    -3.80163   6.53278  -8.47717
H    -4.30704  11.77747  -6.61173
H    -3.01950  11.19642  -7.65434
H    -2.57916  12.06061  -4.74585
H    -2.62544  13.21474  -6.05614
H    -0.62185  12.61134  -6.98543
H    -0.26751  12.33076  -5.28477
H     0.55660  10.63335  -6.98138
H    -1.08715  10.20797  -7.34467
H     1.19326   8.61918  -7.60659
H    -0.38627   8.07267  -8.18909
H     0.74971   6.87372  -7.51909
H     2.59819   9.36249  -6.07221
H     2.05815   7.93245  -5.15577
H     3.00914   9.22331  -4.34458
H    -5.33211  10.64202  -3.68543
H    -3.89289  11.25659  -2.82655
H    -5.00317  10.11589  -2.01984
H    -3.99517   7.10025  -4.04900
H    -4.85782   7.61859  -2.57261
H    -5.48057   8.07957  -4.16910
H    -0.61646   5.69078  -2.44168
H    -2.14698   6.36036  -3.12363
H    -1.74449   6.67253  -1.43186
H    -1.76307  11.80276  -3.07707
H    -1.03101  13.55767  -1.50506
H     0.38919  12.96239   0.46673
H     1.03532  10.57810   0.83462
H     0.29827   8.83184  -0.72911
