37
Generated by autodE on: 2022-06-14. E = -937.835724 Ha
C     1.81017  -1.12552  -4.64655
O     2.04317  -0.45722  -3.39222
C     1.15149  -0.65060  -2.43220
O     0.16668  -1.34430  -2.52306
C     1.48735   0.19780  -1.18309
C     2.94348   0.28751  -1.00062
N     4.08561   0.38884  -0.82799
C     0.81339  -0.32799   0.00157
C    -0.05574  -0.41063   0.83910
C    -1.27083  -0.08253   1.57400
C    -0.89344   0.63910   2.90451
C    -1.95554   1.46167   3.56884
O     0.22202   0.50459   3.36611
C    -2.10144  -1.32240   2.00833
C    -1.35193  -2.60358   2.20304
O    -3.29596  -1.20894   2.19719
C    -2.10388   0.81849   0.61165
C    -1.33895   1.99995  -0.01983
C    -0.62585   1.77183  -1.38241
C     0.90897   1.65514  -1.40903
H     0.86080  -0.78559  -5.08326
H     1.78224  -2.21326  -4.49370
H     2.65100  -0.84962  -5.29210
H    -2.06444   2.41144   3.01928
H    -1.65722   1.67883   4.60244
H    -2.93053   0.95533   3.53992
H    -0.45134  -2.42288   2.81122
H    -1.99776  -3.35539   2.67398
H    -1.00493  -2.96967   1.22275
H    -2.97371   1.18902   1.16858
H    -2.50142   0.16729  -0.18202
H    -0.62746   2.42418   0.70899
H    -2.08981   2.78722  -0.18544
H    -0.85074   2.64576  -2.01256
H    -1.07899   0.91376  -1.90452
H     1.29896   1.99658  -2.37920
H     1.35248   2.29478  -0.63159
