65
Generated by autodE on: 2022-06-14. E = -1554.223158 Ha. Imaginary frequency = -203.9 cm-1
C    -6.86998   8.57832  -6.54445
O    -5.82597   9.46483  -6.09718
C    -4.59495   9.19829  -6.50628
O    -4.28504   8.26978  -7.21601
C    -3.55845  10.22287  -6.00546
C    -4.16831  11.24416  -5.13565
N    -4.58171  12.09904  -4.47015
C    -2.95927  10.94605  -7.26554
C    -1.74835  11.84340  -6.94767
C    -0.39028  11.35108  -7.48070
C     0.03364   9.90173  -7.21827
C     0.14159   9.44028  -5.70636
C     0.63815   7.96750  -5.81999
C     2.09718   7.62643  -5.80141
O    -0.20448   7.10607  -5.99036
C     1.01060  10.48186  -4.97370
C     2.47290  10.63070  -5.29354
O     0.47462  11.25810  -4.20491
C    -1.23626   9.43260  -5.18086
C    -2.45991   9.54282  -5.26881
C    -3.40547   8.11377  -3.38837
C    -4.27057   9.10185  -2.68556
C    -4.04668   6.96736  -4.10328
O    -2.18037   7.85602  -3.04901
C    -1.10377   8.58245  -2.66877
C     0.12534   7.83284  -2.74288
C     0.07868   6.34621  -3.02436
O     1.22317   8.39067  -2.53791
C    -1.19416   9.79282  -1.80812
C    -1.74809  11.01831  -2.21602
C    -1.81513  12.10442  -1.34154
C    -1.31542  11.99564  -0.04090
C    -0.74528  10.78881   0.37766
C    -0.68712   9.70199  -0.49602
H    -7.79594   8.96340  -6.10403
H    -6.67191   7.55607  -6.19363
H    -6.92877   8.59148  -7.64144
H    -3.77458  11.52274  -7.72712
H    -2.69027  10.14697  -7.96968
H    -1.67964  12.01317  -5.86320
H    -1.92372  12.83668  -7.38786
H    -0.38743  11.46152  -8.57838
H     0.39001  12.03671  -7.11122
H     1.01324   9.73686  -7.69255
H    -0.66869   9.20076  -7.69121
H     2.65321   8.21159  -6.54644
H     2.20810   6.55526  -6.01154
H     2.51543   7.85366  -4.81055
H     2.72179  10.35068  -6.32361
H     3.05304   9.99070  -4.61137
H     2.75816  11.67368  -5.10185
H    -3.79262  10.06378  -2.48645
H    -4.55708   8.66864  -1.70777
H    -5.18975   9.25921  -3.26286
H    -3.36953   6.55022  -4.86122
H    -4.29139   6.16922  -3.37756
H    -4.98785   7.27885  -4.57146
H     1.03703   6.02223  -3.45125
H    -0.74593   6.04856  -3.67991
H    -0.05649   5.82971  -2.05771
H    -2.11012  11.12994  -3.23396
H    -2.25689  13.04252  -1.68593
H    -1.36638  12.84684   0.64231
H    -0.35161  10.68972   1.39216
H    -0.24692   8.76211  -0.15694
