45
Generated by autodE on: 2022-05-31. E = -1204.966567 Ha
C    -3.24235  -2.99188  -0.79161
C    -3.13687  -1.54416  -1.16264
O    -3.73741  -1.06472  -2.10683
C    -2.18073  -0.67840  -0.35508
C    -2.27175  -0.72740   1.19136
O    -2.73616  -1.55180   1.93570
O    -1.71055   0.42455   1.61661
C    -1.24737   1.11299   0.40069
C    -1.07053   2.59531   0.72741
C    -0.50227   3.45559  -0.35812
O    -1.36282   3.00896   1.83055
C    -0.01703   0.36246  -0.14277
C     0.98643  -0.24532   0.87122
O     0.29717  -1.42028   1.32611
C     0.12563  -2.02881   0.03638
C     1.54047  -1.96859  -0.51903
C     2.09473  -0.85302   0.00073
C     3.37670  -0.20676  -0.27751
C     4.40549  -0.89010  -0.95821
C     5.61641  -0.25898  -1.23508
C     5.82767   1.06934  -0.84273
C     4.81662   1.75832  -0.16786
C     3.60346   1.12655   0.11689
C    -0.67525  -0.92975  -0.71990
N    -2.25552   0.78611  -0.59398
C    -3.56139   1.41807  -0.37577
H    -2.28966  -3.49435  -1.02980
H    -4.05036  -3.46110  -1.36713
H    -3.40434  -3.10592   0.28928
H    -0.91512   3.19207  -1.34201
H    -0.68447   4.51261  -0.12651
H     0.58690   3.28143  -0.40384
H     0.48203   0.97347  -0.90061
H     1.27774   0.39120   1.71260
H    -0.35198  -3.01017   0.12252
H     1.94768  -2.64106  -1.27324
H     4.25333  -1.92784  -1.26244
H     6.40414  -0.80571  -1.75891
H     6.77787   1.56211  -1.06136
H     4.97120   2.79476   0.14124
H     2.82250   1.68088   0.64086
H    -0.59643  -1.01983  -1.80863
H    -3.99374   1.21646   0.62075
H    -4.25890   1.06605  -1.14239
H    -3.45120   2.50558  -0.49111
