23
Generated by autodE on: 2022-05-31. E = -538.683098 Ha
C    -2.99984  -0.16985  -1.01924
C    -2.14431   0.81216  -1.31877
C    -1.40077   1.10158   0.00388
O    -2.45856   0.87021   0.95216
C    -2.76083  -0.46059   0.48279
C    -1.36836  -1.10776   0.60536
C    -0.49456  -0.13000   0.29984
C     0.95729  -0.15351   0.14671
C     1.72048  -1.24878   0.60592
C     3.10315  -1.27451   0.43996
C     3.76056  -0.20857  -0.18912
C     3.01869   0.88281  -0.64801
C     1.63187   0.91330  -0.47957
H    -3.68168  -0.72277  -1.66484
H    -1.93259   1.28769  -2.27593
H    -0.95255   2.09265   0.12710
H    -3.58214  -0.92117   1.04281
H    -1.18146  -2.16184   0.80535
H     1.21925  -2.08109   1.10457
H     3.67595  -2.13029   0.80550
H     4.84526  -0.23041  -0.31731
H     3.52109   1.71879  -1.14052
H     1.06776   1.77229  -0.84774
