22
Generated by autodE on: 2022-05-31. E = -666.231657 Ha
C    -3.50005   1.10837  -0.02572
C    -2.62455  -0.10551   0.04374
O    -3.04488  -1.25030   0.12578
C    -1.16850   0.15057   0.00840
O    -0.70080   1.39550  -0.07867
C     0.72313   1.35549  -0.09633
O     1.35290   2.38943  -0.17283
C     1.04033  -0.03636  -0.01074
C     2.37329  -0.61714   0.00510
C     3.52473   0.35444  -0.07885
O     2.58312  -1.83159   0.08187
N    -0.17310  -0.72123   0.05118
C    -0.34700  -2.17845   0.14645
H    -3.29482   1.67052  -0.95100
H    -4.55172   0.79872   0.00458
H    -3.27792   1.78256   0.81725
H     3.46323   0.95564  -0.99904
H     3.50037   1.06235   0.76403
H     4.46362  -0.21377  -0.06380
H    -0.89028  -2.41455   1.06878
H     0.64677  -2.62701   0.15302
H    -0.93000  -2.52584  -0.71417
