45
Generated by autodE on: 2022-05-31. E = -1204.901298 Ha. Imaginary frequency = -397.3 cm-1
C    -3.60053  -2.88520  -0.61769
C    -3.60752  -1.41331  -0.93736
O    -4.23234  -0.97886  -1.90310
C    -2.81122  -0.54891  -0.05523
C    -2.35925  -0.91307   1.27490
O    -2.45519  -1.91644   1.94882
O    -1.72434   0.22075   1.75748
C    -1.63331   1.12211   0.73034
C    -1.07056   2.44728   1.13846
C    -1.15189   3.62624   0.21835
O    -0.48817   2.49279   2.21114
C    -0.01161   0.30413  -0.33033
C     1.07206  -0.15810   0.66798
O     0.46893  -1.34100   1.20739
C     0.25482  -1.99479  -0.05262
C     1.67952  -1.94412  -0.63624
C     2.20772  -0.78676  -0.18813
C     3.48196  -0.13566  -0.47370
C     4.52687  -0.82721  -1.12331
C     5.73200  -0.19028  -1.40924
C     5.92386   1.15231  -1.05599
C     4.89824   1.84942  -0.41213
C     3.68983   1.21247  -0.11934
C    -0.53225  -0.91027  -0.80560
N    -2.62695   0.82215  -0.17333
C    -2.82879   1.56408  -1.41524
H    -2.57313  -3.26205  -0.50325
H    -4.11576  -3.42221  -1.42428
H    -4.11463  -3.06449   0.33924
H    -0.80268   3.36983  -0.79214
H    -2.19529   3.96869   0.13450
H    -0.53696   4.43406   0.63439
H     0.16155   1.16409  -0.98103
H     1.35815   0.54193   1.45920
H    -0.21662  -2.97624   0.06737
H     2.09688  -2.66596  -1.33669
H     4.38960  -1.87563  -1.39650
H     6.53093  -0.74303  -1.90930
H     6.87037   1.64942  -1.28075
H     5.03805   2.89662  -0.13367
H     2.89734   1.77224   0.38087
H    -0.95228  -1.07027  -1.79717
H    -3.15206   2.58499  -1.19118
H    -3.60555   1.05611  -1.98776
H    -1.89902   1.59180  -2.00419
