17
Generated by autodE on: 2022-07-27. E = -526.684010 Ha
C     3.12448  -2.26227  -0.44603
N     2.06266  -1.34368  -0.80457
C     1.13994  -0.90187   0.06786
O     1.09003  -1.23091   1.26526
C     0.12230   0.04083  -0.44803
C     0.04662   0.50998  -1.77051
N    -0.00493   0.89262  -2.87329
N    -0.76638   0.43954   0.48280
C    -1.79603   1.26323   0.40330
C    -2.59184   1.52374   1.53477
N    -3.26962   1.75789   2.45621
H     3.05741  -3.18987  -1.03567
H     4.11189  -1.80838  -0.62400
H     3.03592  -2.51147   0.61738
H     2.01983  -1.01995  -1.76657
H    -0.54938  -0.01182   1.39006
H    -2.02924   1.74294  -0.54941
