17
Generated by autodE on: 2022-06-02. E = -526.682818 Ha
C    -3.65346   1.19274  -0.20650
N    -2.29403   0.88102   0.18749
C    -1.42323   0.23604  -0.60642
O    -1.68047  -0.15863  -1.75690
C    -0.06510  -0.01077  -0.06307
C     0.34651   0.37975   1.22311
N     0.62669   0.72960   2.30221
N     0.73718  -0.65207  -0.93435
C     1.98832  -1.07598  -0.92121
C     2.86104  -0.90996   0.17193
N     3.62868  -0.80081   1.04442
H    -3.83651   2.27689  -0.15082
H    -3.81099   0.85925  -1.23831
H    -4.37979   0.68378   0.44648
H    -1.99293   1.16134   1.11640
H     0.20144  -0.83317  -1.80333
H     2.34956  -1.57997  -1.81794
