23
Generated by autodE on: 2022-06-02. E = -852.834493 Ha
C     3.89703  -1.54666  -0.13350
N     2.46662  -1.51989   0.09349
C     1.74649  -0.37974   0.16758
O     2.23956   0.75030   0.06970
C     0.28910  -0.56870   0.37365
C    -0.70107   0.31519   0.17374
C    -0.67086   1.71927  -0.33539
F     0.01165   1.84311  -1.48758
F    -0.12716   2.57823   0.54495
F    -1.92486   2.15515  -0.58140
C    -2.00976  -0.46726   0.44939
C    -2.16464  -1.49255  -0.69721
C    -1.18754  -2.37993  -0.49452
C    -0.45610  -1.87867   0.77032
O    -1.55152  -1.31972   1.50920
H     4.41393  -2.06472   0.68927
H     4.26636  -0.51672  -0.19313
H     4.13659  -2.06601  -1.07477
H     1.98857  -2.41099   0.17704
H    -2.88677   0.12277   0.73125
H    -2.89437  -1.42111  -1.50253
H    -0.88949  -3.24426  -1.08636
H     0.10790  -2.61007   1.35793
