40
Generated by autodE on: 2022-06-02. E = -1379.510228 Ha. Imaginary frequency = -224.7 cm-1
C     4.69882  -1.58364   0.44128
N     3.65088  -0.64251   0.09303
C     2.82507  -0.13513   1.01997
O     2.91027  -0.37336   2.23134
C     1.73318   0.76151   0.53263
C     1.85354   1.50176  -0.66887
N     1.99704   2.13118  -1.63874
N     0.89545   1.19358   1.49812
C    -0.28911   1.77215   1.26003
C    -1.13845   2.10727   2.34729
N    -1.88100   2.36469   3.20646
C    -1.30443   0.05857   0.13063
C    -2.22909   0.91958  -0.70505
O    -2.04485   2.11473  -0.95240
N    -3.30050   0.24234  -1.15664
C    -4.29414   0.86278  -2.01306
C    -1.91691  -0.88073   1.23981
C    -0.90484  -1.04010   2.36853
C     0.08499  -1.77410   1.84691
C    -0.34213  -2.05016   0.41150
O    -1.77867  -2.15219   0.56681
C    -0.27568  -0.71078  -0.38956
C     0.10735  -0.79805  -1.82655
F    -0.14550   0.32484  -2.51662
F    -0.58104  -1.79255  -2.44035
F     1.41446  -1.09858  -2.01097
H     4.29327  -2.59040   0.63761
H     5.41139  -1.64585  -0.39036
H     5.22679  -1.24267   1.34192
H     3.42169  -0.51901  -0.88861
H     1.09114   0.76842   2.41323
H    -0.44049   2.32346   0.32898
H    -3.32358  -0.76454  -1.02028
H    -5.13561   0.17049  -2.13768
H    -3.87947   1.10316  -3.00599
H    -4.66205   1.79537  -1.56134
H    -2.95379  -0.65973   1.50787
H    -0.98066  -0.57934   3.35235
H     1.03780  -2.05958   2.28650
H     0.08431  -2.92308  -0.09167
