53
Generated by autodE on: 2022-06-06. E = -1488.332556 Ha
C    -3.94298   3.71495  -0.03957
O    -2.98008   2.93784   0.69891
C    -3.02261   1.62433   0.54967
O    -3.80752   1.02240  -0.14589
C    -1.90975   0.92118   1.36589
C    -1.97349   1.43163   2.74926
N    -2.03891   1.80662   3.84454
N    -2.05196  -0.52407   1.37670
C    -1.29801  -1.10183   0.27426
C    -2.14542  -1.17355  -1.01797
O    -1.89972  -0.60243  -2.05588
O    -3.21200  -1.94293  -0.81568
C    -4.16689  -2.02852  -1.88599
C    -0.79848  -2.52638   0.52473
O    -0.35716  -3.20436  -0.38317
O    -0.84119  -2.90222   1.79035
C    -0.29993  -4.20011   2.09892
C    -0.09619  -0.15765   0.07932
C     1.17899  -0.45067   0.94077
O     0.86199   0.15553   2.19690
C     0.64676   1.47137   1.67795
C     1.89110   1.71456   0.83035
C     2.36969   3.08563   0.50581
C     2.25209   0.48754   0.38494
C     3.27616   0.05743  -0.56535
C     3.08789  -1.12368  -1.31541
C     4.04580  -1.54353  -2.23976
C     5.21738  -0.80349  -2.42870
C     5.42564   0.35911  -1.67839
C     4.46937   0.78549  -0.75604
C    -0.52420   1.21029   0.68316
H    -4.96235   3.42603   0.25134
H    -3.80349   3.55724  -1.11810
H    -3.74938   4.76021   0.22429
H    -3.02787  -0.81795   1.38761
H    -4.95573  -2.70226  -1.53341
H    -4.58023  -1.03221  -2.09756
H    -3.69203  -2.43447  -2.79017
H     0.76627  -4.23667   1.83441
H    -0.43138  -4.32954   3.17881
H    -0.84500  -4.97934   1.54840
H     0.15450  -0.10620  -0.98309
H     1.45866  -1.50115   1.06828
H     0.44212   2.19695   2.47248
H     1.50914   3.76320   0.37731
H     2.97741   3.50224   1.32842
H     2.97515   3.11290  -0.41058
H     2.17893  -1.71428  -1.18350
H     3.87584  -2.45694  -2.81487
H     5.96828  -1.13552  -3.14938
H     6.34554   0.93492  -1.80627
H     4.66061   1.67681  -0.15751
H    -0.62127   2.01628  -0.05081
