26
Generated by autodE on: 2022-06-06. E = -578.022642 Ha
C    -1.23537  -2.22449   1.06923
C    -1.28928  -1.06672   0.13911
C    -0.36808  -0.16521  -0.26471
C     1.05135  -0.01694   0.04160
C     1.63581   1.26742   0.06567
C     2.98559   1.43627   0.37885
C     3.78816   0.32683   0.66400
C     3.22743  -0.95497   0.62673
C     1.87818  -1.12779   0.31610
C    -1.19003   0.88774  -1.06531
C    -2.08240   1.64224  -0.05546
C    -2.98648   0.73943   0.33846
C    -2.62554  -0.54276  -0.44581
O    -2.16419   0.02847  -1.68318
H    -1.34426  -3.18155   0.52859
H    -2.07741  -2.17152   1.78116
H    -0.29740  -2.26178   1.64039
H     1.02105   2.14467  -0.14780
H     3.41355   2.44158   0.39921
H     4.84562   0.45878   0.90469
H     3.84949  -1.82972   0.83218
H     1.46389  -2.13531   0.26008
H    -0.64139   1.48494  -1.80170
H    -1.92531   2.66674   0.28087
H    -3.77409   0.81964   1.08717
H    -3.41908  -1.28393  -0.59679
