27
Generated by autodE on: 2022-07-27. E = -910.223135 Ha
C    -2.69562  -0.66456  -1.62070
O    -1.61614  -0.74676  -0.67622
C    -0.38834  -0.87595  -1.17859
O    -0.13619  -1.06693  -2.34761
C     0.62587  -0.86005  -0.08964
N     0.60057  -0.02683   0.94052
C    -0.06631   1.11672   1.20243
C     0.00689   1.61962   2.52319
N     0.06095   2.02971   3.61360
C    -0.67775   1.92445   0.14155
O    -0.51152   1.73225  -1.05079
O    -1.38487   2.93741   0.64568
C    -1.95144   3.86093  -0.29722
C     1.66200  -1.90590   0.04258
O     2.43318  -1.92953   0.98937
O     1.63751  -2.79934  -0.93582
C     2.60579  -3.85988  -0.86712
H    -3.60143  -0.50003  -1.02665
H    -2.53083   0.17644  -2.30840
H    -2.77650  -1.60075  -2.19085
H     1.26764  -0.32708   1.67189
H    -2.65634   3.34173  -0.96229
H    -2.47641   4.61400   0.30094
H    -1.15864   4.33241  -0.89527
H     2.43776  -4.47451  -1.75823
H     3.62398  -3.44575  -0.87246
H     2.45309  -4.45478   0.04454
