27
Generated by autodE on: 2022-06-06. E = -910.228978 Ha
C    -3.45058   1.36229   2.69059
O    -2.79771   0.90211   1.49556
C    -1.48196   0.75581   1.55402
O    -0.80613   0.97282   2.54887
C    -0.87439   0.26129   0.29874
N     0.42338   0.01729   0.42778
C     1.43064  -0.36647  -0.36699
C     1.35298  -0.49566  -1.77024
N     1.36822  -0.57001  -2.93342
C     2.71512  -0.52744   0.33967
O     2.82824  -0.34217   1.54017
O     3.70093  -0.88846  -0.47379
C     4.99631  -1.07682   0.12028
C    -1.61054  -0.12241  -0.92665
O    -1.32094  -1.10937  -1.57752
O    -2.60539   0.70550  -1.22315
C    -3.41289   0.35855  -2.36117
H    -4.51458   1.43400   2.43946
H    -3.29710   0.64428   3.50875
H    -3.05866   2.34638   2.98428
H     0.75552   0.18912   1.39805
H     5.66071  -1.37068  -0.69974
H     5.34466  -0.14040   0.57859
H     4.95390  -1.86865   0.88164
H    -4.17438   1.14264  -2.43684
H    -2.79647   0.33272  -3.27091
H    -3.88568  -0.62208  -2.20830
