53
Generated by autodE on: 2022-06-06. E = -1488.247997 Ha. Imaginary frequency = -255.3 cm-1
C    -4.15686   3.39790  -0.09704
O    -3.57972   2.57486   0.92628
C    -3.29912   1.30895   0.58973
O    -3.54736   0.83397  -0.50519
C    -2.63812   0.60689   1.69284
C    -2.51627   1.25891   2.94750
N    -2.37645   1.79440   3.97309
N    -2.28769  -0.70575   1.66166
C    -1.89055  -1.43355   0.59874
C    -2.68613  -1.56359  -0.67589
O    -2.22777  -1.53135  -1.79570
O    -3.94818  -1.88045  -0.38604
C    -4.84126  -2.02367  -1.50166
C    -1.08864  -2.61894   1.00055
O    -0.78024  -2.84407   2.15742
O    -0.70379  -3.34496  -0.04174
C     0.18145  -4.44675   0.22339
C    -0.17338  -0.04551  -0.07226
C     0.96998  -0.45272   0.88529
O     0.52046   0.16175   2.10152
C     0.41952   1.48722   1.55489
C     1.83421   1.67310   0.95639
C     2.45109   3.01614   0.80074
C     2.18925   0.43609   0.53818
C     3.33568  -0.07126  -0.20782
C     3.20158  -1.25246  -0.97075
C     4.27262  -1.75077  -1.71388
C     5.50590  -1.09121  -1.70410
C     5.65963   0.06951  -0.93716
C     4.59129   0.57338  -0.19498
C    -0.51073   1.21980   0.36171
H    -5.11978   2.98299  -0.42758
H    -4.30501   4.38304   0.35964
H    -3.47533   3.47528  -0.95653
H    -1.83490  -1.03953   2.52080
H    -5.82271  -2.25612  -1.07310
H    -4.88507  -1.08431  -2.07071
H    -4.50805  -2.83949  -2.15868
H     0.36683  -4.91950  -0.74724
H     1.12284  -4.07759   0.65460
H    -0.29115  -5.15853   0.91423
H    -0.29362  -0.43518  -1.08094
H     1.18073  -1.51590   1.02440
H     0.09662   2.22181   2.30064
H     3.24866   3.02888   0.04527
H     2.87874   3.37310   1.75459
H     1.68066   3.75034   0.50969
H     2.24556  -1.78094  -0.99108
H     4.14311  -2.66212  -2.30267
H     6.34525  -1.48394  -2.28267
H     6.62409   0.58254  -0.90974
H     4.73657   1.46164   0.42068
H    -1.00491   2.00164  -0.21146
