26
Generated by autodE on: 2022-05-28. E = -3296.350424 Ha
C    -4.26962   1.52863  -0.36043
N    -3.22197   0.56817  -0.65870
C    -1.99063   0.96121  -0.99494
O    -1.66604   2.14753  -1.11078
C    -0.92687  -0.14233  -1.21080
C    -1.48032  -1.52875  -1.53813
N    -0.03146   0.34474  -2.28617
O     1.32361   0.02845  -1.85662
C     1.28500  -0.13758  -0.49395
C     2.57883  -0.27196   0.21366
O     2.68385  -0.38787   1.41644
O     3.60308  -0.25229  -0.64105
C     4.91450  -0.38607  -0.07092
C     0.02705  -0.19511  -0.02083
Br   -0.56238  -0.43390   1.73309
H    -3.99806   2.15167   0.50617
H    -5.19356   0.98431  -0.13273
H    -4.44778   2.19452  -1.21853
H    -3.43304  -0.42061  -0.58798
H    -0.64139  -2.19760  -1.77706
H    -2.15248  -1.48112  -2.40719
H    -2.02111  -1.96524  -0.68558
H    -0.05487   1.37039  -2.20290
H     5.00295  -1.34196   0.46519
H     5.61323  -0.35601  -0.91446
H     5.11611   0.44302   0.62255
