16
Generated by autodE on: 2022-05-28. E = -417.362906 Ha
C     2.87099   0.93431   0.61580
N     1.42714   0.98606   0.49125
C     0.72348  -0.06829   0.04630
O     1.25667  -1.14275  -0.27959
C    -0.75187   0.11034  -0.03960
C    -1.49386   1.34948   0.31179
N    -1.37869  -0.95745  -0.46745
O    -2.62078  -1.12478  -0.64596
H     3.22687   1.89447   1.00747
H     3.18164   0.13166   1.30295
H     3.34855   0.74862  -0.35937
H     0.94496   1.84184   0.74341
H    -1.13604   2.20538  -0.28356
H    -1.35591   1.60429   1.37579
H    -2.56370   1.20285   0.11872
H    -0.73827  -1.74807  -0.67755
