26
Generated by autodE on: 2022-05-28. E = -3296.263897 Ha. Imaginary frequency = -353.8 cm-1
C    -4.39164   1.06850  -0.65804
N    -3.18946   0.33091  -0.99962
C    -2.00865   0.94804  -1.12746
O    -1.86393   2.17136  -1.00420
C    -0.80965   0.07408  -1.41018
C    -0.94049  -1.37875  -1.75750
N     0.20747   0.79164  -1.91751
O     1.38492   0.30073  -1.91481
C     1.46143  -0.14652   0.14260
C     2.90216  -0.12547   0.23322
O     3.53401   0.70145   0.86680
O     3.46337  -1.12021  -0.46501
C     4.89755  -1.18218  -0.44663
C     0.24923  -0.17994   0.45668
Br   -0.93090  -0.41945   1.84770
H    -4.26333   1.60194   0.29662
H    -5.22504   0.36256  -0.56451
H    -4.63578   1.81065  -1.43400
H    -3.25448  -0.67218  -1.13611
H     0.05119  -1.81587  -1.92036
H    -1.53481  -1.48395  -2.68116
H    -1.44595  -1.94018  -0.96003
H     0.10853   1.81304  -1.80382
H     5.26586  -1.31190   0.58132
H     5.16845  -2.05021  -1.05860
H     5.32754  -0.26551  -0.87586
