12
Generated by autodE on: 2022-06-18. E = -157.300302 Ha
C     1.95564   0.06141  -0.17157
C     0.49737   0.40640  -0.19018
C    -0.49738  -0.40641   0.19011
C    -1.95564  -0.06139   0.17161
H     2.12835  -0.96225   0.19635
H     2.52365   0.75758   0.47095
H     2.39941   0.14365  -1.17971
H     0.24178   1.41377  -0.54772
H    -0.24178  -1.41380   0.54763
H    -2.12840   0.96206  -0.19686
H    -2.52383  -0.75794  -0.47033
H    -2.39916  -0.14300   1.17992
