30
Generated by autodE on: 2022-06-18. E = -671.791159 Ha
C     5.21434  -0.09335   0.24681
O     3.92828  -0.15263   0.85306
C     2.85349   0.04284   0.01776
O     3.05200   0.27882  -1.18187
C     1.60715  -0.08611   0.70995
C     1.53058  -0.62080   2.10355
N     0.40619   0.14303   0.05272
C     0.40683   0.94139  -1.19325
C    -0.76149  -0.21893   0.58503
C    -2.10060  -0.10181   0.03516
C    -3.15869  -0.06609   0.97780
C    -4.48847   0.00304   0.57298
C    -4.80980   0.02176  -0.78977
C    -3.78236  -0.04608  -1.73600
C    -2.44682  -0.11136  -1.33787
H     5.93921  -0.28148   1.04937
H     5.40422   0.89610  -0.19800
H     5.32534  -0.85797  -0.53819
H     0.90269   0.02022   2.75026
H     2.52846  -0.67792   2.54696
H     1.08445  -1.63406   2.14242
H     0.54532   0.29927  -2.07014
H    -0.54497   1.47427  -1.26442
H     1.22406   1.66241  -1.15050
H    -0.70823  -0.65664   1.57778
H    -2.91552  -0.08401   2.04300
H    -5.28092   0.04167   1.32424
H    -5.85255   0.07489  -1.11061
H    -4.02191  -0.06041  -2.80198
H    -1.67855  -0.20926  -2.10262
