24
Generated by autodE on: 2022-06-17. E = -555.975309 Ha
C    -4.30785   1.23790   0.21219
C    -2.81403   0.99070   0.16632
O    -2.00505   1.93376   0.31270
C    -2.40189  -0.36625  -0.05096
C    -3.31904  -1.54368  -0.23249
N    -1.07872  -0.54243  -0.08367
C     0.09112  -0.49405  -0.07940
C     1.49727  -0.39372  -0.06816
C     2.07811   0.88412   0.11068
C     3.46427   1.00692   0.12707
C     4.28017  -0.12009  -0.03249
C     3.70170  -1.38275  -0.20972
C     2.31732  -1.53282  -0.22880
H    -4.78173   0.64903   1.01446
H    -4.49482   2.30589   0.38718
H    -4.78789   0.93445  -0.73251
H    -3.96073  -1.70643   0.65024
H    -2.73731  -2.46192  -0.39561
H    -3.98837  -1.41319  -1.09967
H     1.42976   1.75329   0.23358
H     3.91275   1.99313   0.26558
H     5.36691  -0.01407  -0.01875
H     4.33673  -2.26257  -0.33427
H     1.86097  -2.51417  -0.36595
