46
Generated by autodE on: 2022-10-12. E = -960.728013 Ha
C    -0.28506  -2.10335   2.17264
C     0.36660  -2.01912   1.00422
C     1.43093  -3.00700   0.61023
C     0.11840  -0.92026  -0.00574
C     0.95377   0.35883   0.20600
C     2.41422   0.25634  -0.12146
C     3.35810   0.22025   0.91272
C     4.71544   0.04833   0.62565
C     5.13996  -0.07562  -0.70054
C     4.20166  -0.02854  -1.73819
C     2.84477   0.13163  -1.45099
O     0.31903   1.27596  -0.70357
N    -1.08142   1.03951  -0.58359
C    -1.76872   2.06746   0.07896
O    -2.92043   1.86812   0.48323
N    -1.12772   3.24795   0.16870
C    -1.73977   4.38943   0.81652
C    -1.30528  -0.34058  -0.06121
C    -2.24052  -1.13656  -0.91465
C    -3.36732  -1.74832  -0.50821
C    -3.90886  -1.69003   0.89604
C    -4.18218  -2.57696  -1.46437
H    -0.05150  -2.90043   2.88467
H    -1.06454  -1.39645   2.46550
H     2.38059  -2.49422   0.38426
H     1.61325  -3.74913   1.40078
H     1.13781  -3.53900  -0.31147
H     0.37760  -1.29923  -1.00719
H     0.81451   0.71164   1.24309
H     3.02358   0.31989   1.94814
H     5.44313   0.01600   1.43998
H     6.20091  -0.20591  -0.92684
H     4.52954  -0.12129  -2.77635
H     2.11234   0.16181  -2.26018
H    -0.15218   3.27490  -0.10775
H    -2.75487   4.55787   0.42794
H    -1.13418   5.28107   0.61121
H    -1.81215   4.25940   1.90981
H    -1.69951  -0.24503   0.95548
H    -1.93089  -1.24068  -1.96118
H    -5.00063  -1.53637   0.87531
H    -3.46380  -0.88967   1.50045
H    -3.73665  -2.64837   1.41662
H    -4.29517  -3.60817  -1.08541
H    -5.20430  -2.17013  -1.56002
H    -3.72867  -2.62275  -2.46544
