23
Generated by autodE on: 2022-10-15. E = -609.135925 Ha
C    -2.81984   2.87695   2.47041
N    -3.02969   1.75284   1.58113
C    -1.95984   1.16126   0.95227
O    -0.78297   1.37905   1.33218
N    -2.34094   0.34743  -0.07189
O    -1.15437  -0.13182  -0.71315
C    -0.24541  -0.65985   0.01261
C     1.03834  -0.96369  -0.54880
C     1.94749  -1.70332   0.23775
C     3.19856  -2.03277  -0.27545
C     3.54778  -1.62616  -1.56842
C     2.65014  -0.88619  -2.35371
C     1.40021  -0.54920  -1.85079
H    -2.51005   3.79922   1.94450
H    -2.04141   2.63433   3.20683
H    -3.75270   3.08781   3.01115
H    -3.89882   1.74365   1.05611
H    -0.49288  -0.98166   1.02809
H     1.65738  -2.01308   1.24415
H     3.90430  -2.60594   0.32869
H     4.53065  -1.88358  -1.96978
H     2.93742  -0.57091  -3.35868
H     0.69613   0.03416  -2.44600
