46
Generated by autodE on: 2022-10-12. E = -960.647694 Ha. Imaginary frequency = -227.7 cm-1
C    -0.25440  -0.47270   3.04903
C     0.42326  -1.22709   2.16060
C     1.68887  -1.95306   2.53681
C     0.01363  -1.38552   0.75037
C     0.82420   0.62714  -0.08521
C     2.06375   0.31840  -0.77226
C     3.25715   0.26116  -0.02653
C     4.45892  -0.05794  -0.65671
C     4.47918  -0.32420  -2.03046
C     3.29399  -0.26842  -2.77685
C     2.08973   0.05059  -2.15572
O    -0.16230   1.08220  -0.81304
N    -1.47028   1.10428  -0.27301
C    -1.63886   1.86040   0.85202
O    -2.68170   1.67940   1.52418
N    -0.75621   2.85422   1.18164
C    -0.74506   3.42732   2.51319
C    -1.29427  -1.28057   0.29768
C    -1.68001  -1.77785  -0.99966
C    -2.94521  -1.78169  -1.49445
C    -4.11580  -1.19457  -0.75936
C    -3.24859  -2.38687  -2.83142
H     0.08755  -0.39059   4.08449
H    -1.16301   0.07117   2.78088
H     2.52234  -1.64595   1.88379
H     1.97454  -1.76436   3.58149
H     1.56937  -3.04127   2.39644
H     0.71062  -1.93196   0.10945
H     0.84290   0.86286   0.98028
H     3.23115   0.47525   1.04387
H     5.38344  -0.09777  -0.07690
H     5.42101  -0.57645  -2.52309
H     3.31353  -0.47896  -3.84837
H     1.16141   0.08708  -2.72794
H     0.09250   2.94877   0.63678
H    -0.31822   2.73823   3.26533
H    -1.76595   3.68360   2.82593
H    -0.14335   4.34622   2.50579
H    -2.07704  -0.99901   1.00061
H    -0.87850  -2.20234  -1.61398
H    -4.82500  -0.74153  -1.47065
H    -3.82025  -0.42961  -0.02912
H    -4.67173  -1.98642  -0.22537
H    -4.04127  -3.15067  -2.73923
H    -3.64442  -1.61962  -3.52070
H    -2.36388  -2.85048  -3.29111
