49
Generated by autodE on: 2022-06-22. E = -1092.217856 Ha
C     1.86218   0.27802  -1.78673
N     0.97600   0.94261  -0.84789
C    -0.10367   1.62157  -1.30141
C    -1.02429   2.27382  -0.53413
C    -2.16584   2.88087  -1.21900
N    -3.03798   3.58554  -0.44984
O    -2.36837   2.77607  -2.44947
C    -0.86371   2.27056   0.96494
C    -0.04927   1.06712   1.43369
C     1.19631   0.74961   0.59580
C     1.37710  -0.73382   0.95254
C     2.64143  -1.47662   0.76456
C     2.61716  -2.87898   0.64481
C     3.79910  -3.59735   0.47436
C     5.02819  -2.92778   0.42797
C     5.06452  -1.53624   0.55155
C     3.87994  -0.81367   0.71335
N     0.32629  -1.29519   1.42734
C    -0.77778  -0.32254   1.52503
C    -1.45337  -0.48267   2.88928
C    -1.77035  -0.55058   0.38060
C    -1.38884  -1.21390  -0.79544
C    -2.25441  -1.29167  -1.88956
C    -3.52684  -0.71735  -1.82568
C    -3.93452  -0.09187  -0.64455
C    -3.06755  -0.01728   0.44793
H     1.74513  -0.81831  -1.76360
H     2.91544   0.51321  -1.56933
H     1.63325   0.62644  -2.80196
H    -0.22238   1.62231  -2.38640
H    -3.84614   4.00473  -0.89524
H    -2.90164   3.72758   0.54225
H    -1.83962   2.24921   1.47401
H    -0.36395   3.19265   1.31299
H     0.31551   1.26662   2.45152
H     2.06336   1.35206   0.90786
H     1.65630  -3.39379   0.67820
H     3.76404  -4.68461   0.37323
H     5.95477  -3.49077   0.29328
H     6.01993  -1.00760   0.52018
H     3.92566   0.27167   0.80923
H    -2.16943   0.33065   3.07375
H    -1.98993  -1.44086   2.95493
H    -0.69452  -0.44897   3.68500
H    -0.39386  -1.65028  -0.87630
H    -1.92679  -1.79868  -2.80058
H    -4.19860  -0.76480  -2.68604
H    -4.92930   0.35468  -0.57432
H    -3.40261   0.49327   1.35088
