20
Generated by autodE on: 2022-06-22. E = -457.715317 Ha
C    -3.13321   0.53153  -0.09323
N    -1.82520  -0.10240  -0.08797
C    -1.72864  -1.48508  -0.28812
C    -0.55255  -2.13085  -0.32913
C     0.77630  -1.43499  -0.16682
C     0.57293   0.05759   0.03798
C     1.71549   0.96693   0.21986
N     2.94549   0.39543   0.17516
O     1.59522   2.19483   0.40878
C    -0.67346   0.60932   0.06164
H    -3.62860   0.41575  -1.07142
H    -3.01761   1.60224   0.11546
H    -3.78562   0.09232   0.67837
H    -2.68381  -1.99975  -0.40736
H    -0.55861  -3.21177  -0.48703
H     1.33665  -1.87836   0.68177
H     1.41719  -1.62994  -1.05113
H     3.08539  -0.59091  -0.00267
H     3.76050   0.98936   0.28150
H    -0.79101   1.68406   0.20916
