29
Generated by autodE on: 2022-06-22. E = -634.411599 Ha
C    -0.89364  -2.99374  -0.16838
C    -0.90080  -1.49175  -0.27620
N     0.08831  -0.89258  -0.83438
C     0.93742  -0.25305  -1.45843
C     2.13231   0.33969  -0.83598
C     3.10687   0.92595  -1.66221
C     4.24896   1.50682  -1.10708
C     4.42091   1.51735   0.28062
C     3.45239   0.94272   1.11511
C     2.31707   0.35403   0.56233
C    -2.03248  -0.69244   0.22560
C    -3.15026  -1.32211   0.81014
C    -4.22774  -0.56786   1.27994
C    -4.21631   0.82619   1.17695
C    -3.11076   1.46277   0.59843
C    -2.03109   0.71615   0.13131
H    -1.74920  -3.43209  -0.70880
H    -0.97148  -3.31675   0.88247
H     0.03304  -3.40372  -0.59088
H     2.95414   0.91762  -2.74368
H     5.00388   1.95633  -1.75609
H     5.31137   1.97657   0.71662
H     3.58899   0.95459   2.19907
H     1.55985  -0.09779   1.20805
H    -3.18248  -2.40876   0.89730
H    -5.08407  -1.07651   1.72951
H    -5.05991   1.41385   1.54617
H    -3.08897   2.55213   0.51464
H    -1.17193   1.22619  -0.30901
