33
Generated by autodE on: 2022-10-26. E = -840.333232 Ha
C    -2.24363  -2.76125  -2.43941
O    -1.58070  -1.76377  -1.65406
C    -1.06242  -2.15922  -0.46913
O    -1.18684  -3.29959  -0.04981
C    -0.34242  -1.08280   0.21568
N    -0.22234   0.06079  -0.47680
N     0.31090   1.16680  -0.08108
C     0.36229   2.19959  -1.01260
C     0.69508   3.47253  -0.50007
C     0.77388   4.58078  -1.33940
C     0.53153   4.44757  -2.71221
C     0.21717   3.18700  -3.23306
C     0.13702   2.06965  -2.40234
C     0.22243  -1.26641   1.55841
C    -0.47592  -2.02186   2.52339
C     0.05645  -2.21626   3.79790
C     1.29695  -1.66707   4.13730
C     2.00045  -0.91792   3.18835
C     1.46968  -0.71293   1.91490
H    -3.10808  -3.16806  -1.89496
H    -2.57676  -2.25391  -3.35220
H    -1.55257  -3.57908  -2.69053
H    -0.65004   0.00709  -1.41494
H     0.87961   3.56567   0.57197
H     1.02701   5.55749  -0.91998
H     0.59616   5.31544  -3.37194
H     0.04307   3.06699  -4.30517
H    -0.07745   1.09923  -2.85544
H    -1.44525  -2.45140   2.27238
H    -0.50524  -2.79771   4.53289
H     1.71222  -1.81987   5.13621
H     2.97244  -0.48771   3.44139
H     2.02720  -0.12517   1.18747
