26
Generated by autodE on: 2022-10-23. E = -710.554058 Ha
C     1.38004  -3.00466  -1.44333
O     0.31354  -2.17108  -1.89861
C    -0.58088  -1.74896  -0.93594
F    -1.26989  -2.86007  -0.44172
C     0.06417  -1.02844   0.18013
C     0.42746  -0.04841   0.78880
C     0.54840   1.37680   1.11573
C    -0.41839   1.73437   2.17654
N    -1.20218   2.02571   2.97819
C     1.90446   1.74564   1.56858
N     2.97602   2.04647   1.88947
C     0.20524   2.16462  -0.21314
C    -1.10252   1.73714  -0.90257
C    -1.04732   0.59874  -1.95881
C    -1.59137  -0.78998  -1.57287
H     2.00865  -2.47547  -0.70724
H     1.98459  -3.25007  -2.32552
H     0.99290  -3.93156  -0.99325
H     0.16790   3.22834   0.06254
H     1.06503   2.02117  -0.88357
H    -1.87397   1.51895  -0.14478
H    -1.45517   2.64109  -1.42078
H    -1.65318   0.93092  -2.81447
H    -0.02188   0.49304  -2.34945
H    -2.43391  -0.69442  -0.87162
H    -1.96105  -1.31191  -2.46934
