59
Generated by autodE on: 2022-10-23. E = -1550.884663 Ha. Imaginary frequency = -250.5 cm-1
C    -8.34556  -1.17311   1.35296
O    -7.58850  -0.11965   1.96948
C    -6.82353  -0.44698   3.02060
O    -6.75937  -1.57826   3.46602
C    -6.01551   0.69780   3.51933
C    -5.54336   0.70629   4.93416
C    -6.23832  -0.05452   5.89688
C    -5.84198  -0.05789   7.23402
C    -4.74703   0.70489   7.64932
C    -4.06255   1.48042   6.71070
C    -4.45128   1.48323   5.36975
N    -6.20843   1.85094   2.82843
N    -5.31173   2.79912   2.86743
C    -5.50095   3.85275   1.94216
C    -5.00270   5.11029   2.31521
C    -5.07622   6.18675   1.43156
C    -5.64903   6.01962   0.16629
C    -6.14853   4.76640  -0.20836
C    -6.07402   3.68474   0.66854
C    -3.63500   1.56229   2.24912
C    -3.99712   0.39130   2.47592
C    -3.56481  -1.03667   2.42787
C    -3.61885  -1.64889   3.77399
N    -3.57263  -2.12063   4.83072
C    -4.45120  -1.78923   1.51246
N    -5.09150  -2.35239   0.72844
C    -2.10519  -1.17689   1.85808
C    -0.97464  -0.66109   2.74895
C    -0.95778   0.82384   3.14317
C    -1.15698   1.81317   1.97972
C    -2.52426   2.50693   1.97957
F    -2.49035   3.42642   3.05973
O    -2.81499   3.19989   0.81809
C    -1.89072   4.20161   0.39873
H    -7.66730  -1.93102   0.93759
H    -8.92163  -0.69632   0.55206
H    -9.02077  -1.63729   2.08537
H    -7.09739  -0.65429   5.60248
H    -6.39809  -0.66053   7.95599
H    -4.43243   0.69656   8.69551
H    -3.20772   2.08739   7.01838
H    -3.89673   2.08569   4.65871
H    -6.82031   1.75879   2.00901
H    -4.54634   5.22079   3.29924
H    -4.68275   7.16086   1.73103
H    -5.70197   6.86047  -0.52887
H    -6.58422   4.62550  -1.20027
H    -6.42171   2.70470   0.33304
H    -1.93618  -2.24622   1.66135
H    -2.12019  -0.66324   0.88639
H    -0.93109  -1.26954   3.66689
H    -0.04828  -0.88568   2.19416
H     0.01735   1.01733   3.61493
H    -1.70451   1.01455   3.92874
H    -1.04235   1.31322   1.00606
H    -0.40101   2.61022   2.01969
H    -0.97359   3.76194  -0.02482
H    -2.40382   4.78075  -0.38018
H    -1.62853   4.87395   1.22932
