40
Generated by autodE on: 2022-06-08. E = -6120.549517 Ha
C     3.33768  -0.94627   3.39079
N     2.53627  -1.45088   2.29594
C     2.85435  -1.24699   1.01091
O     3.89567  -0.68860   0.64477
C     1.79838  -1.69856  -0.02216
C     2.51660  -2.25796  -1.25780
C     0.92107  -0.47961  -0.43694
C     0.88104   0.73118   0.54773
O    -0.04928   0.29190   1.54480
C    -1.15068   0.07206   0.65971
C    -1.20536   1.40373  -0.08928
Br   -2.73780   2.08995  -0.90234
C     0.06811   1.81632  -0.15903
Br    0.81370   3.24370  -1.09993
C    -0.56140  -0.95155  -0.36306
C    -0.49501  -2.44828   0.08748
C    -0.77211  -3.29649  -1.10271
N    -0.91050  -3.98137  -2.02907
C    -1.60022  -2.76394   1.14067
C    -1.25989  -2.56335   2.58468
O    -2.69002  -3.13229   0.75211
N     0.84646  -2.63915   0.59616
C     1.28446  -4.01801   0.76424
H     3.08359  -1.49140   4.30906
H     3.16296   0.13017   3.56069
H     4.40568  -1.08873   3.17417
H     1.62019  -1.85633   2.47007
H     1.78673  -2.55036  -2.02644
H     3.17511  -1.48616  -1.67611
H     3.13351  -3.13148  -1.00492
H     1.21096  -0.14442  -1.43815
H     1.83243   1.04673   0.98530
H    -2.06073  -0.21353   1.19605
H    -1.09539  -0.88324  -1.31582
H    -0.69059  -1.63865   2.74353
H    -0.61572  -3.39403   2.91666
H    -2.18340  -2.56748   3.17768
H     1.38040  -4.56528  -0.19107
H     2.25857  -4.03479   1.27082
H     0.56886  -4.56532   1.39468
