13
Generated by autodE on: 2022-06-08. E = -5454.682428 Ha
Br    1.68089  -1.24682   0.40869
C    -0.04854  -0.79562  -0.12283
C    -0.59197   0.40189  -0.37146
Br    0.15798   2.10684  -0.28525
C    -2.10338   0.11629  -0.56893
C    -2.66588  -0.29407   0.81333
C    -2.12379  -1.48902   1.06184
C    -1.23977  -1.78747  -0.17304
O    -2.01883  -1.16769  -1.21064
H    -2.66602   0.84679  -1.15945
H    -3.31688   0.32325   1.43091
H    -2.20489  -2.12742   1.94055
H    -0.99808  -2.83229  -0.39416
