27
Generated by autodE on: 2022-06-08. E = -665.785949 Ha
C     2.86294   0.99481  -2.24181
N     2.28844   1.13610  -0.91740
C     1.53619   0.15674  -0.38869
O     1.43852  -0.96619  -0.88675
C     0.91327   0.46046   0.95768
C     1.70938   1.19866   1.98109
N    -0.25052  -0.05697   1.27114
C    -0.70645  -0.00751   2.67406
C    -1.18597  -0.50983   0.30681
C    -1.99757  -1.60505   0.64753
N    -2.67858  -2.52187   0.90865
C    -1.39171   0.22854  -0.90352
C    -2.49802  -0.24292  -1.82314
O    -0.70262   1.21944  -1.21173
H     3.49852   1.86418  -2.44885
H     2.07617   0.93250  -3.01243
H     3.47370   0.08282  -2.30026
H     2.21387   2.06820  -0.52183
H     1.09778   1.95623   2.49396
H     2.58140   1.68303   1.52997
H     2.07995   0.49872   2.75019
H     0.09043  -0.34919   3.34409
H    -1.58039  -0.65577   2.78502
H    -0.98828   1.02374   2.92943
H    -2.16689  -1.15300  -2.35124
H    -3.42240  -0.49181  -1.28260
H    -2.70048   0.53904  -2.56684
