50
Generated by autodE on: 2022-06-24. E = -1489.942350 Ha
C    -0.41160   4.61424   0.01661
O    -0.16091   3.19565   0.05080
C     0.27836   2.67975   1.18364
O     0.55493   3.28258   2.19052
C     0.34546   1.16466   1.04993
O     1.12788   0.59230   2.09985
C     1.60227  -0.58647   1.59736
O     2.28605  -1.34762   2.21309
C     1.05760  -0.62743   0.15464
C     1.82235  -1.41436  -0.85692
C     2.10439  -2.76599  -0.61357
C     2.75973  -3.52170  -1.58714
C     3.13197  -2.93659  -2.80200
C     2.84628  -1.58988  -3.04301
C     2.19013  -0.82695  -2.07366
O     0.99127   0.77101  -0.12581
C    -0.48593  -0.98808   0.33636
O    -0.55501  -2.09505   1.16298
C    -1.83378  -2.71433   1.34094
C    -1.02828  -1.24911  -1.07460
O    -1.06608  -2.39299  -1.49485
C    -1.38958  -0.09151  -1.91973
C    -1.32786  -0.27458  -3.40367
C    -1.87742   1.03885  -1.33989
C    -2.39806   2.19253  -2.13753
C    -2.04473   1.08984   0.13263
O    -2.95168   1.71905   0.64818
C    -1.02470   0.34907   1.01181
O    -1.53532   0.03997   2.26301
C    -1.64882   1.06987   3.25080
H     0.50744   5.16375   0.26038
H    -0.73452   4.83379  -1.00608
H    -1.20365   4.86436   0.73577
H     1.80258  -3.22590   0.32716
H     2.97797  -4.57473  -1.39632
H     3.64318  -3.53205  -3.56189
H     3.13208  -1.12830  -3.99075
H     1.95751   0.22129  -2.26320
H    -1.84818  -3.12645   2.35891
H    -1.97096  -3.52590   0.61225
H    -2.65301  -1.98859   1.24008
H    -2.34159  -0.39189  -3.82413
H    -0.74222  -1.16312  -3.67027
H    -0.88332   0.61103  -3.88184
H    -3.20793   1.87086  -2.81265
H    -2.77899   2.98810  -1.48627
H    -1.59627   2.60067  -2.77407
H    -0.66708   1.30380   3.68872
H    -2.30033   0.66214   4.03502
H    -2.10577   1.98099   2.84528
