24
Generated by autodE on: 2022-06-24. E = -800.441232 Ha
C     4.63102  -1.07317  -0.50707
O     3.23935  -0.74180  -0.34507
C     2.95781   0.53756  -0.13741
O     3.75009   1.45309  -0.06393
C     1.50680   0.74651  -0.00170
O     0.96019   1.90990   0.18843
C    -0.49258   1.72739   0.25541
O    -1.21864   2.68229   0.42894
C    -0.63210   0.33319   0.07872
C    -1.79235  -0.52248   0.05610
C    -3.07863   0.03504   0.22469
C    -4.20410  -0.78708   0.21023
C    -4.07317  -2.16854   0.02921
C    -2.80000  -2.72584  -0.13933
C    -1.66621  -1.91606  -0.12707
O     0.62190  -0.20215  -0.07302
H     5.04788  -0.53752  -1.37170
H     4.66180  -2.15515  -0.67392
H     5.19097  -0.80640   0.40041
H    -3.18475   1.11086   0.36759
H    -5.19378  -0.34382   0.34263
H    -4.95843  -2.80821   0.01969
H    -2.68888  -3.80336  -0.28133
H    -0.67683  -2.35759  -0.25772
