26
Generated by autodE on: 2022-06-24. E = -689.460851 Ha
C    -3.12766   0.81880   1.03375
O    -1.75398   1.18160   1.20749
C    -0.75737   0.53900   0.59883
C    -0.80044  -0.57819  -0.18090
O    -1.95039  -1.27412  -0.42081
C    -2.47860  -1.17735  -1.74780
C     0.44532  -1.14601  -0.74051
O     0.39639  -2.18661  -1.39417
C     1.75007  -0.46066  -0.49489
C     2.97317  -1.05251  -1.12073
C     1.80590   0.64534   0.28783
C     3.09366   1.35144   0.58018
C     0.56475   1.19872   0.88753
O     0.58509   2.19037   1.60361
H    -3.42101   0.88684  -0.02362
H    -3.32160  -0.19228   1.41391
H    -3.69595   1.55275   1.61910
H    -3.39566  -1.78106  -1.76405
H    -2.72585  -0.13075  -1.99167
H    -1.76998  -1.56975  -2.49182
H     2.72410  -1.93812  -1.71679
H     3.70576  -1.33930  -0.34793
H     3.47443  -0.31453  -1.76859
H     3.56160   1.70895  -0.35202
H     2.93473   2.20876   1.24470
H     3.81633   0.66577   1.05210
