50
Generated by autodE on: 2022-06-24. E = -1489.904010 Ha. Imaginary frequency = -293.6 cm-1
C     0.07881   4.64200   0.03383
O     0.28951   3.21814   0.04229
C     0.50153   2.64505   1.21613
O     0.61213   3.21182   2.28021
C     0.51960   1.15875   1.06404
O     1.01295   0.41933   2.09448
C     1.42647  -0.80841   1.54782
O     1.73839  -1.74318   2.24583
C     1.33551  -0.61247   0.11494
C     1.88450  -1.39941  -0.96376
C     2.29225  -2.73190  -0.74535
C     2.79063  -3.48961  -1.80276
C     2.88976  -2.93705  -3.08486
C     2.49061  -1.61383  -3.30556
C     1.99027  -0.84664  -2.25651
O     1.03891   0.69769  -0.09733
C    -1.12638  -0.99276   0.58892
O    -1.20111  -1.93391   1.53052
C    -0.91775  -3.32345   1.30545
C    -1.18405  -1.28387  -0.85609
O    -1.10746  -2.43236  -1.29356
C    -1.34525  -0.13183  -1.78928
C    -1.16644  -0.41042  -3.24957
C    -1.71952   1.09508  -1.33916
C    -1.93744   2.25242  -2.26312
C    -2.00175   1.31466   0.10306
O    -2.64379   2.28376   0.48766
C    -1.40870   0.34322   1.07429
O    -1.79131   0.31889   2.37428
C    -2.17264   1.47820   3.12305
H     0.96022   5.15857   0.43735
H    -0.07945   4.91163  -1.01559
H    -0.80884   4.88743   0.63325
H     2.21749  -3.16196   0.25296
H     3.10301  -4.52087  -1.62512
H     3.27813  -3.53677  -3.91095
H     2.56754  -1.17717  -4.30358
H     1.67881   0.18361  -2.42939
H    -0.81099  -3.75382   2.30910
H     0.00846  -3.45696   0.73876
H    -1.75044  -3.80634   0.77774
H    -2.13961  -0.35925  -3.76817
H    -0.73916  -1.40510  -3.41631
H    -0.51838   0.34582  -3.71659
H    -2.67084   2.00047  -3.04609
H    -2.29405   3.13336  -1.71694
H    -0.99721   2.50898  -2.77854
H    -1.49988   2.32451   2.94903
H    -2.10014   1.17312   4.17585
H    -3.20575   1.77284   2.89712
