22
Generated by autodE on: 2022-12-30. E = -513.061785 Ha
C    -3.23467  -1.39365   0.09247
C    -1.86690  -0.92979   0.42382
N    -1.35753   0.20974   0.05191
C    -2.17332   1.20531  -0.66445
C     0.02982   0.48030   0.18695
C     0.43087   1.80275   0.39854
N     0.81009   2.89995   0.58176
C     0.99415  -0.57950  -0.07346
O     0.66341  -1.75332  -0.34680
N     2.31319  -0.23360  -0.00493
C     3.35081  -1.16364  -0.39609
H    -3.26747  -2.49058   0.14769
H    -3.56945  -1.06881  -0.90273
H    -3.95629  -1.00780   0.83625
H    -1.21500  -1.56913   1.01696
H    -3.22072   1.13498  -0.35518
H    -2.08280   1.03841  -1.74731
H    -1.79825   2.20629  -0.42380
H     2.55855   0.74842   0.05822
H     3.21697  -2.12907   0.11332
H     4.32652  -0.75064  -0.10821
H     3.36356  -1.35804  -1.48376
