28
Generated by autodE on: 2022-12-30. E = -724.035864 Ha
C     2.32360   2.85936   1.19900
N     1.71625   1.56361   0.98432
C     0.55240   1.44416   0.31312
O    -0.11605   2.44475  -0.00795
C     0.10937   0.06537  -0.05165
C     1.13139  -0.99301  -0.28839
O     2.26507  -0.92741   0.24104
N     0.83555  -2.04048  -1.08370
C     1.76739  -3.13470  -1.26086
C    -1.24798  -0.15576  -0.21868
O    -2.24069   0.54331   0.30529
C    -2.14574   1.20903   1.57351
O    -1.68556  -1.16630  -0.96691
C    -3.03197  -1.65081  -0.80781
H     3.26314   2.72555   1.75030
H     1.66371   3.51421   1.78865
H     2.54391   3.37893   0.25009
H     2.27041   0.70457   1.03676
H    -0.09396  -2.09907  -1.48305
H     2.01475  -3.61954  -0.30208
H     1.31205  -3.88029  -1.92458
H     2.71144  -2.79143  -1.71322
H    -3.12338   1.07791   2.05511
H    -1.92805   2.27188   1.42264
H    -1.35776   0.74985   2.18688
H    -3.07603  -2.57719  -1.39198
H    -3.75151  -0.92130  -1.20245
H    -3.24554  -1.85723   0.24992
