50
Generated by autodE on: 2022-12-30. E = -1237.073893 Ha. Imaginary frequency = -380.8 cm-1
C    -4.37006   0.09611   2.43259
N    -3.39665   0.30575   1.37980
C    -2.10275   0.01048   1.57967
O    -1.66666  -0.32884   2.68474
C    -1.16678   0.12168   0.35959
C    -1.79466   0.12204  -1.02432
O    -3.01549  -0.06649  -1.19841
N    -0.97364   0.20830  -2.07888
C    -1.45399  -0.00644  -3.42868
C    -0.34737  -1.63196   0.46934
C    -1.46223  -2.62864   0.29768
N     0.73894  -1.75496  -0.35837
C     0.72777  -2.64858  -1.51658
C     1.90268  -1.00093  -0.01745
C     2.43766  -1.19586   1.26611
N     2.83253  -1.37122   2.35873
C     2.53097  -0.04313  -0.88152
O     3.44682   0.72175  -0.48882
N     2.05788   0.07360  -2.17914
C     2.65757   1.03261  -3.08849
C    -0.11425   1.10758   0.60809
O     0.26317   1.85650  -0.38449
C     0.95101   3.12842  -0.31355
O     0.29443   1.26562   1.82857
C     1.57091   1.82058   2.24109
H    -4.09545   0.65887   3.33686
H    -5.35014   0.44575   2.08444
H    -4.45270  -0.96858   2.71159
H    -3.68833   0.33960   0.39860
H     0.03239   0.32213  -1.95095
H    -2.22300   0.73173  -3.70525
H    -1.89233  -1.01132  -3.54430
H    -0.60570   0.09176  -4.11801
H    -0.07585  -1.45957   1.51643
H    -1.89402  -2.61245  -0.71259
H    -2.26148  -2.44959   1.02647
H    -1.06550  -3.63986   0.48348
H     0.07661  -2.28736  -2.32858
H     1.75347  -2.73849  -1.89449
H     0.39449  -3.65947  -1.23788
H     1.68110  -0.76188  -2.61405
H     2.57162   2.05203  -2.68559
H     3.72660   0.83273  -3.28000
H     2.11683   0.99327  -4.04382
H     0.73382   3.60795  -1.27411
H     2.02798   2.96767  -0.20719
H     0.54215   3.72822   0.50796
H     2.34102   1.58538   1.49927
H     1.47043   2.90007   2.40053
H     1.79665   1.31598   3.18581
