17
Generated by autodE on: 2022-06-18. E = -456.183613 Ha
C     2.78209   0.30177   1.68430
N     2.05848   0.20127   0.73588
C     1.18710  -0.04432  -0.20821
C     1.69658  -0.39701  -1.48761
N     2.09670  -0.68664  -2.54431
C    -0.26028   0.03149   0.05204
C    -1.18109  -0.24678  -0.97589
C    -2.55280  -0.18479  -0.72937
C    -3.03008   0.15317   0.54123
C    -2.11915   0.43090   1.56647
C    -0.74599   0.37420   1.32833
H     3.29410   1.17894   2.10194
H    -0.82104  -0.51517  -1.97143
H    -3.25361  -0.40377  -1.53836
H    -4.10453   0.20118   0.73141
H    -2.48015   0.69738   2.56263
H    -0.04763   0.59793   2.13725
