20
Generated by autodE on: 2022-06-18. E = -457.715311 Ha
C    -3.08223  -0.03692  -0.78278
N    -1.82354  -0.14422  -0.06349
C    -1.82401  -0.59502   1.26251
C    -0.69804  -0.74085   1.97866
C     0.67419  -0.44105   1.42765
C     0.57425   0.05362  -0.00618
C     1.77430   0.43440  -0.76746
N     2.95902   0.29548  -0.12008
O     1.74021   0.86656  -1.93776
C    -0.62795   0.16266  -0.63951
H    -3.57376  -1.01963  -0.87184
H    -2.89256   0.35093  -1.79138
H    -3.77352   0.64933  -0.26750
H    -2.81146  -0.81663   1.67155
H    -0.77980  -1.09398   3.00920
H     1.18674   0.30553   2.06813
H     1.31524  -1.34452   1.49148
H     3.81218   0.53279  -0.61413
H     3.02995  -0.07715   0.81804
H    -0.67044   0.51629  -1.67089
