40
Generated by autodE on: 2022-06-11. E = -8809.407829 Ha
C    -0.71926   3.30427  -2.65756
N    -0.34993   2.62943  -1.42502
C    -0.06067   1.33277  -1.41938
O    -0.03862   0.64431  -2.44259
C     0.22668   0.60134  -0.07090
Br    0.59537   1.90210   1.35047
C     1.37646  -0.45313  -0.30169
C     2.35939   0.03549  -1.39035
O     2.71454   1.18683  -1.48389
O     2.80511  -0.96913  -2.12378
C     3.74271  -0.64031  -3.16646
C     2.29345  -0.71463   0.93033
O     3.16106   0.05615   1.26949
O     2.05120  -1.88255   1.49186
C     2.84011  -2.22013   2.64571
O     0.73734  -1.65231  -0.66321
C    -0.69201  -1.58984  -0.66242
C    -1.22933  -2.92135  -0.13452
C    -1.21916  -1.55670  -2.13850
C    -0.28876  -2.10865  -3.18793
O    -2.38732  -1.32644  -2.36647
C    -0.98399  -0.34475   0.24303
Br   -0.97227  -0.88229   2.16054
Br   -2.69675   0.54921  -0.02665
H     0.06754   3.17833  -3.41567
H    -0.85054   4.37162  -2.44609
H    -1.65895   2.89614  -3.06194
H    -0.37483   3.14372  -0.55162
H     3.27939   0.05724  -3.87794
H     4.64530  -0.18734  -2.73347
H     3.98536  -1.58778  -3.65946
H     2.49495  -3.20975   2.96388
H     3.90623  -2.24905   2.38082
H     2.67673  -1.48069   3.44245
H    -0.71803  -3.19541   0.79423
H    -2.31182  -2.84748   0.03549
H    -1.04813  -3.71198  -0.87560
H     0.71385  -1.67653  -3.13760
H    -0.74181  -1.94028  -4.17362
H    -0.19398  -3.19577  -3.02628
