13
Generated by autodE on: 2022-06-11. E = -8007.490495 Ha
C    -4.19659   0.22778  -0.11812
N    -2.81403  -0.06207   0.21896
C    -1.84555   0.84348   0.02630
O    -2.03162   1.98034  -0.40224
C    -0.45271   0.38983   0.42277
Br    0.05873   0.96733   2.15360
C     0.37896  -0.27237  -0.39571
Br    2.15053  -0.75255   0.03785
Br   -0.18491  -0.77800  -2.13889
H    -4.54426   1.13061   0.40633
H    -4.81877  -0.62320   0.18274
H    -4.31497   0.39245  -1.20105
H    -2.57056  -0.98743   0.55860
