27
Generated by autodE on: 2022-06-11. E = -801.852646 Ha
C    -3.49415  -2.08919  -0.26072
O    -2.66263  -0.97738   0.09477
C    -1.36221  -1.08299  -0.21472
O    -0.87247  -2.09875  -0.69774
C    -0.60500   0.13441   0.02352
O     0.74513   0.08852  -0.01519
C     1.57903  -0.80349   0.39335
C     1.21001  -1.98264   1.17929
C     3.00030  -0.44536   0.10044
C     3.26002   0.83054  -0.64482
O     3.88321  -1.20820   0.46637
C    -1.13985   1.48820  -0.05542
O    -2.32491   1.77939  -0.11725
O    -0.16421   2.42110  -0.03408
C    -0.59174   3.78402  -0.12808
H    -4.51327  -1.80528   0.02678
H    -3.44617  -2.28225  -1.34252
H    -3.18604  -2.99379   0.28381
H     0.41371  -1.70448   1.89386
H     2.09754  -2.36212   1.69870
H     0.78188  -2.77632   0.54242
H     2.87443   0.74405  -1.67408
H     2.72848   1.67222  -0.17590
H     4.33995   1.02107  -0.67064
H    -1.24421   4.04659   0.71773
H    -1.13198   3.96102  -1.06990
H     0.32223   4.38892  -0.09988
