39
Generated by autodE on: 2022-06-17. E = -677.620441 Ha
C     5.10270  -1.33993   0.68887
C     4.20361  -0.41709   0.28963
C     4.60361   0.75685  -0.56512
C     2.79726  -0.54871   0.68784
C     1.80390   0.30018   0.36251
C     0.37842   0.11913   0.77120
C    -0.28870   1.38323   1.33010
N    -1.73432   1.22191   1.10876
C    -1.98661   0.00146   0.31967
C    -2.46335  -1.14462   1.22838
C    -3.06453   0.20795  -0.75612
C    -3.58932   1.59119  -1.01381
O    -3.49083  -0.75511  -1.38031
C    -0.59660  -0.29346  -0.37751
C    -0.40637  -1.75114  -0.78765
C    -0.39214   0.59730  -1.61644
H     4.80335  -2.19040   1.30930
H     6.15698  -1.27061   0.40630
H     4.04471   0.76352  -1.51575
H     5.67831   0.73559  -0.79477
H     4.37520   1.71053  -0.06075
H     2.55747  -1.42417   1.30344
H     2.02575   1.18301  -0.24568
H     0.33086  -0.67786   1.52912
H    -0.06173   1.52760   2.39699
H     0.09638   2.27337   0.79969
H    -2.22027   1.14845   1.99831
H    -3.35642  -0.81671   1.78519
H    -2.73635  -2.03804   0.65312
H    -1.68846  -1.41333   1.96003
H    -4.12886   1.94747  -0.12169
H    -4.26920   1.57414  -1.87625
H    -2.76685   2.30029  -1.17978
H     0.58563  -1.87967  -1.24850
H    -0.46430  -2.43508   0.07071
H    -1.16456  -2.05542  -1.52481
H    -1.12264   0.35491  -2.40282
H     0.60722   0.42627  -2.04253
H    -0.48096   1.66900  -1.38765
