23
Generated by autodE on: 2022-06-17. E = -351.521384 Ha
C     3.73353  -0.49712   0.33492
C     2.55667   0.16663   0.35174
C     2.48854   1.63124   0.70170
C     1.31721  -0.53672   0.02734
C     0.07671   0.01262   0.01146
C    -1.12130  -0.73208  -0.31864
C    -2.39306  -0.25990  -0.35499
C    -3.53793  -1.16207  -0.71992
C    -2.78128   1.15835  -0.04671
H     3.78013  -1.56061   0.08095
H     4.67547   0.00458   0.57359
H     1.84493   1.80018   1.58103
H     2.05207   2.21733  -0.12408
H     3.48686   2.03488   0.92195
H     1.42105  -1.59973  -0.22164
H    -0.03497   1.07173   0.25908
H    -0.96813  -1.79009  -0.56376
H    -3.20629  -2.18780  -0.93826
H    -4.28110  -1.20128   0.09678
H    -4.07628  -0.77339  -1.60307
H    -1.93247   1.80065   0.22094
H    -3.29520   1.61080  -0.91322
H    -3.50676   1.18296   0.78559
