16
Generated by autodE on: 2022-06-17. E = -326.054590 Ha
C    -2.58320   0.01677  -0.07267
N    -1.33284  -0.34483   0.05023
C    -0.17368   0.36268  -0.09219
C    -0.26540   1.80508  -0.44962
C     0.99801  -0.41735   0.12919
C     2.35268   0.24736   0.00171
O     0.92782  -1.64060   0.42496
H    -2.83305   1.04489  -0.33290
H    -3.35563  -0.73342   0.09059
H    -1.12533  -1.32443   0.29593
H    -0.78893   1.95328  -1.41384
H     0.72773   2.26220  -0.53364
H    -0.83845   2.37644   0.30598
H     3.13721  -0.49283   0.20832
H     2.45449   1.08616   0.70894
H     2.50262   0.65612  -1.01056
