39
Generated by autodE on: 2022-06-17. E = -677.556493 Ha. Imaginary frequency = -388.2 cm-1
C     5.36833  -0.32658   0.80272
C     4.20713   0.12225   0.27651
C     4.16324   1.38709  -0.54358
C     2.96247  -0.61555   0.49047
C     1.74837  -0.26833   0.00019
C     0.50926  -1.00952   0.23349
C    -0.20101   0.21019   1.85729
N    -1.19219   0.87909   1.24777
C    -2.21034   0.22182   0.59585
C    -2.90192  -0.91224   1.29047
C    -2.82889   1.00621  -0.44633
C    -4.02908   0.44248  -1.16706
O    -2.35661   2.11262  -0.78656
C    -0.54077  -1.03599  -0.72173
C    -1.29715  -2.32194  -0.91653
C    -0.47237  -0.13291  -1.92526
H     6.30909   0.21071   0.65334
H     5.40284  -1.24475   1.39768
H     3.78430   1.18887  -1.56010
H     5.16038   1.84164  -0.62973
H     3.48174   2.12901  -0.09491
H     3.04249  -1.52504   1.09869
H     1.66591   0.63786  -0.60680
H     0.62661  -1.92122   0.82974
H    -0.47055  -0.64497   2.47627
H     0.65236   0.80226   2.19128
H    -0.94322   1.74947   0.77179
H    -3.51063  -0.54106   2.13610
H    -3.57250  -1.44727   0.60887
H    -2.19556  -1.64988   1.69515
H    -4.89649   0.38730  -0.48864
H    -3.83839  -0.57941  -1.52988
H    -4.27850   1.09146  -2.01692
H    -1.36463  -2.90980   0.00989
H    -0.77370  -2.95024  -1.66346
H    -2.31409  -2.15746  -1.30423
H    -1.39379  -0.19144  -2.52242
H     0.36749  -0.42387  -2.58408
H    -0.31831   0.92249  -1.65445
