29
Generated by autodE on: 2022-06-02. E = -762.888543 Ha
C    -3.50504   2.50751   0.36230
C    -2.06959   2.07233   0.29999
O    -1.15160   2.89590   0.43355
C    -1.71882   0.65878   0.10615
N    -0.36796   0.48856   0.10044
C     0.43594  -0.47795  -0.32931
C    -0.10045  -1.51321  -1.14594
N    -0.49901  -2.33756  -1.86504
C     1.87387  -0.44759  -0.05808
C     2.74753  -1.27434  -0.79451
C     4.12021  -1.23216  -0.56201
C     4.64553  -0.37012   0.40649
C     3.78511   0.44508   1.15055
C     2.41019   0.40330   0.93111
C    -2.68777  -0.43893   0.14227
C    -2.30806  -1.75098   0.79572
O    -3.85024  -0.26844  -0.23224
H    -3.53790   3.57300   0.62491
H    -4.07206   1.91636   1.09626
H    -3.99027   2.34868  -0.61232
H     0.09168   1.36171   0.41591
H     2.34948  -1.94450  -1.55851
H     4.78446  -1.87550  -1.14280
H     5.72183  -0.34120   0.58940
H     4.18612   1.10738   1.92061
H     1.75615   1.01742   1.55270
H    -3.07343  -1.94895   1.56217
H    -1.31773  -1.75759   1.26962
H    -2.35835  -2.56852   0.06068
