29
Generated by autodE on: 2022-07-27. E = -762.886722 Ha
C    -2.50092  -0.03944   2.32508
C    -2.87751  -0.38215   0.89580
O    -4.05311  -0.64434   0.62288
C    -1.82286  -0.37113  -0.11440
N    -0.55454  -0.07897   0.34198
C     0.52649   0.38119  -0.27760
C     0.40420   1.04648  -1.53257
N     0.37779   1.69863  -2.49606
C     1.83650   0.33893   0.37424
C     2.86959   1.20063  -0.05064
C     4.10662   1.18286   0.58834
C     4.33765   0.30690   1.65491
C     3.32482  -0.56326   2.07246
C     2.08697  -0.55906   1.43344
C    -1.97241  -0.83805  -1.48803
C    -3.33100  -1.23190  -2.00879
O    -0.98043  -0.96322  -2.22118
H    -3.40045  -0.11536   2.94824
H    -1.74258  -0.73667   2.72284
H    -2.09231   0.98061   2.40162
H    -0.40208  -0.26219   1.33833
H     2.69592   1.89481  -0.87442
H     4.89538   1.85965   0.25353
H     5.30985   0.29374   2.15229
H     3.50568  -1.26486   2.88936
H     1.32878  -1.28104   1.74319
H    -3.76904  -2.04290  -1.40968
H    -4.03111  -0.38583  -1.95082
H    -3.21369  -1.55404  -3.05218
