26
Generated by autodE on: 2022-10-22. E = -557.206155 Ha
C     4.61157   0.34570  -0.55325
C     3.09930   0.43979  -0.45005
O     2.52903   1.43389  -0.98579
C     2.45989  -0.60538   0.24026
N     1.08528  -0.74132   0.41533
C     0.67976  -1.97019   1.12284
C     0.19428   0.14573   0.00309
C    -1.25518   0.08429   0.04839
C    -2.05540  -1.08245   0.08510
C    -3.44703  -0.98771   0.09047
C    -4.08034   0.25880   0.05690
C    -3.30520   1.42275  -0.00474
C    -1.91626   1.33600  -0.02046
H     4.90069   0.32925  -1.61746
H     5.06305   1.25083  -0.11394
H     5.03092  -0.54042  -0.05640
H     3.04451  -1.41022   0.67562
H     1.50715  -2.29013   1.76433
H    -0.19984  -1.77181   1.74317
H     0.45657  -2.76689   0.40095
H     0.64463   1.04376  -0.41919
H    -1.60250  -2.07116   0.07278
H    -4.04384  -1.90252   0.11247
H    -5.17077   0.32247   0.06546
H    -3.78722   2.40224  -0.04555
H    -1.31465   2.24623  -0.07664
