26
Generated by autodE on: 2022-10-26. E = -557.195476 Ha
C    -3.27473   1.89190   1.40511
C    -3.30582   1.21656   0.04113
O    -4.40575   1.21576  -0.57767
C    -2.19575   0.55723  -0.54022
N    -0.88959   0.43808  -0.08811
C    -0.35310   1.45005   0.84228
C    -0.09157  -0.49579  -0.58947
C     1.29770  -0.78772  -0.30149
C     1.97717  -0.52200   0.91253
C     3.31233  -0.89183   1.07378
C     4.00573  -1.53817   0.04576
C     3.34168  -1.83486  -1.15091
C     2.00825  -1.47505  -1.31831
H    -2.89530   2.92409   1.33109
H    -4.31172   1.94463   1.76510
H    -2.66497   1.35905   2.14683
H    -2.41177  -0.03637  -1.43016
H    -0.89057   2.38720   0.68789
H    -0.45662   1.12299   1.88339
H     0.70447   1.61418   0.61484
H    -0.56063  -1.11298  -1.35916
H     1.45871  -0.06624   1.75314
H     3.81277  -0.68174   2.02194
H     5.05170  -1.82228   0.18102
H     3.86749  -2.35232  -1.95663
H     1.49407  -1.71391  -2.25234
