14
Generated by autodE on: 2022-10-22. E = -5454.941802 Ha
C    -2.65839  -1.96102   1.26950
O    -1.98303  -1.23746   0.23032
C    -0.64756  -1.12633   0.32845
O    -0.01036  -2.22887   0.76932
C     0.75225  -2.16165   1.98617
C    -0.02405   0.00564  -0.07684
Br   -0.99917   1.54634  -0.59203
Br    1.85792   0.09852  -0.27999
H    -3.72671  -1.90741   1.02682
H    -2.33685  -3.01168   1.29749
H    -2.47812  -1.49080   2.24937
H     0.64888  -3.13913   2.47632
H     1.81303  -1.96986   1.77030
H     0.36139  -1.37433   2.64738
