27
Generated by autodE on: 2022-10-13. E = -815.066014 Ha
C     3.61912  -0.79842  -2.59023
N     2.44726  -0.57455  -1.76582
C     2.49837   0.23248  -0.69442
O     3.51063   0.84811  -0.33901
C     1.24349   0.38727   0.09108
C     1.30801   1.14949   1.28215
N     1.50210   1.71173   2.28525
O     0.22031  -0.32176  -0.28996
C    -1.04303  -0.46144   0.04116
C    -1.69677  -1.60205  -0.61378
C    -0.89587  -2.40871  -1.59931
O    -2.86349  -1.88911  -0.33577
C    -1.72056   0.60896   0.80998
O    -1.17959   1.72048   0.91155
N    -2.93024   0.31334   1.31162
C    -3.75216   1.33072   1.93433
H     3.34857  -1.47419  -3.40985
H     4.43582  -1.25277  -2.00725
H     3.99088   0.14727  -3.01476
H     1.57935  -1.04441  -1.99910
H    -1.51382  -3.23802  -1.96439
H     0.02042  -2.80099  -1.13246
H    -0.58875  -1.77494  -2.44740
H    -3.33528  -0.57739   1.01960
H    -4.59547   0.84641   2.44150
H    -3.16521   1.89430   2.67358
H    -4.14767   2.04901   1.19596
