27
Generated by autodE on: 2022-10-07. E = -815.062439 Ha
C     3.63425   1.59689   1.03846
N     2.95041   0.50068   0.37721
C     1.66999   0.21629   0.64818
O     0.97565   0.83895   1.45672
C     1.11384  -1.00687  -0.00397
C     1.90003  -2.16094  -0.21958
N     2.58915  -3.08121  -0.42223
O    -0.17757  -1.21379  -0.08936
C    -1.16917  -0.34582  -0.10587
C    -2.48280  -0.97005   0.08084
C    -2.52937  -2.46248   0.26451
O    -3.50354  -0.27703   0.12771
C    -0.92686   1.03400  -0.60093
O     0.11939   1.29761  -1.21289
N    -1.92448   1.91120  -0.41333
C    -1.88549   3.23300  -1.00442
H     3.72053   1.41643   2.12148
H     3.08707   2.54052   0.89052
H     4.63911   1.69372   0.61188
H     3.45062  -0.05216  -0.31304
H    -1.99859  -2.97709  -0.55091
H    -3.57800  -2.78308   0.29756
H    -2.02946  -2.74273   1.20568
H    -2.80387   1.52357  -0.06620
H    -2.65199   3.85900  -0.53107
H    -2.07379   3.20424  -2.09128
H    -0.89829   3.68809  -0.84289
