10
Generated by autodE on: 2022-10-07. E = -455.051681 Ha
O     2.03040   1.08165  -1.11155
C     1.95188   0.23688  -0.17761
O     2.92647  -0.27883   0.43784
C     0.57553  -0.21489   0.26755
C    -0.57555   0.21492  -0.26766
C    -1.95188  -0.23695   0.17756
O    -2.03032  -1.08170   1.11151
O    -2.92652   0.27891  -0.43767
H     0.54448  -0.94213   1.08605
H    -0.54461   0.94219  -1.08614
