54
Generated by autodE on: 2022-06-24. E = -1323.021038 Ha
C    -3.53309  -0.83618  -2.62176
N    -2.86708  -0.32529  -1.43897
C    -1.89990  -1.01917  -0.82583
O    -1.59801  -2.16762  -1.17243
C    -1.09279  -0.24086   0.24977
C    -1.97082   0.70914   1.04100
C    -1.62120   2.05383   1.21435
C    -2.41936   2.89713   1.99367
C    -3.57309   2.40614   2.60981
C    -3.93032   1.06489   2.43568
C    -3.13718   0.22372   1.65333
O    -0.13095   0.50909  -0.50544
C     1.09562  -0.20048  -0.68226
C     1.24211  -0.44198  -2.20686
O     0.31237  -0.39020  -2.98147
O     2.50667  -0.62820  -2.57271
C     2.73598  -0.95149  -3.95029
C     2.25095   0.69031  -0.21507
C     3.48581   0.15247   0.17008
C     4.53001   0.98937   0.57141
C     4.35684   2.37665   0.58407
C     3.13379   2.91993   0.18119
C     2.08959   2.08240  -0.22048
C     0.93549  -1.51180   0.15099
C     0.78127  -2.80391  -0.61523
O     1.19632  -3.00103  -1.74036
C    -0.20847  -1.16318   1.15022
C     0.39004  -0.34396   2.30921
C    -0.93514  -2.36339   1.76468
H    -4.31624  -0.12997  -2.92248
H    -2.81975  -0.95802  -3.45337
H    -3.99379  -1.81485  -2.42047
H    -3.05181   0.62521  -1.13508
H    -0.71789   2.43989   0.74476
H    -2.13413   3.94432   2.11944
H    -4.19533   3.06579   3.21916
H    -4.83373   0.67129   2.90725
H    -3.43543  -0.81685   1.51333
H     2.22283  -1.89001  -4.20550
H     3.82034  -1.06962  -4.05714
H     2.37430  -0.14396  -4.60247
H     3.64664  -0.92650   0.15090
H     5.48391   0.55224   0.87586
H     5.17239   3.03019   0.90241
H     2.98802   4.00278   0.17856
H     1.13941   2.51182  -0.53698
H     1.85077  -1.70179   0.73469
H     0.38182  -3.64558  -0.01183
H    -0.38618  -0.08254   3.04141
H     1.15214  -0.95079   2.82057
H     0.86657   0.58534   1.97270
H    -1.64569  -2.00949   2.52540
H    -0.20919  -3.01361   2.27655
H    -1.48592  -2.96165   1.03215
