14
Generated by autodE on: 2022-06-24. E = -270.683225 Ha
C    -1.37349   1.89022   0.24777
C    -0.61675   0.60559   0.12463
C    -1.39332  -0.64988   0.40090
C     0.70018   0.61226  -0.22005
C     1.54729  -0.56125  -0.37172
O     1.21500  -1.73370  -0.21228
H    -1.79158   1.98252   1.26573
H    -2.24091   1.88151  -0.43558
H    -0.75328   2.77096   0.03176
H    -1.37796  -1.32233  -0.47140
H    -2.43763  -0.42257   0.65669
H    -0.93967  -1.21896   1.22782
H     1.19278   1.57124  -0.40553
H     2.59999  -0.32686  -0.66316
