40
Generated by autodE on: 2022-06-24. E = -1052.259799 Ha
C     3.89123   1.85179  -2.35354
N     2.72152   1.43039  -1.61241
C     2.27047   0.15878  -1.67703
O     2.78538  -0.69682  -2.41526
C     1.11053  -0.16833  -0.81318
O     0.72971   0.83798  -0.06690
C    -0.27895   1.12947   0.74850
C    -0.08211   2.37046   1.47846
O    -0.89965   2.84958   2.25703
O     1.10650   2.96027   1.22002
C     1.35004   4.20941   1.87366
C    -1.50483   0.34353   0.82485
C    -2.10066  -0.17383  -0.34570
C    -3.24521  -0.96443  -0.27039
C    -3.81982  -1.25372   0.97176
C    -3.25287  -0.72653   2.13806
C    -2.10898   0.06710   2.06884
C     0.52283  -1.49667  -0.74124
C     0.25353  -2.23145  -1.91499
C    -0.36698  -3.47658  -1.83694
C    -0.71397  -4.01663  -0.59274
C    -0.42394  -3.30989   0.57931
C     0.18443  -2.05924   0.50877
H     4.79566   1.30747  -2.03370
H     3.75995   1.67695  -3.43286
H     4.04889   2.92425  -2.18675
H     2.28957   2.07024  -0.95348
H     2.34662   4.53094   1.54854
H     1.33129   4.08776   2.96681
H     0.59861   4.95792   1.58085
H    -1.66543   0.04955  -1.31984
H    -3.68801  -1.36128  -1.18655
H    -4.70946  -1.88485   1.03097
H    -3.69906  -0.94653   3.11069
H    -1.65876   0.45792   2.98158
H     0.50703  -1.80326  -2.88432
H    -0.59130  -4.02663  -2.75362
H    -1.20738  -4.98961  -0.53717
H    -0.68126  -3.73139   1.55332
H     0.40968  -1.51625   1.42658
