54
Generated by autodE on: 2022-06-24. E = -1322.933283 Ha. Imaginary frequency = -310.2 cm-1
C    -3.10882  -0.36161  -3.17494
N    -2.35422   0.16804  -2.05583
C    -2.26662  -0.51742  -0.89591
O    -3.02015  -1.45677  -0.62391
C    -1.31674   0.08359   0.11561
C    -1.93644   0.84195   1.21183
C    -1.17067   1.77072   1.95072
C    -1.73649   2.48082   3.00641
C    -3.07307   2.27039   3.36686
C    -3.83706   1.34176   2.65396
C    -3.28081   0.63524   1.58725
O    -0.19774   0.68264  -0.33868
C     0.92774   0.25317  -0.89540
C     0.85965  -0.83006  -1.90067
O    -0.13479  -1.50542  -2.11013
O     2.01589  -1.03070  -2.53944
C     2.07128  -2.15254  -3.43072
C     2.03104   1.21672  -0.75855
C     3.38516   0.87447  -0.96857
C     4.39252   1.81850  -0.76761
C     4.08426   3.12133  -0.36660
C     2.74625   3.47620  -0.16489
C     1.73315   2.53976  -0.35713
C     1.13532  -1.31814   0.99243
C     2.11640  -2.12837   0.29963
O     3.33216  -1.95177   0.38501
C    -0.16909  -1.74727   1.28033
C    -0.72314  -1.42739   2.64358
C    -0.72999  -3.00801   0.67115
H    -3.15416   0.39642  -3.96689
H    -4.13276  -0.61005  -2.86324
H    -2.64094  -1.27462  -3.58129
H    -1.62580   0.84371  -2.26175
H    -0.12191   1.92191   1.69834
H    -1.12591   3.19714   3.56117
H    -3.51264   2.82209   4.20085
H    -4.87981   1.16501   2.92778
H    -3.88841  -0.08896   1.04632
H     1.88020  -3.08641  -2.88211
H     1.33138  -2.04223  -4.23609
H     3.08634  -2.15559  -3.84357
H     3.65371  -0.13327  -1.26652
H     5.43347   1.52693  -0.92605
H     4.87874   3.85638  -0.21909
H     2.48670   4.49403   0.13546
H     0.69433   2.83582  -0.21729
H     1.55925  -0.51260   1.59923
H     1.72444  -2.96531  -0.31854
H    -0.40385  -2.23315   3.32937
H    -0.34480  -0.47862   3.04336
H    -1.82161  -1.41008   2.65379
H    -0.45265  -3.14010  -0.37969
H    -0.35750  -3.87591   1.24421
H    -1.82373  -3.00822   0.73856
