59
Generated by autodE on: 2022-06-30. E = -1947.736561 Ha
C   -10.53278  -5.51563   6.55147
N   -10.80069  -5.17986   5.16400
C   -11.46038  -4.06818   4.83508
O   -11.86432  -3.23917   5.64996
C   -11.66160  -3.81395   3.31971
C   -11.83922  -5.06436   2.54633
N   -11.91281  -6.01009   1.87854
C   -12.81447  -2.83048   2.98896
C   -12.36211  -2.05472   1.96860
N   -11.02104  -2.42714   1.67659
C   -10.28900  -2.20304   0.53959
O   -10.69981  -1.58004  -0.42867
O    -9.06340  -2.72032   0.62508
C    -8.21595  -2.52080  -0.51646
N   -10.46192  -3.15038   2.76005
C    -9.76527  -2.22023   3.66410
C   -12.98502  -0.99607   1.06370
C   -12.00740   0.21028   0.99289
C   -12.11063   1.23634  -0.09956
O   -11.22283   0.37077   1.91239
C   -13.33024  -1.75253  -0.25845
C   -13.70308  -1.01278  -1.51217
O   -13.36588  -2.96945  -0.23089
C   -14.33641  -0.37644   1.54550
C   -14.30948   0.46082   2.82373
C   -13.73302  -0.20316   4.07087
C   -14.38432  -1.50732   4.52765
C   -14.11066  -2.80950   3.74335
Cl  -15.56846  -3.21569   2.56485
C   -14.35859  -4.07358   4.61720
C   -15.31376  -3.96314   5.77001
O   -13.82234  -5.12976   4.34061
H   -11.47285  -5.60878   7.11672
H    -9.99712  -6.47129   6.58576
H    -9.91647  -4.74022   7.03161
H   -10.49796  -5.81853   4.43449
H    -8.05338  -1.44792  -0.69200
H    -8.66056  -2.97879  -1.41125
H    -7.26822  -3.01288  -0.27004
H    -8.99180  -1.71347   3.07476
H   -10.43411  -1.47263   4.11799
H    -9.26498  -2.79594   4.45209
H   -11.53734   2.12036   0.20759
H   -11.67642   0.83520  -1.02543
H   -13.15011   1.51946  -0.30902
H   -12.77931  -0.75139  -2.04944
H   -14.26134  -0.08825  -1.32696
H   -14.29027  -1.68944  -2.14695
H   -14.70052   0.26190   0.73006
H   -15.06701  -1.18337   1.63550
H   -13.75835   1.39832   2.64465
H   -15.35318   0.75685   3.02379
H   -13.84867   0.50538   4.90683
H   -12.64982  -0.35126   3.95798
H   -15.47002  -1.37630   4.63486
H   -13.98944  -1.70929   5.53302
H   -15.63431  -4.97211   6.05822
H   -14.77852  -3.50774   6.61893
H   -16.18271  -3.33289   5.54441
