35
Generated by autodE on: 2022-06-30. E = -1229.927555 Ha
C     1.90957  -1.53685  -2.60042
C     0.45243  -1.21673  -2.74910
O    -0.05246  -0.86844  -3.79577
C    -0.42875  -1.33586  -1.47537
Cl   -0.72696  -3.17128  -1.37339
C     0.22929  -0.84331  -0.28542
C     0.47504  -0.03545   0.58446
C     0.34284   1.17806   1.37993
C    -0.37010   0.84131   2.72634
C    -0.99949   1.97613   3.47613
O    -0.38170  -0.30392   3.13072
C     1.70070   1.81418   1.78740
C     2.86235   0.88135   1.93735
O     1.76962   3.00939   1.99195
C    -0.47799   2.16385   0.49245
C    -1.77958   1.59490  -0.11141
C    -1.71706   0.92114  -1.51171
C    -1.78315  -0.61971  -1.60161
H     2.35607  -1.71887  -3.58636
H     2.40464  -0.66650  -2.13738
H     2.06682  -2.39644  -1.93422
H    -1.94758   2.24506   2.98139
H    -1.21067   1.66149   4.50613
H    -0.36061   2.87023   3.46224
H     3.15727   0.51110   0.94157
H     3.70895   1.39879   2.40604
H     2.56403   0.00080   2.52821
H     0.18732   2.50614  -0.31520
H    -0.70284   3.04994   1.09945
H    -2.26506   0.91464   0.60892
H    -2.46231   2.45291  -0.20564
H    -0.83895   1.29165  -2.06631
H    -2.58962   1.28020  -2.07832
H    -2.21163  -0.91548  -2.56941
H    -2.44243  -1.01058  -0.81282
