24
Generated by autodE on: 2022-07-27. E = -717.727771 Ha
C    -1.46271  -2.87682   3.44005
N    -1.00944  -2.37735   2.15540
C    -0.55449  -1.11856   2.02363
O    -0.52007  -0.32676   2.96960
C    -0.06090  -0.78763   0.64076
C     0.44261  -1.84897  -0.16053
N     0.83266  -2.77166  -0.75545
N     0.00109   0.43761   0.10205
C    -0.57540   1.60322   0.81750
N     0.61078   0.55566  -1.04964
C     0.38583   1.67199  -1.82767
O    -0.55967   2.44460  -1.80418
O     1.37899   1.75546  -2.73007
C     1.26884   2.80812  -3.69317
H    -0.67719  -2.76245   4.20226
H    -2.35621  -2.33366   3.78686
H    -1.70965  -3.93973   3.33602
H    -1.06763  -2.98808   1.34623
H     0.08787   2.45871   0.66002
H    -1.56101   1.81349   0.38788
H    -0.64668   1.35128   1.87518
H     2.15185   2.72144  -4.33739
H     0.35252   2.69334  -4.29131
H     1.25793   3.79052  -3.19824
