40
Generated by autodE on: 2022-05-31. E = -3642.137567 Ha
C    -4.01821  -2.06957   1.76499
N    -3.17131  -1.02508   1.23180
C    -2.68190  -1.02058  -0.01612
O    -2.90937  -1.87584  -0.87971
C    -1.78380   0.14139  -0.34474
N    -1.53816   1.08775   0.47666
C    -0.71693   2.11367  -0.19066
C    -1.63163   3.31909  -0.48046
C     0.38973   2.58282   0.74824
O     0.54701   2.21212   1.89211
O     1.15701   3.49636   0.15411
C     2.18302   4.11228   0.95137
C    -0.22189   1.48605  -1.52978
C     1.20731   0.85932  -1.67810
O     0.94003  -0.10750  -2.71358
C    -0.01646  -0.87298  -1.98164
C     0.74219  -1.12343  -0.68119
Br    0.44904  -2.64974   0.35651
C     1.52349  -0.03964  -0.48035
C     2.53484   0.31017   0.53887
C     2.60765  -0.47391   1.81647
O     3.29817   1.24295   0.30889
C    -1.10426   0.22164  -1.68063
H    -4.25142  -2.78136   0.96427
H    -3.51339  -2.60865   2.58259
H    -4.95828  -1.65036   2.15522
H    -2.88763  -0.25490   1.83146
H    -2.45648   2.99985  -1.13392
H    -1.06165   4.11107  -0.98381
H    -2.05316   3.71681   0.45417
H     2.87747   3.35436   1.33417
H     2.70564   4.80456   0.28164
H     1.72841   4.66165   1.78815
H    -0.35550   2.19034  -2.35759
H     1.99970   1.55371  -1.96802
H    -0.36376  -1.75147  -2.53221
H     2.90871  -1.51334   1.61112
H     1.62154  -0.50538   2.30371
H     3.34400  -0.00901   2.48439
H    -1.81977   0.25292  -2.51251
