18
Generated by autodE on: 2022-05-31. E = -3033.822777 Ha
C     2.79444  -0.99849  -1.69712
C     2.03456  -0.33876  -0.57627
O     2.56306   0.45957   0.18997
C     0.61357  -0.69987  -0.45384
C    -0.37725  -0.11423   0.24963
Br   -0.36366   1.37209   1.36865
C    -1.68283  -0.83577  -0.15818
C    -1.96445  -0.42966  -1.62351
C    -1.00104  -1.02720  -2.32967
C    -0.14395  -1.77575  -1.28419
O    -1.16063  -2.15835  -0.33717
H     3.81249  -0.59198  -1.75209
H     2.27318  -0.84586  -2.65663
H     2.83912  -2.08722  -1.52756
H    -2.51134  -0.79706   0.55655
H    -2.75677   0.24598  -1.94259
H    -0.78530  -0.98182  -3.39640
H     0.44255  -2.63357  -1.62666
