26
Generated by autodE on: 2022-06-20. E = -689.456662 Ha
C     2.46764  -2.42597   0.15383
O     2.14152  -1.07189   0.49668
C     0.91725  -0.57329   0.22543
C     0.81297   0.72303  -0.18958
O     1.94259   1.41970  -0.42600
C     2.01967   2.81870  -0.12149
C    -0.51455   1.28919  -0.53805
O    -0.59132   2.38614  -1.08359
C    -1.74187   0.48969  -0.25194
C    -3.06493   1.12730  -0.54221
C    -1.63945  -0.78185   0.20621
C    -2.84253  -1.63494   0.46278
C    -0.30224  -1.36013   0.53127
O    -0.20577  -2.45785   1.07290
H     3.54925  -2.43703  -0.04058
H     1.93485  -2.74601  -0.75418
H     2.23423  -3.11179   0.97884
H     3.07348   3.01740   0.11901
H     1.39662   3.07189   0.74881
H     1.71740   3.42956  -0.98236
H    -3.60805   0.56252  -1.31839
H    -2.94102   2.16130  -0.88482
H    -3.70453   1.12213   0.35540
H    -3.48519  -1.17910   1.23480
H    -3.45875  -1.72348  -0.44659
H    -2.55433  -2.63837   0.79730
