43
Generated by autodE on: 2022-05-30. E = -1202.276305 Ha
C     4.26442   1.02564  -0.27651
O     3.04785   0.49228  -0.82508
C     2.20153  -0.07678   0.02769
O     2.42225  -0.20858   1.20906
C     0.89273  -0.55105  -0.66184
C     1.29040  -0.95218  -2.09835
C     1.77296  -2.35825  -2.30459
O     1.26503  -0.13119  -2.99543
N     0.42954  -1.68316   0.13357
C    -0.54137  -1.33682   0.88918
C    -1.11413  -2.25452   1.91833
C    -1.10573   0.06030   0.63359
C    -1.09087   0.90100   1.90502
F     0.13267   0.98501   2.46060
F    -1.90288   0.37618   2.84931
F    -1.51804   2.16273   1.70739
C    -2.56329   0.02307   0.03940
C    -2.71911  -1.19711  -0.88763
C    -1.78594  -0.84196  -2.07838
C    -1.27208   0.57435  -1.73172
C    -2.49957   1.15249  -1.00081
C    -0.21449   0.57456  -0.57722
C     0.40255   1.97484  -0.47065
H     4.03491   1.82319   0.44438
H     4.82469   1.42945  -1.12706
H     4.83865   0.23154   0.22068
H     0.96112  -3.07067  -2.09575
H     2.58165  -2.58502  -1.59193
H     2.12818  -2.47948  -3.33589
H    -0.76188  -1.94678   2.91668
H    -2.21222  -2.21301   1.93593
H    -0.77962  -3.28422   1.73653
H    -3.33728   0.09884   0.81246
H    -3.76848  -1.26302  -1.20931
H    -2.46759  -2.15446  -0.41465
H    -0.99130  -1.58582  -2.21299
H    -2.34148  -0.80534  -3.02653
H    -0.92105   1.13875  -2.60170
H    -2.34657   2.15011  -0.57412
H    -3.39517   1.17661  -1.63947
H     1.04582   2.14113  -1.34457
H    -0.36473   2.75744  -0.46130
H     1.01514   2.10204   0.43173
