20
Generated by autodE on: 2022-05-30. E = -552.814544 Ha
C     2.80135   2.50997   0.50042
C     1.79858   1.49016   0.32346
N     0.98553   0.67927   0.18105
C     0.12366  -0.36483   0.03719
C     0.72467  -1.67112   0.19946
C    -0.14494  -2.89825   0.06108
O     1.93597  -1.78390   0.44762
C    -1.25827  -0.05762  -0.25446
O    -2.16348  -0.87041  -0.40803
O    -1.47453   1.27975  -0.34811
C    -2.81407   1.68738  -0.63344
H     3.77669   2.01226   0.62340
H     2.58466   3.10808   1.39914
H     2.83949   3.16091  -0.38682
H     0.48233  -3.78695   0.21260
H    -0.96199  -2.88761   0.79780
H    -0.61616  -2.93791  -0.93224
H    -2.79665   2.78364  -0.66797
H    -3.14980   1.28835  -1.60248
H    -3.50542   1.34900   0.15292
