23
Generated by autodE on: 2022-05-30. E = -649.398823 Ha
C     0.74914   2.45455  -0.08485
C    -0.06105   1.27638   0.33020
C     0.15067  -0.05445   0.22904
C     1.27558  -0.79613  -0.38466
F     2.35797  -0.04101  -0.65418
F     0.91351  -1.38377  -1.55595
F     1.70221  -1.80825   0.41012
C    -1.12367  -0.77408   0.65773
C    -2.17554  -0.49802  -0.46268
C    -2.41461   1.03369  -0.33262
C    -1.48232   1.43323   0.85821
C    -1.61122   0.18870   1.75782
H     0.91629   3.12196   0.77778
H     0.18375   3.04620  -0.82599
H     1.71895   2.18494  -0.51817
H    -1.00187  -1.83148   0.92390
H    -1.79700  -0.79450  -1.45056
H    -3.09712  -1.06676  -0.26762
H    -2.16346   1.58930  -1.24779
H    -3.46165   1.25861  -0.08093
H    -1.70441   2.41322   1.30014
H    -0.94248   0.21732   2.63075
H    -2.64421  -0.00875   2.08354
