29
Generated by autodE on: 2022-06-16. E = -409.351973 Ha
C    -0.15718  -0.16234   2.02903
N    -0.11027   0.28652   0.65761
C     1.20238   0.28257  -0.02071
C     2.12733   1.35222   0.56652
C     1.92194  -1.08115   0.02736
C     0.78032   0.62772  -1.45810
C    -0.51612  -0.15798  -1.65389
C    -1.18567  -0.19515  -0.25357
C    -2.37290   0.77535  -0.17771
C    -1.68203  -1.61646   0.06104
H     0.04299  -1.24357   2.17930
H     0.57799   0.39092   2.63428
H    -1.14791   0.04761   2.46297
H     2.43442   1.10618   1.59551
H     3.04416   1.43758  -0.03818
H     1.62855   2.33358   0.58106
H     2.88346  -1.02656  -0.50738
H     1.32236  -1.87850  -0.43590
H     2.13718  -1.37964   1.06517
H     1.55795   0.37453  -2.19430
H     0.59183   1.71121  -1.52640
H    -0.29154  -1.18226  -1.98731
H    -1.17828   0.28962  -2.40974
H    -2.75363   0.84701   0.85430
H    -3.20319   0.43966  -0.82036
H    -2.07068   1.78410  -0.49979
H    -2.21135  -1.66360   1.02533
H    -0.85123  -2.33728   0.08843
H    -2.38753  -1.94421  -0.71901
