23
Generated by autodE on: 2022-07-27. E = -330.610189 Ha
C     2.38479   0.83698   0.19945
C     1.19073   0.02585  -0.21508
C     1.33497  -1.02514  -1.26566
N    -0.06170   0.42632   0.13611
C    -0.22917   1.81985   0.58499
C    -1.13921  -0.40479   0.11545
C    -2.54297   0.12482   0.03399
C    -0.93135  -1.85470   0.40091
H     2.51227   1.77922  -0.37568
H     2.37173   1.12498   1.26483
H     3.30191   0.24977   0.04058
H     1.35111  -2.08180  -0.92446
H     0.48173  -0.96373  -1.97120
H     2.26915  -0.86632  -1.83021
H     0.36685   1.98711   1.49224
H     0.10902   2.52213  -0.18977
H    -1.27596   2.01826   0.82697
H    -3.01983   0.29352   1.02358
H    -2.62006   1.06766  -0.52898
H    -3.18378  -0.60574  -0.48796
H    -1.83111  -2.26999   0.88714
H    -0.06987  -1.97986   1.08620
H    -0.71358  -2.51408  -0.46570
