23
Generated by autodE on: 2022-06-16. E = -330.610183 Ha
C    -1.50913  -0.23661  -1.45010
C    -1.12199   0.42107  -0.16693
C    -2.12458   1.25762   0.57496
N     0.02193   0.01864   0.45084
C     0.06783   0.10586   1.92117
C     1.11568  -0.42244  -0.22849
C     1.39578   0.14432  -1.58019
C     2.15605  -1.28626   0.42657
H    -2.60802  -0.26213  -1.54221
H    -1.12993  -1.27854  -1.46201
H    -1.12673   0.22000  -2.38735
H    -2.84212   1.69166  -0.13786
H    -2.72525   0.68912   1.31726
H    -1.67162   2.10057   1.12443
H    -0.75403  -0.46800   2.37151
H    -0.02879   1.15571   2.22962
H     1.02321  -0.26983   2.29498
H     2.48499   0.15874  -1.75846
H     0.94478  -0.37790  -2.45034
H     1.01487   1.18335  -1.63462
H     2.62183  -1.94076  -0.32929
H     2.99022  -0.71636   0.88970
H     1.74447  -1.94869   1.20356
