29
Generated by autodE on: 2022-06-16. E = -409.237774 Ha. Imaginary frequency = -138.7 cm-1
C    -0.34588   1.36146   1.46098
N    -0.08850   0.11065   0.72679
C     1.21711  -0.10710   0.38981
C     2.31066   0.62947   1.11863
C     1.63871  -1.34408  -0.34471
C     0.76876   1.10213  -1.84508
C    -0.47787   0.63476  -2.11327
C    -1.18217  -0.50781   0.17824
C    -2.53933   0.13220   0.28886
C    -1.26915  -2.00599   0.02342
H     0.39931   1.49241   2.25025
H    -0.30301   2.22733   0.78136
H    -1.32714   1.32539   1.93912
H     2.39611   0.35050   2.18946
H     3.27444   0.37955   0.65284
H     2.21208   1.72543   1.08049
H     2.63922  -1.18243  -0.77285
H     0.95594  -1.59573  -1.16650
H     1.71570  -2.23868   0.30603
H     1.66603   0.59526  -2.20642
H     0.92069   2.09138  -1.40276
H    -0.63769  -0.28553  -2.68248
H    -1.36851   1.23207  -1.90827
H    -3.03845  -0.05745   1.26389
H    -3.19307  -0.31665  -0.47720
H    -2.54649   1.21727   0.11577
H    -2.03138  -2.40152   0.72652
H    -0.34039  -2.53811   0.24299
H    -1.60358  -2.30735  -0.98551
