29
Generated by autodE on: 2022-12-30. E = -724.990847 Ha
C     3.92878   0.26491  -0.29828
N     2.51964   0.52902  -0.09467
C     1.63405  -0.47088   0.09460
O     1.98418  -1.66494   0.12845
C     0.21934  -0.09253   0.24990
C    -0.38392   1.10583   0.07517
O     0.25472   2.23609  -0.23188
C    -0.37624   3.50375   0.01311
C    -1.88733   0.96985   0.16504
C    -2.58575   1.13201  -1.18218
O    -2.06051  -0.36048   0.67371
C    -0.85368  -1.12259   0.55674
C    -0.64735  -1.91399   1.84616
C    -0.99748  -2.06522  -0.59028
N    -1.13275  -2.79014  -1.48642
H     4.45536   1.22018  -0.41365
H     4.10131  -0.34405  -1.20096
H     4.36320  -0.27589   0.55756
H     2.16932   1.48053  -0.15266
H     0.36977   4.26326  -0.24778
H    -0.64566   3.59805   1.07527
H    -1.26645   3.63324  -0.61741
H    -2.31640   1.66634   0.90404
H    -3.65492   0.90111  -1.06538
H    -2.15091   0.44485  -1.92375
H    -2.49472   2.16096  -1.55841
H     0.24883  -2.54215   1.76999
H    -0.52751  -1.20272   2.67549
H    -1.52469  -2.54997   2.03497
