15
Generated by autodE on: 2022-12-30. E = -400.058039 Ha
C    -2.36782  -0.82572  -1.20932
N    -2.29234   0.22374  -0.21371
C    -1.18949   0.68077   0.42032
O    -1.24392   1.58591   1.26828
C     0.07434   0.06671   0.06981
C     1.17701  -0.39346  -0.16178
O     2.31784  -0.91240  -0.44084
C     3.46982  -0.39437   0.28183
H    -1.36586  -1.22857  -1.40099
H    -3.01238  -1.65048  -0.86602
H    -2.77412  -0.44237  -2.15875
H    -3.15645   0.68375   0.06342
H     3.58626   0.67677   0.06537
H     3.33015  -0.55922   1.35937
H     4.33224  -0.95984  -0.08763
