14
Generated by autodE on: 2023-01-01. E = -324.766034 Ha
C    -1.17476   1.16794  -1.54353
C    -1.02213   1.52267  -0.12215
O    -0.34986   0.83516   0.73157
C     0.37218  -0.30195   0.68488
C     0.97801  -0.69521   1.99697
C     0.55515  -1.04368  -0.48379
N     0.77134  -1.74135  -1.40698
H    -0.19589   1.11955  -2.05479
H    -1.64438   0.17425  -1.66193
H    -1.80005   1.91875  -2.04392
H    -1.47624   2.40826   0.32755
H     1.51797  -1.64577   1.88463
H     0.21023  -0.83450   2.77860
H     1.69726   0.05845   2.36528
