14
Generated by autodE on: 2022-12-30. E = -324.772646 Ha
C    -2.96050   0.30256   0.01655
C    -1.58050   0.64900  -0.37345
O    -0.61449  -0.05478   0.09946
C     0.71096   0.09286  -0.13614
C     1.17407   1.17215  -1.04119
C     1.51263  -0.83025   0.52887
N     2.21841  -1.59631   1.07751
H    -3.56619   0.06047  -0.87564
H    -2.96920  -0.55584   0.70261
H    -3.45421   1.16295   0.50334
H    -1.34685   1.47684  -1.04839
H     0.87333   2.17309  -0.67252
H     2.26871   1.14973  -1.12438
H     0.74473   1.06584  -2.05737
