15
Generated by autodE on: 2022-05-29. E = -583.363160 Ha
C    -2.63856  -1.40950  -0.05001
C    -2.18643  -0.13192  -0.68570
O    -2.89103   0.59110  -1.37372
C    -0.77982   0.28269  -0.45883
C    -0.29309   1.48268  -1.03382
N     0.05478   2.47613  -1.53183
O    -0.05319  -0.50028   0.28227
C     1.18570  -0.48158   0.71549
C     2.09968   0.55754   0.42952
N     2.89024   1.38927   0.22654
C     1.56687  -1.58836   1.50949
N     1.90665  -2.49101   2.16271
H    -2.50075  -1.36135   1.04173
H    -3.69547  -1.57549  -0.29137
H    -2.02935  -2.25049  -0.41819
