41
Generated by autodE on: 2022-07-27. E = -1032.399893 Ha
C    -1.54926  -2.97948  -1.78112
N    -1.31266  -1.99302  -0.74626
C    -2.06802  -0.86971  -0.65721
O    -3.15959  -0.80525  -1.27403
C    -1.63456   0.20908   0.22100
O    -0.35866   0.40158   0.64509
C     0.84989   0.16196   0.24715
C     1.13673  -0.44284  -1.06048
C     0.49307   0.05253  -2.21081
C     0.74408  -0.52248  -3.45313
C     1.61852  -1.61180  -3.56049
C     2.25603  -2.11202  -2.42215
C     2.02704  -1.52573  -1.17598
C     1.87961   0.59892   1.17974
C     3.23909   0.64613   0.79902
C     4.20838   1.07863   1.70218
C     3.84411   1.47844   2.99194
C     2.49631   1.45030   3.37529
C     1.52179   1.01435   2.48445
C    -2.54839   1.08745   0.95870
O    -2.14875   1.83119   1.88074
N    -3.85071   1.06020   0.58797
C    -4.83595   1.89885   1.23006
H    -0.75629  -3.73573  -1.73123
H    -2.52185  -3.47881  -1.65073
H    -1.53384  -2.51944  -2.78331
H    -0.42997  -2.04412  -0.25586
H    -0.20648   0.88628  -2.12670
H     0.24943  -0.12706  -4.34270
H     1.79904  -2.07206  -4.53446
H     2.93378  -2.96448  -2.50219
H     2.51277  -1.92585  -0.28472
H     3.53456   0.36421  -0.21118
H     5.25521   1.11236   1.39295
H     4.60700   1.81623   3.69690
H     2.20690   1.76694   4.37976
H     0.47259   0.99849   2.77989
H    -4.08376   0.47369  -0.21308
H    -5.82105   1.68658   0.79523
H    -4.88627   1.70998   2.31506
H    -4.61936   2.97252   1.09289
