41
Generated by autodE on: 2022-06-13. E = -1032.407710 Ha
C     3.49067  -3.17138  -1.02339
N     2.42739  -2.24557  -0.69843
C     2.69224  -0.94212  -0.38946
O     3.85366  -0.47830  -0.54430
C     1.59206  -0.13773   0.06530
O     0.42022  -0.84234   0.32444
C    -0.76966  -0.33753   0.15256
C    -1.02219   0.72301  -0.82623
C    -1.91659   1.77150  -0.55091
C    -2.18483   2.73548  -1.52337
C    -1.57204   2.65544  -2.77670
C    -0.68509   1.60744  -3.05871
C    -0.39862   0.65214  -2.08828
C    -1.81701  -1.00159   0.90228
C    -1.47695  -1.76288   2.04516
C    -2.46514  -2.42821   2.76212
C    -3.80344  -2.34565   2.35622
C    -4.15129  -1.59612   1.22609
C    -3.17051  -0.92591   0.50110
C     1.64321   1.22089   0.55579
O     0.68809   1.73522   1.18425
N     2.79229   1.91005   0.30881
C     3.06579   3.16027   0.98133
H     3.04822  -4.11871  -1.35760
H     4.15145  -3.38000  -0.16272
H     4.11826  -2.77448  -1.83490
H     1.51843  -2.62050  -0.45255
H    -2.37939   1.84208   0.43412
H    -2.87277   3.55339  -1.29938
H    -1.78427   3.40924  -3.53824
H    -0.21608   1.53617  -4.04232
H     0.29036  -0.16441  -2.30801
H    -0.43731  -1.80170   2.37107
H    -2.19693  -3.00607   3.64895
H    -4.57809  -2.86576   2.92420
H    -5.19334  -1.54110   0.90498
H    -3.44451  -0.36723  -0.39346
H     3.56175   1.33436  -0.04135
H     2.20911   3.84300   0.88601
H     3.27219   3.03357   2.06035
H     3.94148   3.63465   0.51834
