11
Generated by autodE on: 2022-06-17. E = -376.764213 Ha
C     2.51074   0.93644   0.11595
N     1.70198   0.11029   0.04728
N     0.90785  -0.88382  -0.03035
C    -0.43570  -0.59038  -0.04521
O    -1.29208  -1.45731  -0.11066
O    -0.71623   0.72752   0.01977
C    -2.10178   1.08525   0.01250
H     3.27060   1.70514   0.18090
H    -2.13185   2.17989   0.07339
H    -2.62194   0.64586   0.87640
H    -2.58666   0.74698  -0.91518
