46
Generated by autodE on: 2022-06-05. E = -1631.441907 Ha
C    -1.67765   4.50091   0.76902
N    -1.09229   3.18535   0.93836
C    -1.77059   2.07814   0.57510
O    -2.94871   2.05413   0.20039
N    -1.09679   0.87825   0.71740
O     0.20446   0.88782   1.24608
C     1.01771   0.04629   0.43820
C     2.12424  -0.54596   1.33259
O     2.60479  -1.64000   1.16005
O     2.48867   0.31874   2.26156
C     3.54441  -0.09368   3.15197
C     1.75815   0.89707  -0.62656
O     2.87130   0.62745  -1.01684
O     1.03838   1.93503  -0.99318
C     1.57248   2.78622  -2.02308
C     0.03730  -1.03419  -0.12838
C     0.43882  -1.54543  -1.52680
F    -0.49963  -2.34221  -2.05534
F     1.57359  -2.25640  -1.45375
F     0.65728  -0.56570  -2.42192
C    -0.21014  -2.32465   0.78916
C    -0.35595  -1.88306   2.23521
C    -1.56395  -1.31307   2.30834
C    -2.13858  -1.41131   0.90726
O    -1.55670  -2.62176   0.42058
C    -1.38740  -0.34649   0.01214
C    -2.07443  -0.03622  -1.35664
C    -3.25069  -0.86660  -1.76209
O    -1.62370   0.85188  -2.04722
H    -2.72004   4.49511   1.11483
H    -1.11304   5.22486   1.37076
H    -1.66592   4.83299  -0.28338
H    -0.08391   3.10198   1.02251
H     3.23937  -0.99420   3.70295
H     4.45981  -0.29819   2.57972
H     3.69807   0.74464   3.83975
H     2.53145   3.21413  -1.70069
H     1.71075   2.20692  -2.94657
H     0.82687   3.57471  -2.16995
H     0.46484  -3.15565   0.57329
H     0.40834  -1.97555   3.00495
H    -2.03548  -0.80863   3.15029
H    -3.22624  -1.40548   0.80642
H    -3.47685  -0.68511  -2.82002
H    -4.11412  -0.56049  -1.14817
H    -3.07555  -1.93489  -1.57881
