21
Generated by autodE on: 2022-06-05. E = -797.432634 Ha
C     2.74676  -1.71038  -0.80887
C     1.98139  -0.46705  -0.45928
O     2.41257   0.65892  -0.67123
C     0.65252  -0.66645   0.16296
C    -0.36588   0.20171   0.29486
C    -0.48228   1.63020  -0.13168
F     0.30760   2.44458   0.58885
F    -0.16834   1.80978  -1.42669
F    -1.74741   2.06839   0.02608
C    -1.53367  -0.62472   0.88596
C    -1.99253  -1.59672  -0.22613
C    -0.98851  -2.46786  -0.35188
C     0.06586  -2.00990   0.68090
O    -0.78525  -1.51372   1.72673
H     3.00530  -2.25454   0.11509
H     2.11869  -2.38793  -1.41095
H     3.66221  -1.45221  -1.35607
H    -2.30291  -0.07084   1.43216
H    -2.92040  -1.50467  -0.78871
H    -0.86142  -3.29719  -1.04628
H     0.78206  -2.75306   1.04320
