25
Generated by autodE on: 2022-07-27. E = -833.907255 Ha
C    -3.69612   2.16228  -1.14399
N    -2.54579   1.41857  -0.66994
C    -2.65469   0.57134   0.37069
O    -3.70392   0.37106   0.98899
N    -1.51929  -0.15109   0.81666
O    -0.49476   0.16444   0.04817
C     0.70802  -0.28891   0.11647
C     1.13401  -1.21919   1.20044
O     0.59864  -1.26217   2.28726
O     2.15494  -1.97608   0.82235
C     2.68273  -2.88292   1.80708
C     1.62428   0.27908  -0.91082
O     2.82526   0.10871  -0.90204
O     0.96646   1.00050  -1.81554
C     1.76182   1.63140  -2.83390
H    -4.11405   2.80103  -0.34977
H    -3.38291   2.79904  -1.98014
H    -4.49591   1.48905  -1.49243
H    -1.65417   1.52835  -1.14086
H     3.51279  -3.40323   1.31727
H     3.04114  -2.32321   2.68261
H     1.90797  -3.59831   2.11733
H     2.30523   0.87303  -3.41520
H     2.47734   2.33080  -2.37863
H     1.05375   2.16941  -3.47353
