54
Generated by autodE on: 2022-06-07. E = -1468.477922 Ha
C    -3.38483   1.80302  -2.11963
N    -2.68740   1.14383  -1.03489
C    -1.84001   0.13009  -1.24941
O    -1.66171  -0.38573  -2.35664
C    -1.13803  -0.40702   0.03201
C    -2.03654  -1.53248   0.53602
C    -2.16402  -2.70184  -0.23315
C    -2.98236  -3.74851   0.19245
C    -3.69351  -3.64294   1.39304
C    -3.58146  -2.47977   2.15694
C    -2.76218  -1.42860   1.72991
N    -0.99082   0.67990   1.00652
C     0.25155   1.40262   0.66892
C     0.79864   2.10169   1.91544
C    -0.06567   2.49193  -0.38132
O     0.40857   2.54654  -1.49765
O    -0.91906   3.40034   0.08972
C    -1.27313   4.48120  -0.78695
C     1.21047   0.35553   0.02957
C     2.18973  -0.31385   1.03645
O     1.33008  -1.23380   1.72562
C     0.90629  -1.96286   0.57309
C     2.25476  -2.30936  -0.06901
C     2.49814  -3.41682  -0.91413
N     2.64325  -4.34931  -1.59584
C     3.05612  -1.26009   0.21828
C     4.40773  -1.00224  -0.30646
O     5.07651  -1.81658  -0.91387
O     4.80059   0.24467  -0.03530
C     6.10002   0.63180  -0.50889
C     0.30242  -0.85568  -0.34441
H    -2.67569   2.17444  -2.87681
H    -3.95253   2.64991  -1.71630
H    -4.08289   1.11277  -2.61896
H    -2.66770   1.55529  -0.10485
H    -1.61743  -2.79185  -1.17299
H    -3.06355  -4.65206  -0.41629
H    -4.33276  -4.46300   1.72822
H    -4.13615  -2.38175   3.09307
H    -2.70237  -0.52494   2.33684
H    -0.85550   0.27028   1.93036
H     1.73270   2.63371   1.68434
H     0.06639   2.82600   2.29394
H     0.99745   1.36597   2.70710
H    -0.38682   5.09087  -1.01435
H    -1.70162   4.09622  -1.72167
H    -2.01559   5.07754  -0.24466
H     1.75157   0.78385  -0.81857
H     2.72079   0.34457   1.72669
H     0.26035  -2.80370   0.83482
H     6.14926   0.54197  -1.60352
H     6.87475  -0.00170  -0.05364
H     6.23252   1.67600  -0.20478
H     0.35070  -1.14575  -1.39811
