34
Generated by autodE on: 2022-07-27. E = -840.595589 Ha
C    -2.12500   0.49263  -2.93327
N    -1.65231   0.01173  -1.65135
C    -0.34759   0.06531  -1.31978
O     0.50121   0.54647  -2.08390
C     0.02901  -0.54480  -0.01365
N     1.07276  -0.04221   0.66549
C     1.68284   1.16445   0.67033
C     3.05509   1.23978   1.26525
C     0.97636   2.34202   0.23649
O    -0.21746   2.42153  -0.05379
O     1.78000   3.43802   0.24243
C     1.15493   4.68191  -0.07487
C    -0.55484  -1.79123   0.48005
C    -1.10287  -2.75668  -0.39794
C    -1.61224  -3.95772   0.08988
C    -1.58488  -4.23950   1.46158
C    -1.04641  -3.29777   2.34293
C    -0.54761  -2.08596   1.86337
H    -1.66559  -0.06442  -3.76589
H    -1.88421   1.55933  -3.06706
H    -3.21335   0.36546  -2.98150
H    -2.31449  -0.38516  -0.99414
H     1.50496  -0.70968   1.31315
H     3.28066   0.31810   1.82529
H     3.15688   2.09809   1.94558
H     3.83398   1.34633   0.48888
H     1.94772   5.43931  -0.04006
H     0.37036   4.92839   0.65683
H     0.70846   4.65210  -1.08032
H    -1.10641  -2.57326  -1.47286
H    -2.02289  -4.68919  -0.61026
H    -1.98481  -5.18334   1.83869
H    -1.03111  -3.49751   3.41705
H    -0.17665  -1.34454   2.57436
