20
Generated by autodE on: 2022-06-07. E = -627.786338 Ha
C     3.58757  -0.08885  -1.16260
O     2.16654  -0.29104  -1.12005
C     1.55396  -0.00775   0.03189
O     2.12191   0.39796   1.02885
C     0.10444  -0.24299  -0.05849
C    -0.83655   0.06406   0.85850
C    -0.69133   0.66002   2.12893
N    -0.62563   1.14602   3.18557
C    -2.18876  -0.30471   0.17137
C    -2.38882   0.71858  -0.96633
C    -1.45264   0.41539  -1.86922
C    -0.69260  -0.78621  -1.26656
O    -1.75742  -1.45292  -0.56622
H     3.82872   0.96540  -0.96413
H     4.08543  -0.72505  -0.41677
H     3.90149  -0.36856  -2.17439
H    -3.02935  -0.51355   0.83940
H    -3.11580   1.52928  -0.95278
H    -1.19471   0.90838  -2.80539
H    -0.15314  -1.45046  -1.94719
