54
Generated by autodE on: 2022-06-07. E = -1468.381278 Ha. Imaginary frequency = -243.1 cm-1
C    -4.49622   1.76229  -1.49110
N    -3.73220   1.06543  -0.47450
C    -2.69636   0.26914  -0.81298
O    -2.50719  -0.11224  -1.97212
C    -1.92952  -0.26738   0.37802
C    -2.29158  -1.63933   0.79251
C    -2.76595  -2.56128  -0.16718
C    -3.05044  -3.88134   0.18006
C    -2.87736  -4.32540   1.49418
C    -2.41668  -3.42378   2.45847
C    -2.12587  -2.10396   2.11542
N    -1.45673   0.57034   1.33357
C    -0.70581   1.69851   1.27255
C    -0.07084   2.13659   2.55929
C    -0.72229   2.60195   0.13206
O    -1.29780   2.44264  -0.93765
O     0.04002   3.69534   0.36932
C     0.18247   4.61544  -0.71555
C     1.00943   0.50489  -0.14704
C     1.86539  -0.07809   0.99042
O     0.97561  -1.07918   1.51651
C     0.73174  -1.73845   0.26801
C     2.20119  -2.04069  -0.14489
C     2.62385  -3.13721  -0.92456
N     2.92106  -4.06630  -1.56211
C     2.91177  -0.98677   0.31599
C     4.33438  -0.69506   0.08897
O     5.12910  -1.47209  -0.40755
O     4.64464   0.54207   0.48991
C     6.00367   0.96248   0.29817
C     0.26567  -0.55549  -0.60265
H    -4.89428   1.05008  -2.22751
H    -3.87536   2.50021  -2.02659
H    -5.33560   2.28307  -1.01374
H    -3.74615   1.44187   0.46796
H    -2.89039  -2.24108  -1.20037
H    -3.40868  -4.56996  -0.58889
H    -3.09866  -5.36011   1.76468
H    -2.28007  -3.74791   3.49275
H    -1.77009  -1.44776   2.91207
H    -1.29286   0.09790   2.22071
H    -0.00762   1.29279   3.26213
H    -0.63760   2.94930   3.04524
H     0.94573   2.51150   2.38034
H     0.83430   5.41736  -0.34858
H    -0.79351   5.02915  -1.00982
H     0.64283   4.12502  -1.58630
H     1.28607   1.40614  -0.68853
H     2.23710   0.59843   1.76444
H     0.07806  -2.60799   0.36862
H     6.26641   0.93020  -0.76904
H     6.68758   0.31268   0.86304
H     6.05718   1.99058   0.67337
H    -0.21281  -0.67005  -1.57171
