16
Generated by autodE on: 2022-06-02. E = -546.545720 Ha
C     3.74308   0.21133  -0.32204
O     2.48820   0.09400   0.36614
C     1.38885   0.09894  -0.38907
O     1.38280   0.19416  -1.60827
C     0.16552  -0.02289   0.39909
C     0.15064  -0.13632   1.80154
N     0.12556  -0.23134   2.96463
N    -0.97950  -0.02190  -0.32332
C    -2.23707  -0.11486   0.05744
C    -3.27478  -0.08972  -0.89639
N    -4.15525  -0.07165  -1.66135
H     3.79091   1.16183  -0.87264
H     3.87637  -0.62616  -1.02184
H     4.51502   0.18336   0.45522
H    -0.78341   0.07002  -1.33281
H    -2.47568  -0.21053   1.11887
