26
Generated by autodE on: 2022-06-02. E = -875.881591 Ha
F     0.11236   2.02246   1.05192
C    -0.87586   1.81143   0.15840
F    -0.58224   2.58101  -0.91785
F    -2.00294   2.32151   0.69701
C    -1.06104   0.37958  -0.18445
C    -0.16865  -0.62484  -0.29627
C     1.28733  -0.67494  -0.22663
C     2.08817   0.41447  -0.62680
C     3.47668   0.34263  -0.53272
C     4.09281  -0.81369  -0.03951
C     3.30997  -1.90541   0.34822
C     1.91968  -1.84265   0.24598
C    -1.06979  -1.89302  -0.42988
C    -1.74823  -2.11140   0.93797
C    -2.62217  -1.10651   1.04763
C    -2.45473  -0.29447  -0.25653
O    -2.15962  -1.34619  -1.18721
H     1.62041   1.30998  -1.03695
H     4.08418   1.19230  -0.85275
H     5.18156  -0.86587   0.03351
H     3.78424  -2.81287   0.72875
H     1.31736  -2.70019   0.55301
H    -0.61484  -2.75895  -0.92066
H    -1.48497  -2.89345   1.64896
H    -3.27758  -0.83362   1.87381
H    -3.29244   0.33152  -0.58006
