41
Generated by autodE on: 2022-06-03. E = -3718.097496 Ha
C     3.22637   3.83849   0.79531
O     2.18683   2.84962   0.89822
C     2.11452   1.96320  -0.08403
O     2.86559   1.91847  -1.03570
C     0.97253   1.00135   0.09410
N    -0.02832   1.27246   0.83542
C    -0.96705   0.15116   0.87301
C    -0.67298  -0.39942   2.31631
C    -1.39443   0.25221   3.45508
O     0.16621  -1.25985   2.46187
C    -2.41036   0.58124   0.70743
C    -2.73991   1.86852   0.27154
C    -4.07810   2.22266   0.07143
C    -5.09408   1.29192   0.30021
C    -4.76786   0.00075   0.73101
C    -3.43366  -0.35292   0.93286
C    -0.49996  -0.85231  -0.26212
C    -0.56412  -2.25528   0.11812
N    -0.71947  -3.38596   0.32888
C    -1.26722  -0.66542  -1.65414
C    -0.72987  -1.73665  -2.58864
C     0.49412  -1.32338  -2.93759
C     0.68658   0.00124  -2.22518
O    -0.64536   0.51894  -2.14982
C     0.90782  -0.28361  -0.69299
Br    2.46175  -1.41525  -0.33687
H     3.09387   4.43386  -0.11922
H     3.12599   4.47182   1.68348
H     4.21209   3.35226   0.77909
H    -1.50535   1.33254   3.28634
H    -2.40963  -0.16935   3.52583
H    -0.85599   0.05203   4.39038
H    -1.94881   2.59475   0.08491
H    -4.32437   3.23135  -0.26808
H    -6.13887   1.56915   0.14235
H    -5.55586  -0.73422   0.90967
H    -3.18561  -1.36583   1.26044
H    -2.34931  -0.55631  -1.55881
H    -1.23467  -2.67236  -2.82380
H     1.24685  -1.82941  -3.53971
H     1.38973   0.72760  -2.64001
