27
Generated by autodE on: 2022-06-03. E = -744.613789 Ha
C     4.54338  -0.43867   1.45505
O     3.27004   0.14105   1.10745
C     2.96287   0.16655  -0.18532
O     3.65752  -0.22829  -1.09896
C     1.67175   0.81516  -0.40738
N     0.54902   0.43818  -0.59466
C    -0.69470   0.12130  -0.79742
C    -1.05515  -0.18247  -2.20598
C     0.03864  -0.03838  -3.23609
O    -2.18749  -0.53433  -2.51941
C    -1.59533   0.05066   0.37249
C    -2.99773   0.03027   0.23754
C    -3.81496  -0.01597   1.36894
C    -3.25896  -0.04240   2.65075
C    -1.86739  -0.02158   2.79512
C    -1.04416   0.02249   1.67147
H     5.35717   0.11465   0.96583
H     4.57596  -1.49472   1.15264
H     4.62102  -0.35088   2.54419
H    -0.35381  -0.33408  -4.21680
H     0.91331  -0.65568  -2.98044
H     0.38503   1.00762  -3.27827
H    -3.44254   0.05283  -0.75393
H    -4.90026  -0.02774   1.24295
H    -3.90389  -0.08000   3.53164
H    -1.41789  -0.04548   3.79059
H     0.03967   0.02661   1.80413
