14
Generated by autodE on: 2022-06-03. E = -2973.384102 Ha
N     2.79994  -1.52509  -1.08469
C     1.78738  -1.30021  -0.55245
C     0.56588  -1.05159   0.09984
C    -0.11138   0.10416   0.25104
Br    0.30488   1.80844  -0.36133
C    -1.43571  -0.27767   0.95859
C    -2.26366  -1.07206  -0.07530
C    -1.60994  -2.22804  -0.21784
C    -0.39260  -2.11883   0.72372
O    -0.94737  -1.33665   1.79138
H    -1.93358   0.51529   1.52532
H    -3.14691  -0.69449  -0.58817
H    -1.81159  -3.06892  -0.87978
H     0.08174  -3.04040   1.07343
