41
Generated by autodE on: 2022-06-03. E = -3718.004345 Ha. Imaginary frequency = -234.6 cm-1
C     3.91998   3.16052   0.28545
O     2.83588   2.27428   0.63186
C     1.76447   2.31552  -0.14208
O     1.59470   3.02550  -1.11150
C     0.78506   1.29304   0.24091
N    -0.20523   1.19437   0.91213
C    -1.18821   0.54400   1.47695
C    -0.77040  -0.18002   2.72607
C    -1.79906  -0.86423   3.57609
O     0.41834  -0.20885   3.01784
C    -2.54402   0.72941   0.93351
C    -2.84251   1.90401   0.21401
C    -4.09140   2.07628  -0.37952
C    -5.06712   1.08000  -0.26957
C    -4.77694  -0.09398   0.43206
C    -3.52802  -0.27378   1.02787
C    -0.21588  -1.39880  -0.40569
C    -0.28107  -2.39874   0.57542
N    -0.36661  -3.23857   1.38371
C    -1.27895  -1.16807  -1.52046
C    -0.80451  -1.99315  -2.73216
C     0.28216  -1.35754  -3.18285
C     0.45112  -0.14705  -2.24461
O    -0.91283   0.15771  -1.93659
C     0.88759  -0.70312  -0.85817
Br    2.69085  -1.15617  -0.50604
H     4.27008   2.94447  -0.73365
H     3.59008   4.20621   0.35415
H     4.71109   2.95869   1.01533
H    -2.73754  -0.29898   3.64437
H    -2.01955  -1.85172   3.13655
H    -1.37104  -1.02448   4.57429
H    -2.08741   2.68767   0.12685
H    -4.30516   2.99616  -0.92845
H    -6.04682   1.21595  -0.73296
H    -5.52480  -0.88647   0.50809
H    -3.31019  -1.21626   1.52601
H    -2.32777  -1.23658  -1.21943
H    -1.25427  -2.92742  -3.06600
H     0.96514  -1.62243  -3.98862
H     1.00203   0.72372  -2.61310
