11
Generated by autodE on: 2022-05-29. E = -376.804756 Ha
C    -2.33548   0.51222   0.32558
O    -0.90483   0.47538   0.25957
C    -0.35572  -0.62419  -0.29185
O    -1.00622  -1.56141  -0.72455
C     1.09440  -0.57613  -0.31690
N     1.73385   0.45788   0.16566
N     2.27800   1.35678   0.58545
H    -2.71880  -0.32219   0.93129
H    -2.77299   0.46149  -0.68241
H    -2.59107   1.46782   0.79850
H     1.69489  -1.38586  -0.72990
