38
Generated by autodE on: 2022-05-29. E = -1194.965794 Ha. Imaginary frequency = -402.6 cm-1
C    -0.28643   3.54727   1.63173
N    -0.80619   2.48205   0.79750
C    -0.22403   1.26527   0.77262
O     0.71661   0.98597   1.52821
C    -0.76773   0.29958  -0.23559
C    -2.09205   0.57057  -0.96562
C    -3.22012   0.27784   0.07227
C    -3.15234  -1.26873   0.23601
C    -1.98921  -1.66481  -0.72266
C    -2.21452  -0.66580  -1.87079
C    -0.70563  -1.10955  -0.10642
C    -0.03451  -1.87231   0.99678
F    -0.22533  -3.20166   0.83481
F    -0.53409  -1.57465   2.22200
F     1.29636  -1.68977   1.06513
N     0.75568  -1.68275  -1.60618
N     1.06936  -0.63794  -1.99171
C     0.81422   0.67375  -1.78535
C     1.88296   1.47225  -1.14709
O     1.82930   2.68383  -1.05898
O     2.84417   0.71376  -0.61990
C     3.82903   1.38402   0.18167
H    -0.19557   3.21600   2.67660
H     0.70916   3.87446   1.28871
H    -0.97432   4.40082   1.58876
H    -1.52807   2.70525   0.12274
H    -2.16256   1.54729  -1.46109
H    -4.19001   0.59750  -0.33583
H    -3.06079   0.81519   1.01651
H    -2.95950  -1.58270   1.27079
H    -4.08465  -1.75027  -0.09384
H    -1.94764  -2.72933  -0.97926
H    -3.21455  -0.75945  -2.31801
H    -1.46387  -0.71719  -2.66993
H     0.24535   1.16301  -2.57990
H     4.35413   2.14774  -0.40910
H     3.34571   1.85040   1.05160
H     4.52905   0.60636   0.50725
