52
Generated by autodE on: 2022-06-05. E = -1404.795809 Ha
C    -2.06799   3.37409  -1.38884
C    -2.15544   2.11432  -0.58940
O    -3.16769   1.46780  -0.43263
C    -0.87407   1.69575   0.15468
O    -0.96189   2.36137   1.44846
C     0.32302   2.53877   1.84777
O     0.64071   3.04495   2.88670
C     1.17264   1.95732   0.70903
C     2.54326   2.55873   0.60376
O     0.29884   2.23381  -0.39811
C     1.02479   0.39614   0.84961
F     1.23097   0.08382   2.18643
C     2.03483  -0.38889   0.03984
C     2.66054  -1.50040   0.61757
C     3.53339  -2.29144  -0.13518
C     3.79163  -1.97866  -1.47112
C     3.18377  -0.85756  -2.04665
C     2.31501  -0.06554  -1.29696
C    -0.53847   0.18318   0.41454
C    -0.57315  -0.64980  -0.86996
C    -0.28578  -2.02298  -0.76862
C    -0.20117  -2.82832  -1.90091
C    -0.41626  -2.28006  -3.17129
C    -0.71521  -0.92338  -3.28547
C    -0.78591  -0.11573  -2.14384
C    -1.47721  -0.41704   1.48208
C    -1.37793  -0.14270   2.85887
C    -2.30043  -0.66490   3.77065
C    -3.35898  -1.46317   3.33637
C    -3.48927  -1.72465   1.97060
C    -2.56446  -1.20757   1.06301
H    -3.04790   3.60631  -1.82356
H    -1.30855   3.27609  -2.18024
H    -1.73459   4.19348  -0.73120
H     3.11267   2.27620   1.50105
H     3.07771   2.19947  -0.28238
H     2.46791   3.65447   0.56580
H     2.45114  -1.76170   1.65426
H     4.00665  -3.16063   0.32732
H     4.46616  -2.60218  -2.06241
H     3.38207  -0.59920  -3.08919
H     1.83533   0.79283  -1.76398
H    -0.10973  -2.46211   0.21381
H     0.03669  -3.88892  -1.79244
H    -0.34980  -2.90820  -4.06250
H    -0.88341  -0.47604  -4.26759
H    -0.97313   0.94523  -2.29338
H    -0.58386   0.48040   3.25536
H    -2.18359  -0.43576   4.83252
H    -4.07785  -1.87017   4.05134
H    -4.31871  -2.33252   1.60153
H    -2.70747  -1.41481   0.00459
