27
Generated by autodE on: 2022-06-16. E = -723.779889 Ha
C     3.92133   0.20174   1.07588
O     2.88557   0.64187   0.18422
C     1.74620  -0.04503   0.21327
O     1.58068  -1.06029   0.85620
C     0.68766   0.57753  -0.69579
N     0.13484  -0.48423  -1.54493
C    -1.07193  -0.70095  -1.18207
C    -1.85726  -1.73031  -1.81582
N    -2.52601  -2.54741  -2.29927
C    -1.65976   0.13381  -0.05218
C    -1.80496  -0.74055   1.20662
C    -3.00741   0.75192  -0.43443
C    -0.51761   1.20276   0.05019
C    -0.29176   1.71831   1.44058
O     0.76678   1.68286   2.03345
H     4.76780   0.87866   0.91384
H     3.57304   0.26862   2.11690
H     4.21145  -0.83413   0.85001
H     1.19398   1.31830  -1.32509
H    -0.83386  -1.14365   1.52351
H    -2.48618  -1.58225   1.00789
H    -2.23408  -0.14898   2.02940
H    -3.33930   1.43530   0.36190
H    -3.77508  -0.02826  -0.55349
H    -2.93389   1.32091  -1.37345
H    -0.84723   2.08244  -0.52826
H    -1.19165   2.17510   1.91314
