13
Generated by autodE on: 2022-06-16. E = -453.000613 Ha
C    -3.52513  -0.21688   0.97264
O    -2.37469  -0.91419   0.47257
C    -1.29896  -0.16955   0.19919
O    -1.23643   1.03699   0.34479
C    -0.20021  -1.01088  -0.30736
N     0.91163  -0.45043  -0.60538
C     1.87762   0.17705  -0.97282
C     3.07828   0.59680  -0.42097
N     4.11879   1.00724  -0.08009
H    -3.28487   0.29373   1.91659
H    -3.87708   0.52092   0.23699
H    -4.29214  -0.98178   1.13911
H    -0.31456  -2.09048  -0.43378
