27
Generated by autodE on: 2022-06-16. E = -723.685751 Ha. Imaginary frequency = -334.0 cm-1
C     3.78610   0.44871   1.24606
O     2.91738   0.65715   0.12183
C     1.94461  -0.23691  -0.05607
O     1.79025  -1.24335   0.60989
C     1.04282   0.20019  -1.14223
N     0.05529  -0.57220  -1.47272
C    -1.09365  -0.91094  -1.23298
C    -1.91213  -1.94872  -1.69672
N    -2.70412  -2.75338  -1.98829
C    -1.87841   0.47315   0.27818
C    -2.15713  -0.58167   1.33013
C    -3.08189   0.91847  -0.52248
C    -0.81908   1.37946   0.41405
C     0.11653   1.38837   1.50949
O     0.92519   2.29506   1.73573
H     4.50528   1.27521   1.22580
H     3.20685   0.47216   2.17980
H     4.30783  -0.51454   1.15509
H     1.31454   1.03806  -1.78896
H    -1.24512  -1.08337   1.67928
H    -2.84426  -1.34633   0.93942
H    -2.64965  -0.11382   2.19959
H    -3.75283   1.49346   0.14022
H    -3.66211   0.06697  -0.90780
H    -2.79511   1.56887  -1.36137
H    -0.78489   2.25417  -0.24284
H     0.08334   0.51095   2.19207
