34
Generated by autodE on: 2022-06-09. E = -894.672452 Ha
C     2.45096  -1.24215   1.46576
C     1.67480   0.03874   1.46123
O     1.55253   0.75007   2.43988
C     0.97520   0.43133   0.14995
C     1.95890   0.45128  -1.04070
C     3.21322   1.26357  -0.86084
O     1.67825  -0.06735  -2.10298
N     0.47704   1.80983   0.21450
N    -0.60612   1.89698  -0.69765
C    -1.31213   0.60860  -0.75861
C    -1.79128   0.32487  -2.16829
C    -2.44838   0.58518   0.32095
C    -3.14740  -0.76131   0.26609
C    -2.29837  -1.62543   0.83457
C    -1.09365  -0.78869   1.24016
O    -1.67994   0.47464   1.53324
C    -0.29842  -0.44710  -0.10277
C    -0.07214  -1.66479  -0.85929
N     0.04070  -2.69616  -1.38262
H     3.32007  -1.15228   0.79327
H     2.79559  -1.46953   2.48226
H     1.83509  -2.06859   1.07760
H     3.08504   2.21141  -1.40805
H     3.43303   1.49975   0.18805
H     4.05722   0.72640  -1.31724
H     0.13064   1.96543   1.16174
H    -0.21474   2.09693  -1.61854
H    -2.48968   1.11407  -2.48716
H    -2.31092  -0.64011  -2.22946
H    -0.94144   0.30591  -2.86567
H    -3.06130   1.49214   0.31519
H    -4.09936  -0.95975  -0.22510
H    -2.37066  -2.70821   0.92627
H    -0.47677  -1.15543   2.06580
