17
Generated by autodE on: 2022-06-09. E = -455.469855 Ha
C    -2.30682  -0.97625  -0.24048
C    -0.82819  -1.04481   0.04254
O    -0.31149  -2.12538   0.34181
C    -0.01922   0.17161  -0.03837
N    -0.50826   1.39533  -0.37486
N    -1.67767   1.77092  -0.67795
C     1.42829   0.26351   0.22758
C     2.22285  -0.94694   0.61918
O     1.98548   1.36607   0.12227
H    -2.72843  -1.98267  -0.11865
H    -2.80478  -0.26871   0.43968
H    -2.49487  -0.60476  -1.25917
H     0.28685   2.07464  -0.35259
H    -1.61945   2.77965  -0.86651
H     2.16154  -1.71839  -0.16228
H     1.81560  -1.39953   1.53480
H     3.26693  -0.64456   0.77421
