17
Generated by autodE on: 2022-07-26. E = -455.474671 Ha
C     1.37875  -1.39915   1.58096
C     0.19638  -0.49229   1.38282
O    -0.52700  -0.21516   2.35063
C    -0.13676   0.08113   0.06997
N    -1.26379   0.86503   0.16709
N    -1.91950   1.54419  -0.66685
C     0.50604  -0.05112  -1.22568
C     1.74835  -0.88241  -1.41341
O     0.02668   0.53551  -2.21419
H     2.31744  -0.88625   1.32576
H     1.40593  -1.70137   2.63538
H     1.30481  -2.29411   0.94660
H    -1.60384   0.86271   1.14965
H    -1.43220   1.42065  -1.57341
H     2.04534  -0.81147  -2.46751
H     2.57144  -0.52208  -0.77993
H     1.56580  -1.93670  -1.16019
