17
Generated by autodE on: 2022-06-09. E = -439.145382 Ha
C     2.09610  -1.15128  -0.56787
C     0.82207  -0.62184  -0.03902
C     0.34896   0.63948   0.07012
C     0.97321   1.84598  -0.29921
N     1.47927   2.85501  -0.59638
C    -1.11209   0.48088   0.59161
C    -1.92331  -0.16324  -0.55250
C    -1.44755  -1.40815  -0.65266
C    -0.36012  -1.50223   0.43854
O    -0.92228  -0.65087   1.45247
H     2.59354  -1.78497   0.18565
H     2.78100  -0.34957  -0.87717
H     1.89173  -1.80305  -1.43599
H    -1.54434   1.34145   1.11138
H    -2.66737   0.35160  -1.15911
H    -1.68895  -2.19565  -1.36532
H    -0.10008  -2.49553   0.81953
