23
Generated by autodE on: 2022-06-22. E = -351.521382 Ha
C     3.62746   0.96944   0.45052
C     2.57568   0.17562   0.15148
C     2.77346  -1.24754  -0.30444
C     1.21383   0.69322   0.26859
C     0.07865  -0.00015   0.00116
C    -1.25018   0.56136   0.13393
C    -2.42962  -0.06397  -0.11033
C    -2.55642  -1.48818  -0.57167
C    -3.73497   0.65716   0.07424
H     3.48083   2.00225   0.78148
H     4.65648   0.60782   0.37169
H     2.33404  -1.40988  -1.30270
H     2.27447  -1.95616   0.37739
H     3.84074  -1.50602  -0.35060
H     1.12424   1.73380   0.60314
H     0.16059  -1.03810  -0.33240
H    -1.29159   1.60491   0.46879
H    -3.15535  -2.07104   0.15039
H    -1.59352  -1.99742  -0.70621
H    -3.10550  -1.53199  -1.52886
H    -4.37072   0.13347   0.81076
H    -3.59362   1.69436   0.41197
H    -4.31072   0.67203  -0.86869
