28
Generated by autodE on: 2022-06-22. E = -795.253751 Ha
C     2.53164  -2.57013   0.62580
N     1.60791  -1.45792   0.75261
C     1.61267  -0.43653  -0.11517
O     2.49746  -0.26256  -0.96425
C     0.50920   0.56221   0.02896
N    -0.76738   0.26784   0.07160
C    -1.54399  -0.83728  -0.06953
C    -1.03530  -2.10289  -0.42278
N    -0.66262  -3.16562  -0.73179
C    -2.97659  -0.57938   0.08646
C    -3.92191  -1.73217  -0.09285
O    -3.35961   0.56381   0.35175
C     0.76970   2.03327   0.12124
O    -0.16955   2.79627   0.39090
N     2.02980   2.43466  -0.09044
C     2.39194   3.83785  -0.06965
H     3.55619  -2.20013   0.48268
H     2.48995  -3.17208   1.54124
H     2.26530  -3.20667  -0.23396
H     0.85225  -1.53873   1.42632
H    -1.36025   1.11162   0.23431
H    -4.95181  -1.39637   0.08045
H    -3.83166  -2.14109  -1.11226
H    -3.67155  -2.54638   0.60580
H     2.68788   1.74685  -0.45287
H     3.48526   3.92268  -0.07510
H     1.98944   4.37483  -0.94497
H     1.99875   4.32042   0.83634
