28
Generated by autodE on: 2022-07-27. E = -795.247262 Ha
C     1.93914  -1.59229   2.42926
N     1.37636  -0.63600   1.49346
C     1.07987  -0.99361   0.23517
O     1.44113  -2.06468  -0.27020
C     0.43411   0.05983  -0.60891
N    -0.53421   0.86540  -0.24105
C    -1.43974   0.84904   0.78811
C    -2.15974   2.04791   0.99922
N    -2.75276   3.03503   1.19260
C    -1.83314  -0.38788   1.44540
C    -2.92893  -0.29658   2.47705
O    -1.32295  -1.46827   1.13470
C     0.98197   0.42571  -1.95951
O     0.57245   1.45971  -2.50908
N     1.88777  -0.40337  -2.48541
C     2.45568  -0.17519  -3.79890
H     1.21217  -2.38421   2.67353
H     2.83476  -2.06440   2.00186
H     2.21683  -1.06522   3.34990
H     0.97580   0.21749   1.87192
H    -0.63241   1.63289  -0.93383
H    -3.86604   0.05869   2.01950
H    -2.65729   0.42125   3.26707
H    -3.09187  -1.28854   2.91678
H     2.06303  -1.27570  -1.98542
H     1.70009  -0.30123  -4.59203
H     3.26667  -0.89412  -3.96431
H     2.85919   0.84521  -3.87301
