51
Generated by autodE on: 2022-06-22. E = -1146.749327 Ha. Imaginary frequency = -294.7 cm-1
C     0.19693  -2.47942   1.48579
C     0.39549  -2.25926   0.17480
C     1.00385  -3.30325  -0.72557
C     0.01124  -0.99572  -0.51261
C    -1.23856  -0.37517  -0.24058
C    -1.86766   0.43628  -1.24091
C    -3.16137   0.86753  -1.25303
C    -4.17424   0.52941  -0.20189
C    -3.66404   1.71958  -2.37844
C    -0.38532   1.53436   1.17260
C    -1.30731   2.53824   0.77518
N    -2.08419   3.32414   0.40177
C    -0.62502   0.94100   2.48093
C    -2.01320   1.07378   3.05571
O     0.25415   0.35955   3.13206
N     0.79616   1.54089   0.43945
C     1.50138   0.48857  -0.11048
C     2.50803  -0.34996   0.64680
O     3.23893  -1.15352   0.03571
N     2.61403  -0.16438   1.96374
C     3.44611  -1.05272   2.75315
C     1.90550   0.92063  -1.52837
O     1.37546   1.93795  -2.01037
N     2.75622   0.15453  -2.20760
C     3.11701   0.44865  -3.57945
H    -0.22732  -1.72322   2.14664
H     0.47427  -3.43655   1.93639
H     1.30364  -4.19892  -0.16266
H     0.28615  -3.60494  -1.50818
H     1.88829  -2.89977  -1.24159
H     0.27905  -0.98125  -1.57198
H    -1.82652  -0.74101   0.60160
H    -1.22310   0.74601  -2.07034
H    -4.51380   1.44974   0.30190
H    -3.80300  -0.16571   0.56081
H    -5.06889   0.08488  -0.67110
H    -4.49165   1.21497  -2.90820
H    -2.87370   1.95774  -3.10433
H    -4.07957   2.66382  -1.98645
H    -2.12136   0.36406   3.88582
H    -2.14878   2.09567   3.44787
H    -2.79596   0.90011   2.30629
H     0.72298   2.23246  -0.32424
H     1.80665   0.26334   2.44244
H     3.12329  -2.10307   2.65633
H     4.49755  -0.99089   2.43634
H     3.37683  -0.75526   3.80701
H     3.17327  -0.61860  -1.67941
H     3.78232  -0.34186  -3.94720
H     3.63635   1.41717  -3.66089
H     2.22330   0.48933  -4.22158
