44
Generated by autodE on: 2022-05-30. E = -1493.487384 Ha
C    -2.87061   1.27364   2.94405
N    -1.90703   0.61409   2.08299
C    -1.98993   0.70343   0.75314
O    -2.88619   1.35955   0.19984
C    -1.02488  -0.05595  -0.16304
C    -1.82499  -1.28026  -0.74701
C    -2.39958  -2.11405   0.41761
C    -1.12872  -2.73075   1.06828
C     0.00355  -2.29326   0.11523
C    -0.72353  -2.23542  -1.24024
C     0.29620  -0.79083   0.31557
Cl    0.96372  -0.45590   1.99483
C     1.32477  -0.23153  -0.64529
C     2.74580  -0.72356  -0.64081
O     3.08732  -1.77588  -0.14096
O     3.57298   0.11722  -1.25134
C     4.95127  -0.28235  -1.33116
N     0.92363   0.63938  -1.48326
C    -0.48970   0.95952  -1.26398
C    -1.23199   0.92204  -2.59510
C    -0.42370   2.39825  -0.64406
C    -1.01519   3.55789  -1.38298
O     0.15227   2.53042   0.41918
H    -3.89154   0.91413   2.74114
H    -2.85778   2.36489   2.79417
H    -2.61709   1.05467   3.98850
H    -1.12545   0.12091   2.50002
H    -2.58115  -0.97258  -1.47505
H    -3.01141  -1.53452   1.11977
H    -3.04466  -2.89879  -0.00300
H    -0.95736  -2.37939   2.09498
H    -1.18103  -3.82790   1.10239
H     0.91336  -2.89850   0.16845
H    -1.12943  -3.21444  -1.53260
H    -0.10863  -1.85405  -2.06509
H     5.46768   0.52575  -1.86101
H     5.37037  -0.40834  -0.32258
H     5.04314  -1.22622  -1.88736
H    -1.16277  -0.07303  -3.05159
H    -2.29064   1.16928  -2.45150
H    -0.78802   1.63991  -3.29715
H    -2.07343   3.37161  -1.61341
H    -0.91233   4.46687  -0.77679
H    -0.49079   3.69125  -2.34276
