24
Generated by autodE on: 2022-05-30. E = -940.616558 Ha
C     3.75838   1.02640   0.39202
N     2.33582   0.90188   0.63152
C     1.60885  -0.09261   0.06947
O     2.13658  -0.95002  -0.65402
C     0.16442  -0.07632   0.38555
C    -0.84235  -0.68587  -0.28202
Cl   -0.77578  -1.66100  -1.70714
C    -2.16799  -0.21239   0.27354
C    -2.30423   1.27472  -0.19343
C    -1.17720   1.99342   0.60186
C    -0.52886   0.82546   1.41125
C    -1.77271  -0.01965   1.75080
H     4.14343   1.87725   0.96725
H     4.29543   0.11626   0.70315
H     3.97640   1.19376  -0.67572
H     1.87123   1.60349   1.19597
H    -3.02699  -0.85230   0.04107
H    -3.29894   1.65667   0.07886
H    -2.19278   1.36518  -1.28317
H    -0.44200   2.49178  -0.04534
H    -1.58900   2.74651   1.28985
H     0.09728   1.14289   2.25449
H    -2.52726   0.53378   2.32974
H    -1.52730  -0.96411   2.25749
