20
Generated by autodE on: 2022-05-30. E = -552.786815 Ha
C     3.83666  -0.90920  -0.18105
O     2.46943  -0.76562   0.24676
C     1.99888   0.47875   0.31860
O     2.62547   1.48997   0.07091
C     0.63418   0.49962   0.83751
N    -0.45570   0.59571   0.33089
C    -1.66991   0.54689  -0.09997
C    -2.42534   1.79918  -0.43658
C    -2.24276  -0.81715  -0.22004
C    -3.65826  -0.90978  -0.71929
O    -1.58199  -1.80778   0.08155
H     3.96057  -0.52535  -1.20363
H     4.04601  -1.98428  -0.15131
H     4.50862  -0.36951   0.50129
H    -3.33923   1.87956   0.17352
H    -1.80353   2.68579  -0.25551
H    -2.73425   1.79794  -1.49406
H    -4.33684  -0.35055  -0.05511
H    -3.74263  -0.45351  -1.71880
H    -3.96530  -1.96245  -0.76357
