15
Generated by autodE on: 2022-06-16. E = -396.272197 Ha
C     2.41111   0.22394   0.28343
C     1.26006  -0.38357  -0.46939
O     1.38961  -1.14873  -1.41972
N    -0.00592  -0.04637  -0.05040
C    -1.25704  -0.52157  -0.65080
C    -2.26544   0.20683   0.24304
N    -1.44694   0.97862   1.20529
N    -0.23499   0.80609   1.00218
H     3.34584  -0.13791  -0.16167
H     2.36960  -0.05525   1.34657
H     2.37152   1.32201   0.22996
H    -1.31102  -0.22521  -1.70717
H    -1.32134  -1.61618  -0.58495
H    -2.91894  -0.46827   0.81281
H    -2.91024   0.91121  -0.30057
