9
Generated by autodE on: 2022-06-16. E = -317.592367 Ha
C    -2.26212   0.11073   0.06018
C    -0.82798  -0.12746  -0.28518
O    -0.42282  -0.69101  -1.28077
N     0.05144   0.39087   0.70891
N     1.26295   0.23498   0.50570
N     2.38254   0.13988   0.40678
H    -2.43786   1.18982   0.19212
H    -2.49528  -0.37671   1.02006
H    -2.90727  -0.28603  -0.73242
