15
Generated by autodE on: 2022-06-16. E = -396.192382 Ha. Imaginary frequency = -362.8 cm-1
C     2.09779   0.95721   0.99872
C     1.51409  -0.19957   0.23897
O     2.15099  -1.16866  -0.14502
N     0.14919  -0.03664   0.02071
C    -1.42272   1.45754   0.46258
C    -2.50858   0.84222  -0.12306
N    -1.67043  -0.99472  -0.92038
N    -0.55469  -0.88914  -0.60466
H     1.94220   1.89214   0.43766
H     1.58611   1.06851   1.96752
H     3.16983   0.78937   1.15730
H    -1.24403   1.37669   1.53656
H    -0.87181   2.24081  -0.06173
H    -2.84901   1.15263  -1.11374
H    -3.22271   0.28625   0.48896
