52
Generated by autodE on: 2022-06-26. E = -1192.569294 Ha
C     2.70662   1.60953  -2.73477
O     1.58123   0.71967  -2.80887
C     0.63384   0.87338  -1.88465
O     0.61899   1.77753  -1.07517
C    -0.39201  -0.24513  -1.96359
O    -1.64395   0.17323  -1.46124
C    -1.76639  -0.16385  -0.08091
C    -1.32089   1.03739   0.78660
O    -0.59837   0.96121   1.75923
O    -1.89943   2.16181   0.37795
C    -1.54250   3.36318   1.07584
C    -3.23046  -0.41501   0.25701
C    -3.57133  -0.82081   1.55624
C    -4.90538  -1.05657   1.89339
C    -5.91217  -0.88705   0.93640
C    -5.57441  -0.47779  -0.35625
C    -4.23864  -0.23842  -0.69612
C    -0.86929  -1.39698   0.13069
C     0.04554  -1.51101  -1.12110
C    -0.31244  -2.76960  -1.92276
C     1.52917  -1.50032  -0.81108
C     2.10821  -0.82219   0.19826
C     3.54252  -0.73541   0.40935
C     4.16888   0.02143   1.34323
C     3.46140   0.90824   2.33047
C     5.66796   0.02865   1.45095
H     3.22044   1.48714  -1.77014
H     3.37147   1.32530  -3.55821
H     2.38093   2.65280  -2.85027
H    -0.52199  -0.50651  -3.02213
H    -1.79109   3.27843   2.14332
H    -2.12519   4.16721   0.61199
H    -0.46654   3.55880   0.96145
H    -2.78905  -0.95062   2.30805
H    -5.15947  -1.37474   2.90722
H    -6.95629  -1.07235   1.19921
H    -6.35481  -0.34181  -1.10896
H    -3.97616   0.08242  -1.70381
H    -0.30431  -1.30391   1.06195
H    -1.49585  -2.29287   0.20885
H     0.29186  -2.83355  -2.84095
H    -0.12366  -3.67257  -1.32170
H    -1.37630  -2.75803  -2.20523
H     2.16666  -2.02761  -1.52984
H     1.46926  -0.27258   0.89270
H     4.16518  -1.33062  -0.26920
H     3.83518   1.94359   2.24408
H     3.68644   0.58767   3.36317
H     2.37095   0.93119   2.20803
H     6.14076  -0.63776   0.71459
H     5.98862  -0.28336   2.46116
H     6.06640   1.04874   1.30576
