29
Generated by autodE on: 2022-07-27. E = -840.946004 Ha
C     3.90928   0.47108  -2.84793
O     2.48943   0.37676  -2.98685
C     1.78330   0.21018  -1.84428
O     2.31718   0.15345  -0.73400
C     0.39189   0.03670  -2.11334
O    -0.48552  -0.24626  -1.15462
C    -0.49169  -0.07114   0.13826
C     0.40276   0.92922   0.79191
O     0.88169   0.79837   1.89979
O     0.49302   2.03782   0.05858
C     1.37995   3.05950   0.53791
C    -1.51953  -0.79075   0.86468
C    -2.26744  -1.79755   0.20725
C    -3.27080  -2.48649   0.87990
C    -3.54798  -2.20079   2.22305
C    -2.81119  -1.21363   2.88615
C    -1.80870  -0.51144   2.22130
H     4.32501  -0.45145  -2.41508
H     4.30411   0.61893  -3.86029
H     4.18479   1.32401  -2.20907
H     0.01358  -0.18620  -3.10853
H     1.37177   3.84632  -0.22480
H     1.02484   3.45648   1.49957
H     2.39384   2.65270   0.65585
H    -2.04558  -2.03730  -0.83309
H    -3.83677  -3.26066   0.35695
H    -4.33220  -2.74843   2.75035
H    -3.02212  -0.98397   3.93291
H    -1.24965   0.25742   2.75209
