29
Generated by autodE on: 2022-06-26. E = -840.950868 Ha
C     4.08316  -1.66460  -0.72333
O     2.85446  -0.95416  -0.53236
C     2.89572   0.37674  -0.72968
O     3.91263   0.97958  -1.05254
C     1.62905   1.04883  -0.53010
O     0.61013   0.31732  -0.18411
C    -0.66795   0.43720   0.09049
C    -1.33031   1.74886   0.04139
O    -2.51771   1.94433   0.24791
O    -0.47668   2.73747  -0.26128
C    -1.02162   4.06227  -0.33722
C    -1.32118  -0.82672   0.42905
C    -0.56749  -2.02559   0.39149
C    -1.15190  -3.24672   0.71218
C    -2.50150  -3.31458   1.07991
C    -3.25661  -2.13967   1.12159
C    -2.68197  -0.90898   0.80221
H     4.44325  -1.54734  -1.75620
H     3.85794  -2.71802  -0.52031
H     4.85409  -1.30191  -0.02744
H     1.53793   2.12206  -0.66662
H    -0.18072   4.71714  -0.59193
H    -1.45474   4.35422   0.63015
H    -1.79612   4.11389  -1.11583
H     0.48391  -1.99021   0.10779
H    -0.54756  -4.15614   0.67479
H    -2.95784  -4.27470   1.33102
H    -4.31040  -2.17644   1.40776
H    -3.28327  -0.00494   0.84066
