53
Generated by autodE on: 2022-06-23. E = -1093.856740 Ha
C     5.05159   0.79457   0.61495
C     3.82786   0.68799   1.17109
C     3.56687   1.08533   2.60035
C     2.70570   0.18691   0.37011
C     1.44708   0.02581   0.81609
C     0.31529  -0.42058  -0.04833
C    -0.47416  -1.67987   0.44003
C     0.27612  -2.93083  -0.03369
C    -0.63091  -1.74856   1.96464
C    -1.88677  -1.45934  -0.21220
C    -2.12958  -2.31986  -1.45742
C    -2.65986  -3.70721  -1.24208
O    -1.95499  -1.86941  -2.58135
N    -1.96387  -0.05977  -0.53124
C    -3.25947   0.56688  -0.61924
C    -0.76809   0.69851  -0.30298
C    -0.90846   1.63929   0.92659
O    -1.67583   1.34101   1.85173
N    -0.13818   2.73201   0.95832
C    -0.07624   3.58776   2.12435
C    -0.29507   1.41895  -1.59268
O     0.56522   2.31845  -1.58469
N    -0.80867   0.92544  -2.72333
C    -0.32308   1.34103  -4.02285
H     5.90674   1.17155   1.18298
H     5.22622   0.50678  -0.42633
H     2.80185   1.87811   2.65562
H     3.17955   0.23441   3.18501
H     4.48233   1.45107   3.08630
H     2.92763  -0.05066  -0.67672
H     1.20678   0.26628   1.85430
H     0.72051  -0.67681  -1.03741
H     0.34038  -2.98654  -1.13131
H     1.30527  -2.90280   0.35718
H    -0.19422  -3.85305   0.33656
H     0.34805  -1.85236   2.45621
H    -1.23402  -2.62976   2.23255
H    -1.12739  -0.85276   2.35796
H    -2.66481  -1.75007   0.51828
H    -3.75959  -3.62155  -1.17618
H    -2.31532  -4.14619  -0.29625
H    -2.41227  -4.35624  -2.09270
H    -3.14833   1.61583  -0.93084
H    -3.88440   0.06424  -1.37776
H    -3.81152   0.55610   0.34020
H     0.44907   2.89300   0.13587
H     0.22498   3.01801   3.01863
H    -1.05187   4.05373   2.33752
H     0.66060   4.38072   1.94600
H    -1.38251   0.08029  -2.63054
H     0.72372   1.03229  -4.18633
H    -0.94979   0.88626  -4.80029
H    -0.37056   2.43544  -4.12444
