23
Generated by autodE on: 2022-06-23. E = -351.521384 Ha
C     3.59604  -1.15228  -0.19785
C     2.56614  -0.27859  -0.15563
C     2.79856   1.20967  -0.21344
C     1.19426  -0.77204  -0.05229
C     0.07821  -0.00201  -0.00408
C    -1.26159  -0.54357   0.09739
C    -2.42330   0.15599   0.14993
C    -3.74408  -0.55293   0.25414
C    -2.51349   1.65518   0.11191
H     4.63203  -0.81080  -0.27518
H     3.42385  -2.23223  -0.15584
H     2.39922   1.70946   0.68473
H     3.86989   1.44279  -0.29066
H     2.28302   1.65920  -1.07839
H     1.07922  -1.86196  -0.01266
H     0.18497   1.08539  -0.04362
H    -1.32831  -1.63771   0.13373
H    -3.62871  -1.64650   0.27875
H    -4.28664  -0.23823   1.16376
H    -4.39782  -0.28958  -0.59681
H    -1.53909   2.15479   0.03724
H    -3.13244   1.97896  -0.74352
H    -3.02369   2.02984   1.01691
