30
Generated by autodE on: 2022-07-27. E = -742.273723 Ha
C     2.23556   2.85153   2.03944
N     1.43282   2.13256   1.07411
C     0.53819   1.20444   1.48121
O     0.29822   1.02444   2.68728
C    -0.11884   0.40127   0.41155
C     0.28401   0.57270  -1.02096
O     1.42046   0.96128  -1.34209
N    -0.68151   0.43992  -1.95328
C    -0.34905   0.44810  -3.36518
N    -1.12721  -0.43538   0.74978
C    -2.00611  -0.15226   1.91350
C    -1.43472  -1.57874   0.08958
C    -0.48129  -2.35999  -0.65359
C    -0.94833  -3.72931  -1.08991
O     0.67048  -1.97719  -0.91565
H     1.59786   3.38275   2.76178
H     2.85478   3.58626   1.50965
H     2.89802   2.17902   2.61233
H     1.74016   2.06773   0.10292
H    -1.56305   0.01413  -1.68720
H     0.35140  -0.36534  -3.61790
H    -1.27076   0.31485  -3.94474
H     0.11606   1.40167  -3.65462
H    -2.05714   0.92315   2.09427
H    -3.00049  -0.54043   1.66299
H    -1.62475  -0.66660   2.80208
H    -2.39783  -2.01645   0.34065
H    -1.28665  -3.65902  -2.13865
H    -1.78140  -4.11498  -0.48708
H    -0.10109  -4.42955  -1.06074
