53
Generated by autodE on: 2022-06-23. E = -1093.772848 Ha. Imaginary frequency = -339.4 cm-1
C     4.45931   1.88274   1.29464
C     3.37138   1.19994   1.72206
C     2.88976   1.31434   3.14619
C     2.61847   0.36491   0.79813
C     1.49802  -0.33689   1.12162
C     0.77241  -1.17046   0.20546
C    -0.19930  -2.11765   0.60525
C    -0.04921  -3.53327   0.08530
C    -0.76225  -2.03972   2.00592
C    -1.97715  -1.34640  -0.53619
C    -1.54100  -1.97640  -1.79960
C    -2.33121  -3.20678  -2.17752
O    -0.62673  -1.58246  -2.51888
N    -1.91627  -0.02559  -0.17566
C    -2.98128   0.40299   0.75946
C    -0.82390   0.76754  -0.44948
C    -0.40680   1.78054   0.54975
O    -0.80770   1.75767   1.72911
N     0.47380   2.71260   0.11187
C     1.06772   3.70918   0.97360
C    -0.40653   0.97840  -1.86714
O     0.76926   1.23034  -2.19331
N    -1.41157   1.04712  -2.76495
C    -1.14377   1.10815  -4.18762
H     5.02790   2.53005   1.96782
H     4.80226   1.80738   0.25815
H     1.85062   1.68011   3.17867
H     2.89449   0.33273   3.64840
H     3.52020   2.00264   3.72644
H     2.98118   0.32832  -0.23500
H     1.12604  -0.28149   2.14569
H     1.22010  -1.30479  -0.78268
H     0.31123  -3.56834  -0.95200
H     0.70513  -4.04866   0.70693
H    -0.98062  -4.11149   0.16730
H    -0.04221  -2.47100   2.72527
H    -1.69328  -2.61876   2.09121
H    -0.96052  -1.00612   2.31605
H    -2.85138  -1.84123  -0.10996
H    -3.24725  -2.87038  -2.69501
H    -2.64953  -3.79058  -1.30336
H    -1.74730  -3.82983  -2.86815
H    -3.02406   1.49379   0.79476
H    -3.93462   0.02263   0.37058
H    -2.82461   0.01264   1.77199
H     0.88711   2.55009  -0.80524
H     0.50580   3.75884   1.91328
H     1.03229   4.69784   0.48966
H     2.12189   3.47791   1.19923
H    -2.33226   0.74374  -2.46615
H    -0.62475   0.20151  -4.53983
H    -2.09532   1.20371  -4.72531
H    -0.51441   1.97769  -4.42653
