47
Generated by autodE on: 2022-06-21. E = -1160.683406 Ha
C    -4.64782  -1.91188  -0.31647
N    -3.47416  -1.10574  -0.03409
C    -2.30060  -1.33821  -0.64371
O    -2.12230  -2.26907  -1.42653
C    -1.18475  -0.31749  -0.31268
C    -1.21193  -0.00528   1.20147
C    -0.89096  -1.12098   2.15427
O    -1.49190   1.11031   1.59903
C     0.23349  -0.76213  -0.83258
C     0.98351   0.58784  -0.91620
C     1.81322   0.92860   0.33582
C     2.54632  -0.27540   0.85587
C     3.74232  -0.17265   1.70285
N     4.16157   1.07976   2.01714
O     4.36239  -1.16785   2.13228
C     2.06800  -1.52313   0.59053
N     0.97562  -1.80529  -0.16178
C     0.58912  -3.18923  -0.39201
N    -0.13095   1.53226  -1.11051
C    -0.00283   2.88422  -1.03155
C    -1.27087   3.68488  -0.88048
O     1.11186   3.41533  -1.09589
N    -1.40483   0.91471  -1.08689
C    -1.93460   0.73306  -2.44641
H    -4.41732  -2.97950  -0.19004
H    -5.44633  -1.63253   0.38122
H    -5.00292  -1.75659  -1.34860
H    -3.58931  -0.25502   0.50887
H    -1.44074  -0.95952   3.09154
H    -1.11082  -2.11510   1.74516
H     0.18685  -1.07559   2.38070
H     0.04197  -1.11988  -1.85343
H     1.64311   0.58053  -1.79551
H     2.50704   1.73480   0.06675
H     1.14633   1.35035   1.10756
H     4.97419   1.18142   2.61470
H     3.66608   1.91255   1.72681
H     2.58838  -2.39257   0.99504
H    -0.36243  -3.43739   0.10233
H     1.37222  -3.84839   0.00372
H     0.47162  -3.38377  -1.46889
H    -0.99562   4.73174  -0.70117
H    -1.86835   3.29406  -0.04565
H    -1.89067   3.62876  -1.78804
H    -1.35078   0.03241  -3.06811
H    -1.94541   1.71166  -2.94248
H    -2.97318   0.38248  -2.38723
