27
Generated by autodE on: 2022-06-21. E = -702.910256 Ha
C    -2.56784   2.10198   0.53824
N    -1.84728   0.84381   0.57986
C    -0.90646   0.55384  -0.32810
O    -0.67079   1.25575  -1.31506
C    -0.17219  -0.75301  -0.12973
C    -0.95752  -2.01209   0.06068
C    -2.36589  -2.03923  -0.47161
O    -0.47235  -2.97676   0.63445
N     1.14398  -0.78689  -0.29284
C     1.88224  -2.06213  -0.45261
N     1.94883   0.26169  -0.42659
C     1.71439   1.38311   0.32434
C     2.51542   2.57521  -0.12122
O     0.95336   1.44222   1.29783
H    -3.35390   2.08687   1.30293
H    -3.03032   2.24870  -0.44840
H    -1.89133   2.95073   0.73320
H    -1.90143   0.27510   1.42020
H    -3.05463  -1.61835   0.27816
H    -2.64851  -3.08567  -0.64774
H    -2.47156  -1.45112  -1.39447
H     2.13110  -2.45464   0.54070
H     1.28808  -2.79370  -1.00636
H     2.79715  -1.81006  -0.99550
H     2.74323   3.22028   0.73860
H     3.43437   2.28593  -0.64691
H     1.88394   3.15037  -0.82108
