47
Generated by autodE on: 2022-06-21. E = -1160.620798 Ha. Imaginary frequency = -215.2 cm-1
C    -3.58571  -3.06597  -0.64404
N    -2.98236  -1.87445  -0.08775
C    -2.49782  -0.90840  -0.90012
O    -2.73353  -0.91420  -2.12092
C    -1.65184   0.13790  -0.25238
C    -1.17811   0.02535   1.12531
C    -0.66715   1.23507   1.87871
O    -1.23195  -1.05705   1.74082
C     0.60871  -1.00070  -1.21290
C     1.30731   0.20512  -1.21409
C     2.34586   0.48384  -0.15132
C     2.35172  -0.57519   0.92841
C     3.15191  -0.41185   2.15896
N     3.85208   0.74255   2.26764
O     3.18941  -1.26953   3.06096
C     1.62735  -1.71610   0.80519
N     0.81464  -1.97705  -0.26818
C     0.11497  -3.25527  -0.34894
N    -0.10692   1.70479  -0.80876
C     0.29580   2.99933  -1.01494
C    -0.59211   4.11205  -0.49631
O     1.40628   3.24678  -1.48745
N    -1.33789   1.27314  -0.96486
C    -2.08551   1.72524  -2.14817
H    -3.93855  -3.70244   0.17751
H    -2.87069  -3.64527  -1.25507
H    -4.44304  -2.81142  -1.28416
H    -2.54309  -1.92229   0.83357
H    -1.17200   2.16299   1.58103
H    -0.84145   1.04382   2.94680
H     0.41187   1.37244   1.72670
H    -0.01404  -1.28791  -2.05877
H     1.43078   0.69629  -2.17786
H     3.34500   0.56802  -0.62107
H     2.15571   1.47802   0.28865
H     3.83836   1.46246   1.55651
H     4.40593   0.89746   3.10315
H     1.66308  -2.48843   1.57353
H    -0.49307  -3.42213   0.55005
H     0.83661  -4.08068  -0.44974
H    -0.54008  -3.25380  -1.22741
H    -0.05381   4.59389   0.33524
H    -1.57096   3.77343  -0.13833
H    -0.71912   4.86463  -1.28845
H    -1.68747   1.24821  -3.05384
H    -1.97108   2.81278  -2.23054
H    -3.14397   1.47975  -2.03508
