36
Generated by autodE on: 2022-05-29. E = -1008.845186 Ha
C     5.45474  -0.95106  -0.38921
O     4.09662  -0.63054  -0.73729
C     3.21681  -0.61857   0.25594
O     3.47367  -0.85386   1.41971
C     1.85077  -0.28003  -0.20652
C     0.73071  -0.18142   0.54763
C     0.58460  -0.37537   1.93910
N     0.40524  -0.51795   3.07958
C    -0.40070   0.14565  -0.40194
C    -1.02490   1.52871  -0.20142
C    -0.47509   2.47385   0.67262
C    -1.06052   3.73828   0.79444
C    -2.18705   4.06855   0.03830
C    -2.72976   3.12878  -0.84543
C    -2.15180   1.86507  -0.96594
C    -1.43060  -0.98888  -0.37479
C    -1.39751  -2.02874  -1.31124
C    -2.31890  -3.07661  -1.22309
C    -3.26801  -3.09675  -0.19796
C    -3.29548  -2.06159   0.74245
C    -2.38098  -1.01070   0.65571
N     0.31001   0.19870  -1.70954
N     1.53482  -0.01832  -1.57088
H     5.50618  -1.95863   0.04724
H     6.02149  -0.90931  -1.32570
H     5.84510  -0.21724   0.33015
H     0.40794   2.23809   1.26796
H    -0.63025   4.46514   1.48693
H    -2.64348   5.05610   0.13671
H    -3.60879   3.38045  -1.44305
H    -2.57837   1.13262  -1.65346
H    -0.65980  -2.02380  -2.11399
H    -2.29203  -3.88004  -1.96272
H    -3.98678  -3.91671  -0.13174
H    -4.03332  -2.06972   1.54789
H    -2.40837  -0.20244   1.38885
