11
Generated by autodE on: 2022-05-29. E = -397.625313 Ha
C    -3.02132   1.20542  -0.36432
O    -1.58892   1.06454  -0.27815
C    -1.12930  -0.14945  -0.01464
O    -1.79872  -1.14438   0.15873
C     0.32656  -0.16576   0.04816
C     1.53702  -0.25660   0.11377
C     2.90479  -0.34772   0.18580
N     4.06676  -0.42431   0.24689
H    -3.20165   2.26277  -0.58545
H    -3.48506   0.92530   0.59183
H    -3.41414   0.56905  -1.16958
