23
Generated by autodE on: 2022-06-23. E = -351.521386 Ha
C    -3.68153   0.02524   0.86351
C    -2.57508  -0.20163   0.12191
C    -2.66473  -0.82199  -1.24899
C    -1.25879   0.15763   0.64566
C    -0.07770  -0.01230  -0.00007
C     1.20249   0.36324   0.56444
C     2.42158   0.23239  -0.01725
C     3.66661   0.67207   0.69986
C     2.65195  -0.34057  -1.38685
H    -3.61307   0.47551   1.85864
H    -4.67843  -0.23341   0.49583
H    -2.08913  -1.76128  -1.29832
H    -2.24081  -0.15317  -2.01643
H    -3.70728  -1.04097  -1.51947
H    -1.24723   0.60193   1.64827
H    -0.08168  -0.45353  -1.00038
H     1.16685   0.79935   1.57013
H     4.37003  -0.17196   0.81640
H     3.44924   1.08425   1.69616
H     4.20536   1.43879   0.11436
H     3.16135   0.39964  -2.02901
H     3.32925  -1.21086  -1.32798
H     1.73174  -0.65706  -1.89454
