55
Generated by autodE on: 2022-06-23. E = -1095.713609 Ha. Imaginary frequency = -349.2 cm-1
C     4.45494   1.02161   0.44870
C     3.32448   0.39362   0.84471
C     3.01326   0.19455   2.30545
C     2.35378  -0.05624  -0.14406
C     1.13747  -0.59419   0.13074
C     0.15724  -0.92543  -0.87858
C    -0.86824   1.04367  -1.32345
C    -0.98852   0.75972  -2.80328
C     0.08874   2.09743  -0.93584
C     0.78288   2.85494  -1.90179
C     1.76247   3.77716  -1.52938
C     2.07969   3.96670  -0.18101
C     1.40681   3.22168   0.79239
C     0.43926   2.29272   0.41951
N    -1.98702   0.86558  -0.52880
C    -2.49026   1.94617   0.34283
C    -2.70466  -0.34621  -0.58614
C    -3.40869  -0.64658  -1.79268
N    -4.02894  -0.92307  -2.74335
C    -3.40404  -0.78248   0.65677
O    -3.08762  -0.36157   1.77893
N    -4.36661  -1.72632   0.51175
C    -4.93259  -2.39371   1.66659
C    -0.93547  -1.80893  -0.61558
C    -1.05693  -2.41461   0.76211
C    -1.36807  -2.74177  -1.71675
H     5.18621   1.39279   1.17205
H     4.67057   1.18134  -0.61215
H     2.08610   0.72194   2.58463
H     2.85174  -0.87095   2.53815
H     3.82717   0.56936   2.94202
H     2.62494   0.11076  -1.19305
H     0.85326  -0.73466   1.17579
H     0.53636  -0.93175  -1.90229
H    -0.00277   0.71632  -3.27975
H    -1.50157  -0.17823  -3.02068
H    -1.56945   1.57061  -3.27875
H     0.55284   2.73843  -2.96016
H     2.27926   4.35297  -2.30064
H     2.84933   4.68575   0.10867
H     1.65782   3.34310   1.84832
H    -0.03449   1.68896   1.19052
H    -3.58681   1.90873   0.34027
H    -2.18187   2.91042  -0.07687
H    -2.14741   1.87362   1.37950
H    -4.54025  -2.12255  -0.40537
H    -5.37216  -1.66527   2.36411
H    -5.72138  -3.07753   1.32909
H    -4.17306  -2.97391   2.21819
H    -0.21798  -3.11687   0.91491
H    -1.98692  -2.98890   0.86683
H    -1.01830  -1.66935   1.56415
H    -2.39024  -3.11667  -1.55958
H    -1.30845  -2.28376  -2.71307
H    -0.69761  -3.62078  -1.71710
