46
Generated by autodE on: 2022-06-22. E = -1127.155091 Ha
C     0.36554   3.85054  -0.60178
C    -0.51809   2.72166  -1.04335
O    -1.36144   2.84766  -1.90938
C    -0.31780   1.36053  -0.33843
C    -0.98148   1.53937   1.05494
C    -0.28882   1.00011   2.27008
O    -2.01935   2.17669   1.12472
N     1.10684   1.05484  -0.24462
C     1.32538  -0.15715  -0.61054
C     2.68893  -0.71572  -0.67607
C     3.71777  -0.15329   0.10309
C     5.01297  -0.66291   0.03814
C     5.30443  -1.73582  -0.81331
C     4.29172  -2.29615  -1.59678
C     2.99036  -1.79495  -1.52551
C     0.05480  -0.95590  -0.94331
C    -0.94259   0.19136  -1.16965
C    -2.40207  -0.14265  -0.88135
C    -2.51679  -0.84263   0.44675
C    -3.65953  -0.69917   1.35300
N    -4.73293  -0.01594   0.88181
O    -3.67353  -1.17015   2.51103
C    -1.48569  -1.64144   0.85067
N    -0.32504  -1.83313   0.17946
C     0.66887  -2.75534   0.70614
H    -0.01281   4.80153  -0.99837
H     1.38281   3.67055  -0.98395
H     0.44143   3.89065   0.49524
H     0.25832   0.07058   2.07479
H    -1.02203   0.85954   3.07488
H     0.45337   1.75403   2.58732
H     3.48486   0.67946   0.76752
H     5.80034  -0.22470   0.65571
H     6.32032  -2.13452  -0.86382
H     4.51413  -3.12988  -2.26643
H     2.21007  -2.24045  -2.14367
H     0.18272  -1.56967  -1.84664
H    -0.84359   0.49609  -2.21891
H    -2.79032  -0.77076  -1.70285
H    -2.97862   0.79272  -0.90264
H    -5.52781   0.12154   1.49577
H    -4.77173   0.36354  -0.05507
H    -1.57562  -2.19484   1.78750
H     1.11659  -3.34327  -0.10860
H     0.18068  -3.44932   1.40201
H     1.48097  -2.23684   1.24217
