26
Generated by autodE on: 2022-06-22. E = -669.376110 Ha
C    -1.96842  -1.60867   1.70118
C    -2.72245  -0.54707   0.92368
O    -3.94843  -0.44147   1.03930
C    -1.93357   0.31553   0.05786
N    -0.59697   0.09798   0.02096
C     0.55263  -0.08728  -0.01050
C     1.94906  -0.31669  -0.05436
C     2.44740  -1.46579  -0.70653
C     3.82105  -1.68578  -0.73950
C     4.69340  -0.76754  -0.14234
C     4.19934   0.37520   0.49846
C     2.82819   0.60604   0.55354
C    -2.45305   1.39139  -0.77214
C    -1.44406   2.16205  -1.60178
O    -3.65299   1.68379  -0.81847
H    -1.42879  -2.28790   1.02138
H    -1.21714  -1.15104   2.36512
H    -2.68258  -2.18590   2.30240
H     1.75273  -2.16577  -1.17289
H     4.21611  -2.57356  -1.23680
H     5.77065  -0.94478  -0.17662
H     4.88745   1.08518   0.96106
H     2.42446   1.48659   1.05520
H    -0.67638   2.62533  -0.96094
H    -0.91948   1.49362  -2.30382
H    -1.96857   2.94372  -2.16620
