26
Generated by autodE on: 2022-07-27. E = -669.375355 Ha
C    -1.29866   1.79670  -2.10972
C    -2.17655   1.74889  -0.87474
O    -3.24114   2.37447  -0.83801
C    -1.70221   0.93937   0.23882
N    -0.52331   0.29461   0.07205
C     0.48822  -0.26169  -0.07062
C     1.71606  -0.94122  -0.24257
C     2.21132  -1.75605   0.79799
C     3.42093  -2.42104   0.61762
C     4.13339  -2.28260  -0.57941
C     3.63666  -1.47315  -1.60785
C     2.42973  -0.79721  -1.45160
C    -2.37932   0.75878   1.51533
C    -1.69642  -0.13368   2.53303
O    -3.45908   1.29710   1.77981
H    -1.77400   2.44101  -2.86029
H    -1.15613   0.78819  -2.53083
H    -0.29854   2.19188  -1.86822
H     1.64600  -1.85569   1.72557
H     3.81073  -3.05317   1.41794
H     5.08111  -2.80877  -0.71178
H     4.19450  -1.36733  -2.54038
H     2.03193  -0.16346  -2.24541
H    -1.56322  -1.15346   2.13685
H    -2.31111  -0.17321   3.44134
H    -0.69464   0.24991   2.78557
