59
Generated by autodE on: 2022-06-25. E = -1251.349678 Ha
C    -3.28665   4.61815  -1.81752
O    -2.68503   3.99950  -0.67060
C    -2.56288   2.66827  -0.69646
O    -2.95698   1.99412  -1.62720
C    -1.82372   2.12945   0.53988
C    -2.29490   2.86718   1.80231
C    -0.30045   2.32278   0.26324
C     0.36681   0.96038   0.54514
C     0.69186   0.86151   2.04634
C     1.62044   0.74669  -0.27302
C     2.55207  -0.19485  -0.02363
C     3.71655  -0.42330  -0.86282
C     4.61262  -1.43257  -0.74347
C     5.77650  -1.54805  -1.68803
C     4.53662  -2.51418   0.29868
C    -0.81436  -0.03927   0.16652
C    -0.97803  -0.17705  -1.36542
O    -0.40533   0.46729  -2.22050
O    -1.93111  -1.06918  -1.65900
C    -2.30467  -1.18664  -3.03813
C    -0.60394  -1.41261   0.78749
C    -1.07061  -1.71506   2.07410
C    -0.77368  -2.94313   2.67084
C     0.00446  -3.88703   1.99371
C     0.47646  -3.59470   0.71064
C     0.16936  -2.37013   0.11278
N    -1.97580   0.68087   0.68728
C    -3.30676   0.10719   0.66247
H    -3.28861   5.69523  -1.61424
H    -2.69967   4.40229  -2.72199
H    -4.31535   4.25537  -1.95514
H    -3.37197   2.72073   1.97259
H    -2.10774   3.94495   1.71586
H    -1.74737   2.48460   2.67397
H    -0.13173   2.60927  -0.78249
H     0.11404   3.11811   0.89646
H     1.39880   1.66315   2.30698
H    -0.20780   0.98310   2.66201
H     1.15409  -0.09683   2.31201
H     1.74782   1.38509  -1.15153
H     2.42567  -0.84764   0.84240
H     3.86249   0.29311  -1.68052
H     6.73275  -1.53737  -1.13444
H     5.79444  -0.73323  -2.42689
H     5.74894  -2.51029  -2.23041
H     5.43610  -2.49782   0.93959
H     3.65210  -2.44404   0.94487
H     4.52436  -3.50671  -0.18526
H    -1.44511  -1.50651  -3.64459
H    -2.68070  -0.22426  -3.41321
H    -3.09628  -1.94406  -3.07387
H    -1.66031  -0.97773   2.61788
H    -1.14931  -3.16053   3.67368
H     0.23898  -4.84595   2.46196
H     1.08632  -4.32195   0.16953
H     0.55054  -2.15871  -0.88772
H    -3.80548   0.15843  -0.31992
H    -3.26717  -0.94735   0.96375
H    -3.94161   0.63254   1.39290
