23
Generated by autodE on: 2022-06-25. E = -351.521383 Ha
C     3.66291   0.90317   0.25868
C     2.58295   0.12322   0.03249
C     2.73097  -1.31725  -0.38632
C     1.23855   0.67346   0.19390
C     0.07849  -0.00235  -0.00222
C    -1.23106   0.59202   0.17244
C    -2.43301  -0.01359  -0.00141
C    -2.60956  -1.44712  -0.41505
C    -3.71333   0.74125   0.21984
H     4.67987   0.51732   0.14552
H     3.55207   1.94867   0.56264
H     3.78955  -1.60034  -0.47166
H     2.24885  -1.99338   0.33924
H     2.24366  -1.50074  -1.35833
H     1.18527   1.72518   0.50016
H     0.12366  -1.05125  -0.30735
H    -1.23575   1.64528   0.47812
H    -1.66398  -1.97992  -0.57847
H    -3.20273  -1.50606  -1.34471
H    -3.18595  -1.99674   0.35014
H    -4.32991   0.74368  -0.69704
H    -4.32672   0.25203   0.99784
H    -3.53491   1.78375   0.52183
