59
Generated by autodE on: 2022-06-25. E = -1251.272868 Ha. Imaginary frequency = -285.0 cm-1
C     4.30053   3.33197   4.55146
O     3.05048   3.16615   3.86900
C     2.77547   4.04606   2.90280
O     3.51921   4.96165   2.60632
C     1.35414   3.94304   2.39772
C     0.43860   4.43549   3.50621
C     0.82093   1.88872   2.23942
C     0.53951   1.50335   0.91692
C    -0.80488   1.85266   0.31815
C     1.36085   0.60784   0.13948
C     2.45552  -0.08766   0.56115
C     3.26592  -0.89477  -0.31766
C     4.41202  -1.55470  -0.00177
C     5.16703  -2.33088  -1.04326
C     5.03348  -1.56072   1.36639
C     1.79560   3.92674   0.00632
C     2.97497   3.07785  -0.03587
O     3.51882   2.75262  -1.09614
O     3.47655   2.64311   1.13504
C     4.77952   2.05686   1.13166
C     1.45020   4.50319  -1.32249
C     1.02112   3.67625  -2.37513
C     0.71720   4.21565  -3.62704
C     0.84048   5.59066  -3.85154
C     1.27720   6.42242  -2.81495
C     1.58275   5.88306  -1.56395
N     1.13483   4.40993   1.12070
C    -0.14491   5.11327   0.91109
H     4.36492   2.50448   5.26747
H     5.13931   3.28602   3.84325
H     4.32298   4.29512   5.08205
H     0.72270   3.93351   4.43982
H     0.54901   5.52218   3.65882
H    -0.61857   4.21690   3.31527
H     1.68332   1.45502   2.74546
H    -0.04129   2.07264   2.88350
H    -1.36332   0.93383   0.06572
H    -0.71113   2.42673  -0.61702
H    -1.42122   2.43708   1.01438
H     1.06008   0.48347  -0.90842
H     2.74895  -0.01731   1.61111
H     2.92434  -0.94971  -1.35871
H     6.19942  -1.94972  -1.14635
H     5.26339  -3.39294  -0.75247
H     4.68139  -2.28397  -2.02925
H     6.03345  -1.09166   1.33602
H     4.43690  -1.03578   2.12314
H     5.19222  -2.59753   1.71234
H     4.90620   1.59935   2.11905
H     5.53951   2.83972   0.98197
H     4.87477   1.29638   0.34903
H     0.93086   2.60245  -2.20767
H     0.38082   3.55734  -4.43178
H     0.60204   6.01187  -4.83109
H     1.38735   7.49660  -2.98272
H     1.92871   6.53579  -0.75910
H    -0.36667   5.20202  -0.15115
H    -0.09742   6.11648   1.35588
H    -0.96244   4.55763   1.38206
