18
Generated by autodE on: 2022-06-06. E = -1453.837809 Ha
C    -1.71212   3.04152  -0.77549
O    -0.98948   1.79861  -0.84919
C    -0.58338   1.27916   0.30272
O    -0.76503   1.77682   1.39087
C     0.15221  -0.02298   0.10162
C     1.63847   0.05721   0.09232
O     2.41074  -0.87508   0.05827
O     2.01782   1.34142   0.11938
C     3.42983   1.59968   0.11486
C    -0.55243  -1.16591  -0.02179
Cl   -2.28725  -1.13699  -0.00879
Cl    0.11593  -2.73760  -0.19691
H    -2.63406   2.90747  -0.19199
H    -1.94991   3.31135  -1.81034
H    -1.08788   3.81698  -0.30960
H     3.53550   2.68982   0.14517
H     3.90354   1.14411   0.99614
H     3.88821   1.19552  -0.79905
