30
Generated by autodE on: 2022-07-27. E = -671.792378 Ha
C    -0.54723  -0.94355   2.56224
O    -0.69980  -1.10892   1.15865
C    -1.82037  -0.55923   0.59097
O    -2.76236  -0.17885   1.30885
C    -1.82588  -0.52652  -0.81807
N    -0.75229  -0.79747  -1.66890
C    -1.12186  -1.50020  -2.91335
C     0.52529  -0.52435  -1.44677
C     1.57539  -1.15240  -2.31326
C     0.94402   0.42875  -0.39971
C     2.04423   0.14311   0.42647
C     2.46117   1.05422   1.40026
C     1.80052   2.27541   1.54833
C     0.72023   2.58212   0.70901
C     0.28957   1.66705  -0.24808
H    -1.34993  -1.44975   3.12076
H    -0.54049   0.12311   2.83835
H     0.42016  -1.39176   2.82318
H    -2.77205  -0.31913  -1.31255
H    -0.56019  -1.10516  -3.76728
H    -2.19462  -1.35887  -3.08046
H    -0.91883  -2.57519  -2.80521
H     2.56784  -1.02222  -1.86708
H     1.60106  -0.67277  -3.30764
H     1.39806  -2.22695  -2.47140
H     2.56043  -0.81365   0.32863
H     3.30660   0.80496   2.04575
H     2.12653   2.99012   2.30745
H     0.21035   3.54379   0.80363
H    -0.56247   1.91082  -0.88430
