30
Generated by autodE on: 2022-06-06. E = -671.793351 Ha
C     4.30034   1.19532   0.94229
O     2.91014   0.90490   0.99245
C     2.48698  -0.18368   0.24630
O     3.32007  -0.84257  -0.40023
C     1.09225  -0.33952   0.37786
N     0.32209  -1.32740  -0.22788
C     0.96975  -2.61314  -0.56261
C    -0.98896  -1.23205  -0.40618
C    -1.77824  -2.44158  -0.80612
C    -1.70093   0.04491  -0.19047
C    -2.89234   0.06556   0.55753
C    -3.61291   1.25197   0.71765
C    -3.16751   2.43109   0.11559
C    -1.99229   2.41804  -0.64697
C    -1.26056   1.24155  -0.79231
H     4.90541   0.35705   1.32379
H     4.45411   2.07574   1.58050
H     4.63169   1.42528  -0.08336
H     0.54204   0.43104   0.90757
H     0.72860  -2.89523  -1.59426
H     2.04917  -2.50099  -0.45840
H     0.59813  -3.39023   0.11857
H    -1.66686  -3.26673  -0.08230
H    -2.84152  -2.19013  -0.88560
H    -1.45208  -2.82914  -1.78567
H    -3.25162  -0.85278   1.02659
H    -4.52833   1.25140   1.31389
H    -3.73360   3.35772   0.23524
H    -1.64494   3.33281  -1.13294
H    -0.34447   1.24354  -1.38547
