48
Generated by autodE on: 2022-06-06. E = -2125.612178 Ha. Imaginary frequency = -260.9 cm-1
C    -0.37342   1.85561   2.60643
O    -0.29823   1.26809   1.30648
C    -1.11762   1.71672   0.37082
O    -1.97101   2.56615   0.57179
C    -0.98393   1.10162  -0.97372
N     0.11738   0.88240  -1.71729
C    -0.10274   0.82778  -3.18134
C     1.37522   0.56377  -1.24069
C     2.34696  -0.00734  -2.23870
C     2.01331   1.45455  -0.23663
C     3.12665   1.02269   0.50677
C     3.77830   1.88593   1.39029
C     3.34933   3.20762   1.53407
C     2.27331   3.66512   0.76475
C     1.61945   2.80166  -0.11174
C     0.53165  -1.38109  -0.01868
Cl    1.30581  -1.25251   1.55113
Cl    1.34833  -2.65215  -0.95887
C    -0.87524  -1.24300  -0.09911
C    -1.57433  -1.69862  -1.31697
O    -1.08681  -1.78913  -2.42950
O    -2.85300  -2.05300  -1.07159
C    -3.63200  -2.45738  -2.20146
C    -1.72562  -1.13873   1.13516
O    -1.55306  -1.76859   2.15894
O    -2.74773  -0.28695   0.98529
C    -3.65395  -0.15375   2.08398
H    -1.38489   1.74417   3.02149
H    -0.10738   2.92144   2.55918
H     0.35240   1.31027   3.21966
H    -1.88852   1.26896  -1.55547
H     0.48067   1.63662  -3.64385
H    -1.16502   0.97458  -3.39264
H     0.20957  -0.13265  -3.59242
H     3.23179  -0.38105  -1.71023
H     2.68969   0.77604  -2.93774
H     1.92739  -0.83540  -2.81946
H     3.48298  -0.00105   0.40456
H     4.62992   1.51959   1.96856
H     3.85823   3.88159   2.22703
H     1.94414   4.70402   0.84179
H     0.79350   3.18775  -0.71124
H    -3.19615  -3.34757  -2.67825
H    -3.69440  -1.64498  -2.94082
H    -4.63045  -2.68907  -1.81199
H    -3.11221   0.10630   3.00419
H    -4.34137   0.65445   1.80865
H    -4.20944  -1.09069   2.23945
