47
Generated by autodE on: 2022-06-07. E = -1574.458010 Ha
C    -4.24905  -0.13082  -1.83771
N    -2.94827  -0.57369  -1.37503
C    -2.44807  -0.16523  -0.20390
O    -3.09873   0.54842   0.56707
C    -1.05471  -0.70464   0.20661
C    -1.11852  -2.28061   0.01032
C     0.08333  -2.96398   0.62259
C     1.10031  -2.72158  -0.21188
C     0.51693  -1.83590  -1.29692
O    -0.81601  -2.34239  -1.39385
C     0.20879  -0.37772  -0.69078
C    -0.01924   0.58930  -1.86779
F     1.14338   1.02832  -2.37608
F    -0.67125   0.00422  -2.88627
F    -0.72900   1.67374  -1.51369
C     1.29228   0.16561   0.32732
C     1.56729   1.62898   0.21593
N     1.89494   2.74089   0.24782
C     2.69241  -0.46170   0.00668
O     3.16322  -0.42761  -1.10655
O     3.28648  -0.97444   1.06464
C     4.58162  -1.57030   0.85842
N     0.77513  -0.18619   1.63526
C     1.37306   0.42228   2.81706
C    -0.68236  -0.26193   1.63178
C    -1.29574   1.06221   2.10957
O    -1.87862   1.19680   3.16599
O    -0.92917   2.07193   1.32502
C    -1.35893   3.38803   1.67611
H    -5.04363  -0.42645  -1.13505
H    -4.44882  -0.58811  -2.81430
H    -4.27830   0.96536  -1.94362
H    -2.38073  -1.18257  -1.95747
H    -2.10045  -2.70712   0.23533
H     0.08283  -3.50581   1.56700
H     2.13697  -3.04129  -0.13545
H     1.01935  -1.81754  -2.26691
H     4.90672  -1.92146   1.84348
H     4.49705  -2.41189   0.15637
H     5.28198  -0.82268   0.46161
H     1.17388   1.50739   2.89630
H     0.95743  -0.06870   3.70827
H     2.45724   0.27041   2.81353
H    -1.01339  -1.01166   2.36582
H    -1.03583   3.64429   2.69523
H    -0.89155   4.06256   0.94932
H    -2.45491   3.45642   1.60785
