24
Generated by autodE on: 2022-06-07. E = -721.566340 Ha
C     4.45503   1.54935   0.00945
O     3.02697   1.43552   0.00196
C     2.52446   0.18820   0.04341
O     3.22477  -0.80914   0.08743
C     1.06300   0.27814   0.02167
N     0.23594  -0.75138   0.05574
C     0.78986  -2.12781   0.13662
C    -1.14225  -0.62765   0.01603
C    -1.94628  -1.78828   0.06386
N    -2.64713  -2.72228   0.10074
C    -1.82329   0.65935  -0.07951
O    -1.29740   1.76364  -0.13555
O    -3.15910   0.49659  -0.09997
C    -3.94974   1.68783  -0.18600
H     4.88731   1.04407  -0.86688
H     4.87317   1.10727   0.92582
H     4.67265   2.62298  -0.02681
H     0.61919   1.26661  -0.03464
H     1.43074  -2.19963   1.02011
H     1.38555  -2.32116  -0.76143
H    -0.02818  -2.84601   0.20640
H    -4.99404   1.35462  -0.18657
H    -3.76139   2.34161   0.67819
H    -3.72675   2.23586  -1.11318
