47
Generated by autodE on: 2022-06-07. E = -1574.370201 Ha. Imaginary frequency = -259.3 cm-1
C    -4.63008   0.45222  -0.85321
N    -3.45748  -0.34730  -0.55426
C    -2.24190   0.22051  -0.43633
O    -2.08161   1.43730  -0.57537
C    -1.10165  -0.71553  -0.15058
C    -1.33556  -2.22417   0.24436
C    -0.22415  -2.67753   1.18348
C     0.87249  -2.73338   0.42174
C     0.40771  -2.31381  -0.96229
O    -0.93038  -2.86007  -0.98657
C     0.04303  -0.78987  -0.94698
C     0.37147  -0.11371  -2.24124
F     1.71189  -0.02599  -2.42062
F    -0.13303   1.10485  -2.42748
F    -0.08463  -0.87054  -3.27695
C     1.56828   0.65220   0.68327
C     1.15431   1.87079   0.06531
N     0.95949   2.87435  -0.48899
C     2.97447   0.31710   0.30178
O     3.65057   1.07669  -0.36694
O     3.38129  -0.88754   0.67784
C     4.69899  -1.28535   0.26842
N     0.90501   0.12028   1.75051
C     1.64232  -0.67140   2.77158
C    -0.44597   0.19451   1.90740
C    -1.19902   1.46831   1.98559
O    -0.72531   2.58602   1.96951
O    -2.48813   1.20651   2.23850
C    -3.35910   2.33798   2.35436
H    -4.52187   0.98334  -1.81221
H    -4.80531   1.20292  -0.06730
H    -5.50215  -0.21021  -0.91082
H    -3.55882  -1.35396  -0.51655
H    -2.35688  -2.48758   0.53461
H    -0.33564  -2.84247   2.25356
H     1.90242  -2.95401   0.68967
H     1.00479  -2.64413  -1.81687
H     4.84752  -2.28917   0.68159
H     4.76219  -1.30827  -0.82864
H     5.45035  -0.59002   0.66797
H     0.94517  -0.89875   3.58180
H     2.44938  -0.03705   3.16075
H     2.06544  -1.58841   2.36629
H    -0.83114  -0.51535   2.63935
H    -4.36076   1.93094   2.53277
H    -3.34463   2.92178   1.42341
H    -3.05350   2.97671   3.19569
