23
Generated by autodE on: 2022-06-18. E = -351.515956 Ha
C     2.21574  -1.91301  -1.08598
C     2.35025  -0.58958  -0.86164
C     3.68843   0.09455  -0.99510
C     1.23358   0.29322  -0.48745
C     0.02235  -0.08672  -0.01290
C    -1.03190   0.84692   0.32449
C    -2.26393   0.54835   0.80960
C    -3.25514   1.63693   1.10963
C    -2.75465  -0.84420   1.08660
H     1.24671  -2.41647  -1.02686
H     3.08115  -2.52981  -1.34398
H     3.97451   0.58688  -0.04972
H     4.48394  -0.61029  -1.27635
H     3.64226   0.89035  -1.75856
H     1.42737   1.36797  -0.59188
H    -0.17426  -1.15337   0.13393
H    -0.79512   1.90574   0.16397
H    -4.18068   1.49583   0.52289
H    -2.85355   2.63730   0.89131
H    -3.56005   1.60624   2.17117
H    -3.05475  -0.93897   2.14513
H    -2.01540  -1.62585   0.86990
H    -3.66165  -1.05432   0.49250
