24
Generated by autodE on: 2022-07-27. E = -443.816194 Ha
C     2.87702  -2.24212   1.62262
C     1.43622  -1.86100   1.66453
C     0.49922  -2.44547   2.65945
N     0.96819  -0.97911   0.79595
C    -0.29451  -0.48279   0.63724
C    -0.61952   0.48581  -0.35822
C    -1.96602   0.94585  -0.46823
C    -2.34309   1.88723  -1.41960
C    -1.40606   2.42534  -2.31608
C    -0.07650   1.99029  -2.22682
C     0.31539   1.04843  -1.27766
H     3.41584  -1.71212   0.82204
H     3.37902  -2.01704   2.58158
H     2.99932  -3.32830   1.45678
H     1.01858  -3.15059   3.32177
H    -0.33480  -2.97991   2.16394
H     0.03067  -1.65838   3.28208
H     1.66486  -0.61499   0.14396
H    -1.06060  -0.86086   1.31033
H    -2.71473   0.54052   0.21858
H    -3.38763   2.20923  -1.46588
H    -1.70481   3.16407  -3.06290
H     0.67448   2.39430  -2.91213
H     1.36708   0.74828  -1.25216
