47
Generated by autodE on: 2022-06-18. E = -795.335055 Ha. Imaginary frequency = -300.3 cm-1
C     2.20445   2.75941  -1.02926
C     2.97903   2.22133   0.14368
C     4.43151   2.61025   0.17809
C     2.44157   1.42574   1.10642
C     1.08192   0.94268   1.20343
C     0.63790   0.13701   2.21691
C    -0.67039  -0.45887   2.35068
C    -0.95483  -1.24839   3.60875
C    -1.69572  -0.14059   1.45330
C    -1.33738  -1.26165  -0.41448
C    -1.54880  -0.30693  -1.49497
C    -2.87603  -0.03604  -1.90191
C    -3.15424   0.91640  -2.88121
C    -2.11678   1.63249  -3.49152
C    -0.79711   1.37747  -3.10069
C    -0.51457   0.42836  -2.11757
N    -0.07593  -1.72275  -0.12949
C     0.23575  -2.51951   0.89552
C     1.68034  -2.75407   1.18638
C    -0.76967  -3.48574   1.42478
H     1.12033   2.61313  -0.93872
H     2.52902   2.27983  -1.97177
H     2.39418   3.84006  -1.15723
H     4.95841   2.17039   1.03861
H     4.55221   3.70873   0.22508
H     4.95278   2.28962  -0.74349
H     3.11420   1.09494   1.90926
H     0.38324   1.22897   0.41299
H     1.36634  -0.13146   2.99348
H    -0.12213  -1.91613   3.88497
H    -1.12169  -0.57820   4.47353
H    -1.86055  -1.86389   3.50586
H    -1.64531   0.78728   0.88042
H    -2.71277  -0.47797   1.67419
H    -2.13771  -1.98141  -0.25109
H    -3.69449  -0.58889  -1.43291
H    -4.19140   1.10100  -3.17328
H    -2.33353   2.37934  -4.25854
H     0.02743   1.92707  -3.56224
H     0.52892   0.26858  -1.83937
H     0.69492  -1.13732  -0.45103
H     2.31198  -1.94656   0.78714
H     2.02824  -3.71106   0.75280
H     1.84332  -2.82071   2.27386
H    -1.77269  -3.05436   1.53213
H    -0.45036  -3.87098   2.40224
H    -0.85336  -4.35408   0.74089
