33
Generated by autodE on: 2022-07-27. E = -820.210120 Ha
C     0.69855   1.86015  -1.89929
N    -0.12393   1.17237  -0.88806
C    -1.37632   1.77750  -0.62222
C    -2.06986   2.45044  -1.63895
N    -2.66893   3.02541  -2.46673
C    -1.94222   1.71217   0.65887
N    -2.42556   1.67788   1.72567
C     0.29867   0.08473  -0.25676
C     1.73278  -0.24631  -0.19420
C     2.69660   0.73160   0.11972
C     4.04237   0.38233   0.22331
C     4.44526  -0.93985   0.00790
C     3.49339  -1.91881  -0.29756
C     2.14430  -1.57978  -0.38529
C    -0.64706  -0.82518   0.41801
C    -0.33597  -1.34692   1.68534
C    -1.19659  -2.25524   2.30398
C    -2.36270  -2.66867   1.65500
C    -2.67091  -2.16473   0.38459
C    -1.82773  -1.24192  -0.22783
H     1.51438   1.21065  -2.22533
H     1.08810   2.80267  -1.49390
H     0.05504   2.08184  -2.76061
H     2.38887   1.76097   0.30838
H     4.77990   1.14583   0.47985
H     5.50105  -1.20905   0.08573
H     3.80358  -2.95262  -0.46399
H     1.40155  -2.34471  -0.61704
H     0.57823  -1.02882   2.18904
H    -0.95167  -2.64411   3.29470
H    -3.03262  -3.38531   2.13546
H    -3.57508  -2.49533  -0.13119
H    -2.07525  -0.84961  -1.21542
