39
Generated by autodE on: 2022-06-18. E = -898.807616 Ha. Imaginary frequency = -438.4 cm-1
C     0.68005   1.39241  -2.08907
N    -0.13635   0.96002  -0.94734
C    -1.06458   1.90919  -0.51291
C    -1.27313   3.07722  -1.30154
N    -1.45060   4.07472  -1.87920
C    -2.18692   1.60208   0.31495
N    -3.12402   1.48418   0.99833
C     0.18433   2.62853   1.24390
C     0.84702   1.44968   1.56597
C     0.32994   0.02014  -0.04596
C     1.60518  -0.70650  -0.37394
C     2.83300  -0.03191  -0.52794
C     4.00473  -0.72890  -0.81893
C     3.98116  -2.11969  -0.96681
C     2.77222  -2.80379  -0.82256
C     1.59919  -2.10627  -0.52541
C    -0.70555  -0.85344   0.60633
C    -0.49737  -1.42735   1.87166
C    -1.41839  -2.32732   2.40651
C    -2.55941  -2.68633   1.67970
C    -2.75904  -2.14959   0.40594
C    -1.83576  -1.24889  -0.12904
H     1.24785   0.54333  -2.47661
H     1.37043   2.20261  -1.80850
H     0.01306   1.74910  -2.88274
H     0.68805   3.40152   0.65763
H    -0.68289   2.96074   1.81727
H     0.48492   0.86679   2.41239
H     1.91277   1.36716   1.35922
H     2.87981   1.05105  -0.41888
H     4.94341  -0.18082  -0.92730
H     4.90050  -2.66512  -1.19219
H     2.73693  -3.88908  -0.94201
H     0.66506  -2.65795  -0.42206
H     0.39937  -1.17841   2.43986
H    -1.24211  -2.75487   3.39625
H    -3.28156  -3.38942   2.10112
H    -3.63522  -2.43535  -0.18072
H    -1.99434  -0.84811  -1.13126
