32
Generated by autodE on: 2022-06-17. E = -930.685986 Ha
C    -0.54530  -3.17049   0.42856
N     0.02006  -1.95353  -0.13997
C     1.22519  -1.51376   0.31611
C     1.87620  -0.40311  -0.12330
C     3.19289  -0.10997   0.46118
N     3.89353   0.91132  -0.09456
O     3.66795  -0.74907   1.42164
C     1.30369   0.38539  -1.27198
C    -0.21290   0.22495  -1.42169
C    -0.87798  -1.07018  -0.85974
C    -2.03500  -0.46087   0.04089
C    -3.26543  -1.27101   0.32600
O    -2.34876   0.75615  -0.67898
C    -1.04860   1.27937  -0.66097
C    -0.98734   2.65443  -1.15531
N    -0.91246   3.73253  -1.56975
O    -0.68047   1.25908   0.74297
C    -1.29669   0.14112   1.23897
O    -1.18113  -0.23283   2.37117
H     0.24559  -3.92377   0.54405
H    -1.00687  -2.99521   1.41498
H    -1.30821  -3.57378  -0.25158
H     1.69389  -2.14545   1.07332
H     3.58166   1.40838  -0.91873
H     4.81853   1.11267   0.26891
H     1.52361   1.46044  -1.17130
H     1.77794   0.07003  -2.21736
H    -0.49298   0.33297  -2.47622
H    -1.37052  -1.62913  -1.66668
H    -3.03920  -2.07440   1.03763
H    -3.65064  -1.71518  -0.60235
H    -4.03678  -0.62409   0.76811
