12
Generated by autodE on: 2022-06-17. E = -472.896362 Ha
C    -2.53271   1.12310   0.02129
C    -1.25457   0.39061  -0.04356
O    -0.08983   1.01489   0.29046
C     0.90096   0.17347   0.16772
C     2.23487   0.52362   0.43246
N     3.34528   0.80353   0.64849
O     0.49498  -1.00077  -0.23234
C    -0.96366  -0.93977  -0.39955
O    -1.57853  -1.91853  -0.76649
H    -3.34009   0.43935  -0.27390
H    -2.53889   1.98970  -0.66047
H    -2.73697   1.48865   1.04138
