49
Generated by autodE on: 2022-06-21. E = -1020.920084 Ha
C    -0.36070  -0.87267   2.46783
C    -0.91833  -1.38784   1.17156
O    -1.45379  -2.47920   1.09192
C    -0.88330  -0.41766  -0.04087
C    -2.29156   0.17833  -0.12943
C    -2.47663   1.56786  -0.10957
C    -3.75801   2.11393  -0.22825
C    -4.87106   1.28135  -0.36837
C    -4.69312  -0.10543  -0.38146
C    -3.41492  -0.65407  -0.25709
O     0.01702   0.65018   0.23437
N     1.27573   0.41639  -0.41226
C     2.33717   0.84161   0.39077
C     3.67510   0.63669  -0.01603
C     4.73281   1.11367   0.75709
C     4.50305   1.81933   1.94310
C     3.18190   2.04428   2.33764
C     2.10962   1.56964   1.57941
C     1.21769  -0.87481  -1.15373
C     1.99389  -0.78227  -2.47612
C     1.78759  -2.04549  -0.33762
C    -0.33262  -0.99511  -1.39795
C    -0.76826  -2.41495  -1.75513
C    -0.78271  -0.06324  -2.53783
H    -0.80789   0.10449   2.70694
H    -0.57448  -1.59588   3.26511
H     0.72432  -0.71245   2.38547
H    -1.61305   2.22369  -0.01053
H    -3.88349   3.19928  -0.21210
H    -5.87182   1.70931  -0.46295
H    -5.55479  -0.76890  -0.48620
H    -3.29288  -1.73643  -0.25387
H     3.89598   0.11198  -0.94163
H     5.75539   0.93136   0.41675
H     5.33699   2.19151   2.54176
H     2.97128   2.60039   3.25503
H     1.09136   1.76339   1.90545
H     1.64138  -1.56502  -3.16343
H     1.86697   0.19384  -2.95956
H     3.06652  -0.95738  -2.32232
H     1.78892  -2.96123  -0.94433
H     2.82772  -1.83549  -0.05473
H     1.23081  -2.25036   0.58462
H    -0.27038  -2.71746  -2.68933
H    -1.85176  -2.44273  -1.93993
H    -0.53607  -3.15424  -0.98364
H    -0.35306  -0.39446  -3.49197
H    -0.48631   0.98046  -2.36648
H    -1.87520  -0.09510  -2.64282
