31
Generated by autodE on: 2022-07-27. E = -784.879362 Ha
C     0.20834  -2.77998   1.27394
C    -0.78295  -2.28754   0.24975
O    -1.61001  -3.05015  -0.24188
C    -0.84956  -0.83763  -0.07099
O     0.22823  -0.09532  -0.05075
N     1.44753  -0.65478  -0.13500
C     2.40814   0.27725   0.18180
C     3.74856  -0.13386  -0.02468
C     4.79981   0.73679   0.24039
C     4.54791   2.03073   0.71767
C     3.22513   2.43900   0.93700
C     2.15972   1.57838   0.68679
C    -2.07360  -0.12104  -0.37923
C    -2.00189   1.17437  -0.94685
C    -3.16166   1.89559  -1.21299
C    -4.41742   1.34346  -0.93209
C    -4.50185   0.06188  -0.37600
C    -3.34820  -0.66665  -0.09779
H     0.66602  -1.97229   1.85905
H    -0.33435  -3.47452   1.93392
H     1.01277  -3.34296   0.77699
H     3.93342  -1.14121  -0.40325
H     5.82772   0.40650   0.07260
H     5.37568   2.71151   0.92709
H     3.02284   3.44124   1.32302
H     1.13673   1.89532   0.88944
H    -1.02782   1.60015  -1.19041
H    -3.08769   2.89176  -1.65487
H    -5.32658   1.90840  -1.14970
H    -5.47805  -0.37291  -0.15015
H    -3.43154  -1.65652   0.34730
