18
Generated by autodE on: 2022-06-21. E = -235.968079 Ha
C    -1.59361   0.80602  -0.83406
C    -0.67597  -0.02371   0.03155
C    -1.45001  -0.91349   0.97444
C     0.67594   0.02409  -0.03112
C     1.44986   0.90521  -0.98216
C     1.59377  -0.79796   0.84155
H    -2.23775   0.15287  -1.45013
H    -1.07543   1.49844  -1.50812
H    -2.27958   1.40008  -0.20399
H    -2.08382  -0.30538   1.64489
H    -2.14342  -1.55951   0.40665
H    -0.82566  -1.56251   1.60012
H     2.10046   1.59978  -0.42068
H     2.12705   0.29296  -1.60439
H     0.82479   1.50213  -1.65705
H     2.23419  -1.45021   0.22072
H     1.07603  -1.43205   1.57102
H     2.28337  -0.13855   1.39847
