49
Generated by autodE on: 2022-06-21. E = -1020.851808 Ha. Imaginary frequency = -219.4 cm-1
C     0.11248  -2.46721   1.91069
C    -1.00516  -1.96068   1.03002
O    -1.94921  -2.71594   0.77785
C    -1.00297  -0.57079   0.53726
C    -2.22596   0.21146   0.30735
C    -2.11950   1.60047   0.05627
C    -3.25124   2.37919  -0.17162
C    -4.52436   1.79814  -0.17163
C    -4.64534   0.42635   0.06521
C    -3.51701  -0.36006   0.30256
O     0.05447   0.22225   0.75152
N     1.28148  -0.32011   0.58481
C     2.24415   0.64958   0.82579
C     3.58319   0.19740   0.85545
C     4.62965   1.10004   1.02889
C     4.36795   2.46565   1.19552
C     3.04162   2.91678   1.19289
C     1.98435   2.02767   1.01188
C     1.09214  -0.75425  -1.67130
C     1.35997   0.65687  -2.11955
C     2.27243  -1.68713  -1.68287
C    -0.20900  -1.27149  -1.77693
C    -0.42612  -2.76009  -1.80794
C    -1.27975  -0.48164  -2.48235
H     0.56854  -1.67970   2.52409
H    -0.31299  -3.25773   2.54566
H     0.91042  -2.90533   1.29339
H    -1.13666   2.06894   0.03109
H    -3.13667   3.44920  -0.36077
H    -5.41094   2.40822  -0.35910
H    -5.63181  -0.04362   0.06667
H    -3.62863  -1.42524   0.48283
H     3.77990  -0.86998   0.75035
H     5.65888   0.73366   1.04672
H     5.18928   3.17129   1.33799
H     2.82811   3.97924   1.33471
H     0.95737   2.38977   1.01766
H     1.24251   0.73781  -3.21563
H     0.65872   1.37551  -1.66965
H     2.38276   0.97105  -1.87163
H     2.40108  -2.10577  -2.69840
H     3.20109  -1.15922  -1.42875
H     2.15209  -2.53315  -0.99385
H    -0.20388  -3.14028  -2.82321
H    -1.47109  -3.01395  -1.58566
H     0.21505  -3.31080  -1.10805
H    -1.14067  -0.58889  -3.57558
H    -1.25809   0.59084  -2.25763
H    -2.28390  -0.86021  -2.24433
