51
Generated by autodE on: 2022-06-07. E = -4005.007933 Ha
C    -2.62080  -3.55385  -0.80767
O    -2.25330  -2.31300  -0.18995
C    -1.49567  -1.47893  -0.91715
O    -1.17609  -1.69772  -2.05827
C    -1.04587  -0.30943   0.00803
C    -2.28168   0.17528   0.79353
O    -2.30848   0.40765   1.98107
O    -3.30878   0.35373  -0.02748
C    -4.52086   0.87384   0.54036
N    -0.00287  -0.77334   0.89392
C    -0.25134  -1.78424   1.90830
C     1.32909  -0.65090   0.31630
C     2.38684  -0.54921   1.43733
C     1.72079  -1.97694  -0.44370
C     3.16446  -2.28584  -0.76303
O     0.87786  -2.83578  -0.61438
C     1.19241   0.68673  -0.56553
C     1.95947   0.58725  -1.88616
F     1.71999   1.58423  -2.74769
F     3.29187   0.61388  -1.65391
F     1.69502  -0.55166  -2.55845
C     1.65298   1.93266   0.27783
C     1.57427   3.26173  -0.50016
C     0.04668   3.47047  -0.66927
C    -0.56422   2.27456   0.09989
C     0.46067   2.12429   1.23623
C    -0.38445   0.93754  -0.69193
Br   -1.21101   1.21415  -2.48319
H    -3.21353  -4.09857  -0.06389
H    -3.21906  -3.37079  -1.71174
H    -1.72007  -4.12587  -1.07203
H    -5.22622   0.96859  -0.29267
H    -4.91319   0.18051   1.29780
H    -4.33536   1.85562   0.99882
H     0.38162  -1.59171   2.78728
H    -1.29025  -1.72365   2.24392
H    -0.06187  -2.81352   1.56184
H     2.52314  -1.52709   1.91887
H     2.07902   0.16371   2.20937
H     3.35752  -0.24039   1.03370
H     3.80935  -1.41116  -0.87681
H     3.19629  -2.90584  -1.66926
H     3.55702  -2.89240   0.06995
H     2.63263   1.77608   0.73543
H     2.13046   3.27879  -1.44180
H     2.00885   4.04087   0.14275
H    -0.28821   4.39931  -0.18623
H    -0.26958   3.50982  -1.71670
H    -1.60628   2.45166   0.38676
H     0.55842   3.05047   1.82050
H     0.26208   1.28840   1.90926
