31
Generated by autodE on: 2022-06-07. E = -821.334653 Ha
C     1.29620   3.28093   0.85319
O     1.35487   1.87923   0.57791
C     0.29943   1.35461  -0.07183
O    -0.66293   2.04910  -0.38388
C     0.42703  -0.06363  -0.37835
C     1.58989  -0.91598  -0.24143
O     1.54783  -2.14181  -0.35360
O     2.75004  -0.27860   0.02073
C     3.89588  -1.10929   0.21782
N    -0.70846  -0.68004  -0.92168
C    -0.55236  -1.40746  -2.19823
C    -1.92929  -0.53864  -0.42176
C    -3.11860  -0.90011  -1.24758
C    -2.10986  -0.25693   1.03879
C    -3.41711  -0.70798   1.64117
O    -1.23643   0.23555   1.73964
H     2.22433   3.52186   1.38576
H     0.42704   3.51982   1.48387
H     1.23616   3.86451  -0.07763
H     4.12936  -1.68256  -0.69202
H     3.73783  -1.81013   1.05131
H     4.72383  -0.42934   0.45333
H     0.50997  -1.51843  -2.41865
H    -1.02132  -0.81492  -2.99609
H    -1.03274  -2.39176  -2.14257
H    -2.99044  -0.57535  -2.28890
H    -3.27982  -1.99256  -1.25985
H    -4.02593  -0.43217  -0.85004
H    -4.22252  -0.02017   1.33399
H    -3.32345  -0.67824   2.73397
H    -3.70417  -1.71745   1.31196
