20
Generated by autodE on: 2022-06-07. E = -3183.644359 Ha
F     2.24479  -1.84180   0.63889
C     1.48948  -1.12373  -0.22202
F     2.22454  -0.06998  -0.60484
F     1.32208  -1.90843  -1.31510
C     0.18398  -0.75829   0.38295
C    -0.49959   0.40118   0.37318
Br   -0.04505   2.06107  -0.39297
C    -1.88211   0.14515   0.94382
C    -2.62798  -0.69650  -0.14323
C    -1.85840  -2.04732  -0.12709
C    -0.76246  -1.80842   0.96027
C    -1.54053  -0.94865   1.97703
H    -2.41804   1.03591   1.29036
H    -2.61133  -0.19899  -1.12317
H    -3.67918  -0.82556   0.15204
H    -2.51093  -2.87833   0.17806
H    -1.41255  -2.30288  -1.09773
H    -0.27054  -2.71588   1.33048
H    -2.43242  -1.45314   2.37738
H    -0.91238  -0.58040   2.80070
