51
Generated by autodE on: 2022-06-07. E = -4004.936273 Ha. Imaginary frequency = -242.6 cm-1
C    -2.49953  -4.02639  -1.11144
O    -2.05128  -2.96727  -0.25737
C    -1.56205  -1.87312  -0.87796
O    -1.57150  -1.73183  -2.07302
C    -1.18943  -0.87704   0.21946
C    -2.37560  -0.22433   0.80163
O    -2.42123   0.43870   1.82585
O    -3.42848  -0.35731  -0.02289
C    -4.59133   0.42188   0.27147
N    -0.09801  -1.13033   1.03026
C    -0.28525  -1.17055   2.50444
C     1.18986  -1.24799   0.56893
C     2.30285  -0.99806   1.54781
C     1.51377  -2.19887  -0.52654
C     2.95829  -2.41356  -0.90098
O     0.64845  -2.91607  -1.01882
C     0.99641   0.85129  -0.88450
C     1.69636   0.53835  -2.16787
F     3.03346   0.43149  -1.98870
F     1.54480   1.51568  -3.10156
F     1.27819  -0.59456  -2.76175
C     1.66030   1.83921   0.08259
C     1.55561   3.25665  -0.56402
C     0.02791   3.53772  -0.51986
C    -0.55103   2.26698   0.18261
C     0.58321   1.97381   1.17253
C    -0.38776   1.11934  -0.81673
Br   -1.54698   1.27177  -2.34376
H    -3.32102  -3.68270  -1.75730
H    -1.67054  -4.38839  -1.73712
H    -2.85013  -4.82566  -0.44770
H    -4.98596   0.17433   1.26728
H    -5.32679   0.16839  -0.50075
H    -4.35504   1.49531   0.22677
H     0.41040  -1.91423   2.90727
H    -0.11126  -0.20755   2.99781
H    -1.30353  -1.50214   2.71719
H     2.07590  -0.18488   2.24465
H     2.53842  -1.90151   2.13786
H     3.21210  -0.72605   0.99985
H     2.99337  -2.91652  -1.87578
H     3.40885  -3.08336  -0.14866
H     3.55189  -1.49508  -0.92683
H     2.67049   1.56221   0.40362
H     1.97375   3.29475  -1.57718
H     2.11393   3.97373   0.05607
H    -0.41206   3.69645  -1.51263
H    -0.20327   4.41775   0.09754
H    -1.55916   2.39411   0.58852
H     0.77756   2.82134   1.84518
H     0.42242   1.08231   1.77255
