42
Generated by autodE on: 2022-06-20. E = -1127.814199 Ha
C     3.40726  -2.65163  -0.66818
N     2.40940  -1.62473  -0.45268
C     2.63136  -0.31952  -0.63167
O     3.69413   0.18888  -1.00351
C     1.42416   0.59591  -0.35186
C     1.91502   1.69326   0.60435
O     2.08860   2.85180   0.29956
O     2.14841   1.19144   1.81367
C     2.60047   2.11096   2.82096
C     0.83604   1.16378  -1.65986
C    -0.41027   0.30624  -1.87578
C    -0.84731   0.00733  -0.43084
C    -1.56967   1.23261   0.16501
O    -1.09100   1.94710   1.01966
O    -2.76302   1.42099  -0.38701
C    -3.52342   2.55302   0.06914
C    -1.69094  -1.23757  -0.23069
C    -1.57378  -1.97082   0.95871
C    -2.35948  -3.10786   1.16478
C    -3.27465  -3.51623   0.18995
C    -3.40000  -2.78128  -0.99312
C    -2.61247  -1.64651  -1.20375
O     0.38142  -0.14521   0.27901
H     3.64560  -3.17282   0.27223
H     3.04920  -3.39514  -1.39636
H     4.32067  -2.18468  -1.05561
H     1.48242  -1.87972  -0.12054
H     1.84202   2.88885   2.98960
H     3.54714   2.57871   2.51527
H     2.74459   1.51627   3.72997
H     0.57534   2.21979  -1.51200
H     1.55380   1.10503  -2.48689
H    -0.16200  -0.64463  -2.36744
H    -1.18751   0.81472  -2.45828
H    -3.72953   2.46372   1.14513
H    -2.97266   3.48419  -0.12544
H    -4.45882   2.53640  -0.50111
H    -0.86285  -1.65050   1.72123
H    -2.25634  -3.67532   2.09269
H    -3.88906  -4.40504   0.35156
H    -4.11248  -3.09410  -1.75997
H    -2.72016  -1.07928  -2.12953
