36
Generated by autodE on: 2022-07-27. E = -1049.077466 Ha
C     5.08553  -1.17505   0.58197
N     3.92479  -0.31934   0.47181
C     2.68828  -0.83299   0.29018
O     2.48285  -2.06131   0.25126
C     1.58452   0.13160   0.16201
O     0.40527  -0.51218  -0.01301
C    -0.83737  -0.19007   0.04376
C    -1.23628   1.11937   0.67519
O    -0.79032   1.43927   1.75574
O    -2.14574   1.78440  -0.01225
C    -2.63011   3.00929   0.57417
C    -1.78199  -1.23601  -0.28101
C    -1.29896  -2.49807  -0.70838
C    -2.18850  -3.52105  -1.00838
C    -3.57061  -3.31195  -0.89427
C    -4.05752  -2.07120  -0.47039
C    -3.17735  -1.03663  -0.16352
C     1.74140   1.53698  -0.10437
O     2.78145   2.17398   0.07349
O     0.64342   2.09782  -0.64699
C     0.68690   3.49730  -0.94468
H     5.96466  -0.55445   0.79592
H     4.96622  -1.90788   1.39583
H     5.27300  -1.73888  -0.34779
H     4.01995   0.69398   0.45360
H    -3.15635   2.79105   1.51389
H    -1.79197   3.69256   0.76562
H    -3.31839   3.43874  -0.16134
H    -0.22329  -2.65786  -0.78706
H    -1.80716  -4.49047  -1.33578
H    -4.26624  -4.11860  -1.13567
H    -5.13294  -1.90761  -0.37651
H    -3.57057  -0.07595   0.16559
H     1.48050   3.71221  -1.67447
H    -0.29340   3.74257  -1.36887
H     0.86243   4.07978  -0.02887
