49
Generated by autodE on: 2022-06-20. E = -1017.089488 Ha
C     5.41808  -0.39799   0.25259
C     4.30938  -0.18152  -0.48362
C     4.37922   0.35905  -1.88714
C     2.99220  -0.48034   0.08818
C     1.81325  -0.31265  -0.53785
C     0.49929  -0.65079   0.08634
C    -0.23683  -1.90483  -0.50632
C     0.03935  -3.13506   0.36014
C     0.15150  -2.18172  -1.96309
N    -1.66620  -1.47258  -0.40387
C    -2.72985  -2.07852  -0.99794
C    -4.03817  -1.32462  -0.98404
O    -2.62959  -3.19553  -1.51815
N    -1.84295  -0.26213   0.30242
C    -2.10875  -0.48339   1.73212
C    -0.58594   0.46968   0.01963
C    -0.69777   0.97820  -1.36775
N    -0.78120   1.38338  -2.45141
C    -0.38398   1.66447   0.94912
C     0.59858   1.67870   1.94577
C     0.71415   2.77741   2.80361
C    -0.14862   3.86783   2.67540
C    -1.13041   3.85986   1.67868
C    -1.24354   2.76692   0.81954
H     6.41600  -0.18822  -0.14255
H     5.35240  -0.79178   1.27146
H     3.82066   1.30578  -1.97489
H     3.92275  -0.34276  -2.60487
H     5.41916   0.54028  -2.19295
H     2.99288  -0.87215   1.11201
H     1.78829   0.07864  -1.55812
H     0.65729  -0.85083   1.15243
H    -0.49497  -4.01170  -0.03228
H     1.11853  -3.35452   0.35775
H    -0.27884  -2.96321   1.39859
H     1.22517  -2.40985  -2.01626
H    -0.40508  -3.04290  -2.34879
H    -0.05216  -1.31843  -2.61083
H    -3.90802  -0.31194  -1.39148
H    -4.75993  -1.88691  -1.58983
H    -4.43102  -1.22160   0.03843
H    -2.95931  -1.17172   1.81375
H    -1.25562  -0.90993   2.28611
H    -2.39428   0.46881   2.19619
H     1.28218   0.84055   2.06767
H     1.48644   2.77603   3.57609
H    -0.05578   4.72392   3.34763
H    -1.80944   4.70830   1.56851
H    -2.01147   2.76780   0.04278
