26
Generated by autodE on: 2022-07-27. E = -665.521848 Ha
C    -2.92239  -2.20928  -2.41365
C    -1.91633  -1.29552  -1.76239
O    -0.95607  -0.84723  -2.40863
N    -2.21114  -1.00738  -0.46014
N    -1.35687  -0.20307   0.19542
C    -2.03626   0.82055   1.00445
C    -0.03655  -0.32264   0.18337
C     0.52479  -1.53347  -0.32827
N     1.05289  -2.51397  -0.66331
C     0.90445   0.66783   0.73305
C     2.02204   0.22501   1.46705
C     2.93750   1.14627   1.97190
C     2.76083   2.51370   1.73493
C     1.66656   2.95786   0.98513
C     0.74174   2.04421   0.48260
H    -2.40857  -3.13718  -2.71367
H    -3.75718  -2.45242  -1.74479
H    -3.30220  -1.73590  -3.33248
H    -1.38440   1.17833   1.80662
H    -2.93028   0.34020   1.41767
H    -2.34230   1.65188   0.35528
H     2.16305  -0.84194   1.65049
H     3.79377   0.79530   2.55150
H     3.48267   3.23375   2.12673
H     1.53701   4.02275   0.78107
H    -0.09143   2.39639  -0.12647
