23
Generated by autodE on: 2022-06-16. E = -351.521383 Ha
C    -3.63734  -0.94070  -0.42789
C    -2.57390  -0.13492  -0.21433
C    -2.74642   1.34327   0.02492
C    -1.22361  -0.69417  -0.21205
C    -0.07843   0.00402  -0.00717
C     1.23737  -0.60206  -0.01371
C     2.42605   0.02193   0.18454
C     2.57947   1.49249   0.45104
C     3.71489  -0.74968   0.14712
H    -3.50849  -2.01359  -0.60115
H    -4.65845  -0.54933  -0.43458
H    -2.33335   1.63842   1.00382
H    -3.80707   1.63008  -0.00299
H    -2.20769   1.93423  -0.73439
H    -1.15237  -1.77362  -0.39229
H    -0.14120   1.08058   0.17309
H     1.25939  -1.68276  -0.19942
H     1.62806   2.03904   0.47856
H     3.21944   1.95536  -0.32097
H     3.09682   1.65429   1.41321
H     4.38856  -0.34896  -0.63167
H     4.26004  -0.64776   1.10276
H     3.55383  -1.81988  -0.04928
