30
Generated by autodE on: 2022-06-16. E = -555.680498 Ha. Imaginary frequency = -484.7 cm-1
C    -3.14715  -3.06519   0.51895
C    -3.42485  -1.58831   0.48096
C    -4.83204  -1.20135   0.84197
C    -2.50527  -0.64644   0.15116
C    -1.11983  -0.85804  -0.21825
C    -0.26960   0.15415  -0.53022
C     1.12850   0.01724  -0.91923
C     1.72494  -1.36531  -1.04793
C     1.77105   1.11469  -1.50500
N     2.91170   1.99238  -0.05381
C     2.95474   3.44752  -0.03600
N     2.53825   1.36799   0.97514
N     1.94460   0.40751   1.26704
H    -3.81461  -3.60117  -0.17954
H    -2.11083  -3.32445   0.26558
H    -3.36605  -3.47247   1.52223
H    -5.08824  -1.54813   1.85972
H    -4.98804  -0.11311   0.79816
H    -5.56018  -1.68393   0.16470
H    -2.83381   0.40052   0.16185
H    -0.74922  -1.88656  -0.24548
H    -0.65490   1.18102  -0.50172
H     1.56604  -1.96971  -0.14233
H     1.26313  -1.91594  -1.88721
H     2.80740  -1.31122  -1.23507
H     2.63335   0.94761  -2.15311
H     1.19255   2.01956  -1.71047
H     3.22229   3.77271  -1.04936
H     1.98210   3.88930   0.23809
H     3.72808   3.81358   0.65667
