44
Generated by autodE on: 2022-06-21. E = -1163.088506 Ha
C     0.24660   3.99808  -1.50895
C    -0.46478   3.21869  -0.44854
O    -1.33571   3.67821   0.26464
C    -0.08117   1.75408  -0.31240
N     1.29779   1.40845  -0.50251
C     1.16850   0.01091  -0.04142
C     2.47422  -0.73635   0.01753
C     3.17692  -0.95298  -1.17915
C     4.40579  -1.61413  -1.17352
C     4.95379  -2.06744   0.03107
C     4.26681  -1.84530   1.22670
C     3.03607  -1.18167   1.22252
C     0.34148   0.18294   1.24672
O     0.24369  -0.50411   2.23297
O    -0.40541   1.29436   1.05316
C     0.07222  -0.49950  -1.08015
C    -0.80569   0.77773  -1.27508
C    -2.31467   0.65440  -1.01806
C    -2.69465  -0.51604  -0.14901
C    -3.99955  -0.60781   0.51999
N    -4.86418   0.41814   0.31199
O    -4.32659  -1.56638   1.24978
C    -1.86460  -1.58978  -0.06004
N    -0.63825  -1.68382  -0.64253
C     0.15809  -2.88370  -0.42492
H     0.23381   3.44861  -2.46303
H    -0.22055   4.98413  -1.62470
H     1.30492   4.11868  -1.22341
H     1.90721   1.93956   0.12656
H     2.76372  -0.59789  -2.12476
H     4.93781  -1.77536  -2.11396
H     5.91417  -2.58820   0.03663
H     4.68870  -2.18913   2.17397
H     2.50898  -1.02217   2.16150
H     0.60790  -0.73156  -2.00842
H    -0.64156   1.15748  -2.28949
H    -2.82509   0.57098  -1.99336
H    -2.66562   1.59956  -0.57591
H    -4.65886   1.19410  -0.30370
H    -5.77747   0.37610   0.75033
H    -2.18908  -2.47632   0.48824
H     0.88567  -2.99781  -1.24045
H    -0.49997  -3.76280  -0.41878
H     0.71015  -2.84996   0.52873
