24
Generated by autodE on: 2022-06-21. E = -705.349393 Ha
C     4.52379   0.05695   0.35301
C     3.21808   0.13186   1.08665
O     3.11552   0.26206   2.30683
C     2.00406   0.04390   0.28956
N     0.76387   0.09137   0.76217
C    -0.15970  -0.02376  -0.23618
C    -1.59929  -0.01265  -0.05438
C    -2.18072   0.08912   1.22827
C    -3.56618   0.09869   1.37899
C    -4.40319   0.00715   0.26109
C    -3.83713  -0.09457  -1.01387
C    -2.45235  -0.10508  -1.17603
C     0.59407  -0.15439  -1.44961
O     0.31414  -0.28687  -2.62848
O     1.95376  -0.10304  -1.03930
H     4.58786  -0.88511  -0.21519
H     5.35144   0.12026   1.07043
H     4.59535   0.88013  -0.37663
H     0.57695   0.19983   1.76077
H    -1.55389   0.15905   2.11985
H    -3.99572   0.17756   2.38036
H    -5.48846   0.01476   0.38411
H    -4.48030  -0.16606  -1.89418
H    -2.01781  -0.18417  -2.17198
