44
Generated by autodE on: 2022-06-21. E = -1163.051242 Ha. Imaginary frequency = -470.4 cm-1
C     0.16160   3.86645  -1.62315
C    -0.50168   3.12081  -0.50282
O    -1.46985   3.54442   0.11012
C     0.03217   1.76435  -0.19086
N     1.36435   1.46740  -0.37195
C     1.60253   0.28211   0.29861
C     2.81231  -0.51009   0.16559
C     3.71160  -0.28974  -0.90013
C     4.86363  -1.06591  -1.03111
C     5.14485  -2.07947  -0.10961
C     4.26025  -2.30638   0.95181
C     3.10960  -1.53375   1.09277
C     0.55294   0.15457   1.26804
O     0.31028  -0.64278   2.16433
O    -0.32176   1.22716   1.02640
C    -0.27990  -0.71047  -1.19844
C    -0.94361   0.52260  -1.40340
C    -2.42033   0.63006  -1.03130
C    -2.88495  -0.51777  -0.16076
C    -4.21940  -0.51416   0.46921
N    -4.99940   0.56421   0.21355
O    -4.62762  -1.43719   1.19950
C    -2.10480  -1.60960   0.03518
N    -0.86340  -1.76350  -0.53364
C    -0.06132  -2.93990  -0.21540
H     0.22095   3.23571  -2.52493
H    -0.40525   4.78004  -1.84101
H     1.19336   4.13080  -1.33916
H     1.83475   1.71360  -1.23843
H     3.51604   0.48942  -1.64002
H     5.54541  -0.87778  -1.86385
H     6.04581  -2.68763  -0.21674
H     4.47105  -3.09248   1.68086
H     2.42827  -1.71067   1.92409
H     0.62561  -0.95604  -1.75070
H    -0.66188   1.02690  -2.33118
H    -3.02674   0.67582  -1.95584
H    -2.60916   1.58553  -0.51543
H    -4.70092   1.33040  -0.37650
H    -5.92257   0.60527   0.63160
H    -2.45250  -2.44334   0.64517
H     0.67174  -3.10968  -1.01500
H    -0.71430  -3.81921  -0.14046
H     0.47325  -2.80503   0.73514
