53
Generated by autodE on: 2022-06-06. E = -1741.316598 Ha
C     1.73592   0.34580   7.31590
C     1.01194  -0.50996   6.32488
O     1.57168  -1.25573   5.54098
C    -0.53190  -0.40902   6.32666
O    -0.97683   0.94320   6.42728
N    -1.42677   1.36176   5.11552
C    -0.67840   2.50476   4.66275
C     0.68208   2.40921   4.34128
C     1.37565   3.54746   3.93174
C     0.71174   4.77658   3.83266
C    -0.64582   4.86715   4.15191
C    -1.34137   3.73127   4.57528
C    -1.55882   0.18972   4.34301
C    -1.15313  -0.89706   5.03841
C    -1.25262  -2.38422   4.71950
C    -0.45849  -2.70300   3.51166
N     0.18332  -2.98147   2.58733
C    -0.60629  -3.17190   5.79383
N    -0.16125  -3.83177   6.63587
C    -2.74308  -2.95491   4.63340
C    -3.86588  -1.95611   4.37094
C    -4.00152  -1.44874   2.93653
C    -2.73890  -0.88658   2.28492
C    -2.08737   0.35558   2.92760
Cl   -0.54056   0.61651   1.90355
C    -3.01893   1.55894   2.79251
C    -4.05036   1.71648   3.73296
C    -4.96085   2.76860   3.62182
C    -4.85654   3.68269   2.56904
C    -3.84204   3.52372   1.62262
C    -2.93461   2.46598   1.73018
H     1.32528   0.17974   8.32503
H     1.56092   1.40565   7.07153
H     2.81145   0.12822   7.29470
H    -0.89759  -0.93721   7.22490
H     1.18716   1.44427   4.39320
H     2.43573   3.47441   3.67875
H     1.25627   5.66493   3.50424
H    -1.16693   5.82376   4.07360
H    -2.40133   3.78246   4.82562
H    -2.93424  -3.42295   5.60722
H    -2.74147  -3.76123   3.88556
H    -4.80073  -2.47644   4.63409
H    -3.78593  -1.12057   5.08159
H    -4.81281  -0.70626   2.89456
H    -4.32099  -2.28839   2.29734
H    -1.98549  -1.67518   2.18730
H    -2.98032  -0.58714   1.25496
H    -4.13556   1.02880   4.57358
H    -5.74995   2.87752   4.36930
H    -5.56182   4.51304   2.48814
H    -3.74757   4.22919   0.79386
H    -2.14030   2.36262   0.99213
