21
Generated by autodE on: 2022-07-27. E = -553.688889 Ha
C     0.63525  -0.11946   2.10553
C    -0.06024  -1.41064   1.77880
O     0.39848  -2.50355   2.12225
C    -1.38794  -1.40010   1.17056
O    -2.03645  -0.39240   0.64143
N    -1.60345   0.72998   0.06460
C    -0.38428   0.74657  -0.59659
C     0.35125  -0.36132  -1.08724
C     1.41392  -0.15598  -1.96222
C     1.81961   1.13710  -2.31813
C     1.12448   2.23836  -1.80556
C     0.03131   2.04892  -0.96671
H     1.19605  -0.26115   3.03996
H    -0.06045   0.72636   2.19827
H     1.35234   0.12918   1.30521
H    -2.04832  -2.25083   1.35602
H     0.09921  -1.38370  -0.80659
H     1.95317  -1.02296  -2.35075
H     2.67820   1.28212  -2.97691
H     1.43075   3.25314  -2.06954
H    -0.54165   2.89929  -0.59254
