32
Generated by autodE on: 2022-06-06. E = -1187.478535 Ha
N    -4.95528  -0.72743  -0.16621
C    -3.93596  -0.36032  -0.57625
C    -2.64098   0.14697  -1.07231
C    -2.49796  -0.23461  -2.49495
N    -2.36392  -0.49698  -3.61537
C    -1.49924  -0.36609  -0.30425
C    -0.41274  -0.29669   0.22258
C     0.82918   0.25941   0.73275
Cl    0.53365   0.59337   2.55367
C     2.04950  -0.63031   0.61106
C     3.28958  -0.19117   1.10133
C     4.42600  -0.98590   0.95402
C     4.33923  -2.22906   0.31544
C     3.10746  -2.67170  -0.17051
C     1.96659  -1.87601  -0.02248
C     1.00123   1.62552   0.01683
C    -0.23660   2.53962  -0.04643
C    -1.23409   2.36197  -1.22505
C    -2.60319   1.72185  -0.93492
H     3.36295   0.76837   1.61627
H     5.38489  -0.63497   1.34222
H     5.23036  -2.85073   0.20209
H     3.02790  -3.64161  -0.66674
H     1.00671  -2.22792  -0.40553
H     1.34905   1.39297  -1.00322
H     1.82538   2.15035   0.52106
H    -0.77239   2.49587   0.91563
H     0.15732   3.56453  -0.11516
H    -0.74578   1.84016  -2.06543
H    -1.46704   3.36710  -1.60662
H    -2.92876   1.94727   0.09115
H    -3.36783   2.11096  -1.62272
