53
Generated by autodE on: 2022-06-06. E = -1741.169683 Ha. Imaginary frequency = -189.7 cm-1
C     1.41868   1.27231   7.54552
C     0.48354   0.15462   7.16288
O     0.79004  -1.02436   7.31825
C    -0.89869   0.46676   6.75055
O    -1.38600   1.62592   6.35813
N    -1.04308   2.48704   5.41173
C     0.21485   2.52771   4.79840
C     1.13374   1.48862   4.51732
C     2.22850   1.73042   3.69315
C     2.46298   3.00181   3.15540
C     1.57398   4.04262   3.44183
C     0.46251   3.80500   4.24277
C    -1.86095   0.37236   3.85728
C    -1.41472  -0.51461   4.57769
C    -1.23289  -1.98576   4.72017
C     0.19745  -2.34052   4.61913
N     1.31117  -2.61669   4.45900
C    -1.76625  -2.47557   6.00903
N    -2.24589  -2.87529   6.98475
C    -2.01238  -2.68740   3.53982
C    -3.45131  -2.16097   3.37319
C    -3.73127  -1.33324   2.10252
C    -2.77861  -0.19855   1.69766
C    -2.58751   0.94289   2.73080
Cl   -1.47504   2.19692   1.90091
C    -3.88611   1.62811   3.11710
C    -4.33462   1.63450   4.44377
C    -5.56078   2.22200   4.77283
C    -6.34787   2.80923   3.78062
C    -5.90245   2.80768   2.45311
C    -4.68148   2.22026   2.12315
H     1.72362   1.09952   8.58996
H     0.97108   2.26906   7.45915
H     2.32428   1.22342   6.92121
H    -1.67094  -0.09730   7.28129
H     0.99837   0.48039   4.89073
H     2.91284   0.90803   3.47323
H     3.33473   3.17770   2.52156
H     1.74174   5.04052   3.03078
H    -0.26045   4.59676   4.44391
H    -1.99278  -3.76773   3.73976
H    -1.41394  -2.51250   2.63487
H    -4.13243  -3.02463   3.34807
H    -3.74680  -1.58622   4.26406
H    -4.75353  -0.93020   2.18479
H    -3.74610  -2.02102   1.24059
H    -1.77877  -0.59317   1.46478
H    -3.16286   0.25353   0.77144
H    -3.72619   1.18087   5.22671
H    -5.89713   2.21975   5.81215
H    -7.30451   3.26984   4.03784
H    -6.50966   3.26840   1.67051
H    -4.33631   2.23536   1.08786
