34
Generated by autodE on: 2022-06-18. E = -907.935792 Ha
C    -0.21979   3.16160  -0.88481
N     0.29414   1.87727  -0.43951
C     1.47773   1.75951   0.21118
C     2.03354   0.58744   0.63368
C     3.31809   0.66465   1.34385
N     3.82313  -0.50213   1.81954
O     3.93664   1.73446   1.51822
C     1.31227  -0.71841   0.41650
C     0.29166  -0.59618  -0.72345
C    -0.50963   0.71709  -0.71040
C    -1.69823   0.44962   0.30698
C    -1.51475   1.11727   1.67301
C    -2.96163   0.93018  -0.28844
N    -3.96316   1.29880  -0.74499
N    -1.71535  -1.02117   0.43084
C    -0.86609  -1.62751  -0.58643
C    -0.39710  -2.95499  -0.14180
N    -0.03234  -3.99580   0.21253
C    -1.55219  -1.80520  -1.89488
N    -2.13004  -1.89729  -2.89598
H    -1.20318   3.37429  -0.43423
H    -0.33686   3.17692  -1.98139
H     0.47702   3.95630  -0.59080
H     2.01058   2.69639   0.38379
H     4.69817  -0.47549   2.33118
H     3.33642  -1.38568   1.74064
H     2.01784  -1.51995   0.15061
H     0.80666  -1.04029   1.34312
H     0.79618  -0.71296  -1.69033
H    -0.95596   0.84784  -1.70641
H    -0.55963   0.80488   2.11407
H    -1.52742   2.21165   1.57943
H    -2.33156   0.81256   2.34290
H    -2.64583  -1.43235   0.48242
