14
Generated by autodE on: 2022-06-18. E = -450.170014 Ha
C    -1.79998   1.20974   0.39221
C    -1.37754  -0.17120   0.02262
C    -2.35571  -1.18104  -0.18556
N    -3.18782  -1.98072  -0.34816
N    -0.11787  -0.54054  -0.13375
C     1.06295   0.14518  -0.01557
C     1.17019   1.50561   0.34675
N     1.35655   2.62021   0.64039
C     2.25648  -0.56596  -0.27304
N     3.25455  -1.13522  -0.48177
H    -1.38526   1.49343   1.37255
H    -1.44500   1.93691  -0.35498
H    -2.89369   1.26386   0.44468
H     0.01915  -1.52260  -0.39439
