38
Generated by autodE on: 2022-05-30. E = -1064.223047 Ha
C    -3.24025   2.53059   0.88534
N    -2.68484   1.20106   0.71634
C    -1.87714   0.89183  -0.30663
O    -1.65143   1.64046  -1.26360
C    -1.19547  -0.47614  -0.23100
C    -0.48946  -0.79620  -1.52798
C    -1.21753  -0.88213  -2.76681
N    -1.82581  -0.96565  -3.75204
N     0.76472  -1.03289  -1.48171
C     1.26200  -0.85040  -0.11917
C     2.32094   0.23129  -0.08290
C     3.53067   0.00100   0.58229
C     4.49493   1.01005   0.66277
C     4.25531   2.25516   0.07462
C     3.04694   2.48954  -0.59120
C     2.08256   1.48340  -0.66951
C     0.00787  -0.56867   0.78776
C     0.15843   0.61340   1.62610
N     0.27131   1.52855   2.33068
C    -0.50526  -1.76588   1.71194
C    -0.44393  -3.04257   0.89895
C    -1.45994  -2.95866   0.03072
C    -2.13379  -1.63354   0.32422
O    -1.90789  -1.47508   1.73076
H    -2.48868   3.22673   1.29461
H    -4.09112   2.48102   1.57639
H    -3.58509   2.91956  -0.08163
H    -2.70785   0.55887   1.50590
H     1.72888  -1.79322   0.19717
H     3.71500  -0.97329   1.04160
H     5.43590   0.82127   1.18478
H     5.00886   3.04393   0.13556
H     2.85362   3.46221  -1.04950
H     1.13308   1.67793  -1.17338
H    -0.07425  -1.76453   2.71727
H     0.32958  -3.80463   0.98178
H    -1.72674  -3.62874  -0.78566
H    -3.18925  -1.51971   0.06177
