17
Generated by autodE on: 2022-05-30. E = -456.186956 Ha
N     4.46712   0.00551   1.02870
C     3.54611  -0.16197   0.32712
C     2.55978  -0.26003  -0.66893
N     1.44705  -0.77978  -0.55968
C     0.24531  -1.20464  -0.57547
C    -0.90452  -0.36767  -0.24208
C    -2.18975  -0.93941  -0.29604
C    -3.31331  -0.16984   0.00564
C    -3.16828   1.17495   0.36288
C    -1.89158   1.74901   0.41857
C    -0.76415   0.98631   0.12108
H     0.08573  -2.25391  -0.85022
H    -2.29803  -1.98942  -0.57777
H    -4.30718  -0.62092  -0.03863
H    -4.04879   1.77640   0.60002
H    -1.77602   2.79844   0.69897
H     0.23004   1.43611   0.17107
