57
Generated by autodE on: 2022-06-13. E = -2029.137691 Ha
C     1.52834  -3.87586  -0.94435
O     1.30042  -3.63107   0.45225
C     1.17682  -2.37598   0.85282
O     1.26305  -1.41647   0.11946
C     0.76251  -2.33708   2.33883
C    -0.74120  -2.79706   2.30198
C    -1.55255  -2.42956   1.09201
O    -1.25291  -3.33403   3.25790
C     0.56736  -0.87213   2.90334
C     1.60732  -0.28700   3.85574
C     2.86964   0.22150   3.17082
C     3.58006  -0.78543   2.27024
C     4.08270  -2.12001   2.89302
C     4.80021  -2.87722   1.72486
F     3.94776  -3.07632   0.71036
F     5.83774  -2.18414   1.24445
F     5.25850  -4.08123   2.08415
C     5.15103  -1.72212   3.95806
F     6.03022  -0.84255   3.47677
F     5.86137  -2.77463   4.40633
F     4.56833  -1.16277   5.02644
C     3.00790  -3.06635   3.48351
C     1.68501  -3.20424   3.20924
C     1.11903  -4.40809   4.01536
C     0.29213  -3.93188   5.15126
N    -0.19617  -3.58483   6.14423
C     0.50142  -5.53599   3.19657
C     1.26954  -6.05642   2.14680
C     0.79206  -7.13475   1.40154
C    -0.44614  -7.70756   1.71165
C    -1.19845  -7.20483   2.77702
C    -0.72567  -6.12122   3.52127
O     2.27565  -4.99742   4.62450
C     3.36611  -4.11156   4.59506
C     4.53543  -5.00966   4.42975
N     5.36255  -5.81786   4.39506
C     3.46869  -3.48046   5.94548
N     3.46633  -3.06863   7.02765
H     1.64893  -4.96081  -1.03836
H     2.43375  -3.35537  -1.28238
H     0.66171  -3.53335  -1.52761
H    -2.61564  -2.55157   1.33183
H    -1.29398  -3.10697   0.26225
H    -1.34845  -1.40342   0.75790
H    -0.38977  -0.86599   3.44136
H     0.44491  -0.21589   2.03039
H     1.84256  -1.00040   4.66017
H     1.12538   0.56772   4.35561
H     2.59455   1.06099   2.51184
H     3.55804   0.63714   3.91945
H     2.94579  -1.01804   1.41647
H     4.46327  -0.30065   1.83634
H     2.24163  -5.61955   1.91439
H     1.39135  -7.53096   0.57889
H    -0.82060  -8.55143   1.12767
H    -2.15901  -7.65692   3.03346
H    -1.31822  -5.73141   4.34950
