20
Generated by autodE on: 2022-07-27. E = -661.819426 Ha
N    -1.31715   1.43302   2.32640
C    -0.83446   0.87886   1.42504
C    -0.31638   0.18565   0.28913
O     0.95925   0.08850   0.09453
C     2.05370   0.50337   0.75708
C     3.27220   0.16180   0.14248
N     4.29557  -0.11044  -0.35087
C     2.01380   1.21638   1.96656
N     2.04016   1.80836   2.97403
C    -1.19772  -0.42999  -0.67633
C    -0.66388  -1.09086  -1.80723
C    -1.51904  -1.68347  -2.72717
C    -2.90787  -1.63044  -2.53868
C    -3.44204  -0.97850  -1.42152
C    -2.59802  -0.37880  -0.49223
H     0.41617  -1.13098  -1.95152
H    -1.10501  -2.19216  -3.59993
H    -3.57385  -2.09962  -3.26600
H    -4.52281  -0.93828  -1.27385
H    -3.01960   0.12728   0.37791
