36
Generated by autodE on: 2022-06-18. E = -957.817342 Ha
C    -4.08597  -1.94113   1.10461
O    -2.81305  -1.39553   0.71068
C    -2.57654  -0.13673   1.04821
O    -3.33739   0.57964   1.66313
C    -1.25133   0.35956   0.54238
O    -0.37496  -0.65566   0.04894
C     0.71802   0.19276  -0.22530
C     1.96354  -0.53512  -0.60880
C     1.89570  -1.85090  -1.08069
C     3.06230  -2.50537  -1.48568
C     4.29467  -1.84912  -1.42108
C     4.36049  -0.53304  -0.95049
C     3.19771   0.12599  -0.54749
O     0.90057   0.88736   1.06739
C    -0.33785   1.02285   1.58356
O    -0.59122   1.58564   2.61450
C     0.13410   1.25538  -1.19590
C     0.22207   0.84587  -2.65862
C    -1.32845   1.35416  -0.66764
C    -1.82497   2.75341  -0.34712
H    -4.09616  -2.97248   0.73559
H    -4.18364  -1.92374   2.19909
H    -4.90256  -1.36215   0.65088
H     0.93269  -2.36060  -1.12903
H     3.00649  -3.53303  -1.85167
H     5.20549  -2.36300  -1.73707
H     5.32179  -0.01713  -0.89738
H     3.24677   1.15322  -0.18115
H     0.66977   2.20102  -1.03203
H    -0.33027   1.56500  -3.28282
H    -0.21853  -0.15099  -2.81560
H     1.26556   0.82263  -3.00594
H    -2.00221   0.87151  -1.39106
H    -1.84774   3.35762  -1.26666
H    -2.84244   2.72742   0.06977
H    -1.16899   3.26455   0.37466
