24
Generated by autodE on: 2022-06-18. E = -800.464890 Ha
C     4.27491   1.57326  -0.84128
O     2.94966   1.09177  -0.58621
C     2.85344  -0.16561  -0.11603
O     3.81796  -0.88893   0.09449
C     1.49384  -0.56867   0.11355
O     0.42865   0.30483  -0.14051
C    -0.68012  -0.30487   0.15281
C    -1.97116   0.31731   0.00570
C    -2.06361   1.64176  -0.46862
C    -3.31611   2.23080  -0.60574
C    -4.47102   1.51040  -0.27463
C    -4.37847   0.19506   0.19627
C    -3.13247  -0.40775   0.33913
O    -0.49220  -1.51100   0.58361
C     0.99449  -1.78130   0.59007
O     1.38568  -2.85777   0.96100
H     4.15696   2.59820  -1.21224
H     4.77561   0.95282  -1.59906
H     4.87402   1.57259   0.08119
H    -1.15776   2.19370  -0.72325
H    -3.39615   3.25596  -0.97195
H    -5.45160   1.97872  -0.38498
H    -5.28255  -0.36055   0.45214
H    -3.04703  -1.43191   0.70463
