36
Generated by autodE on: 2022-06-18. E = -957.752448 Ha. Imaginary frequency = -402.2 cm-1
C    -4.24602  -1.85319   0.62230
O    -2.87631  -1.43928   0.52156
C    -2.53089  -0.35010   1.22432
O    -3.30175   0.28612   1.92748
C    -1.15048   0.02623   1.02221
O    -0.29398  -0.72974   0.26372
C     0.77169   0.05688   0.04525
C     2.00215  -0.52191  -0.49118
C     1.99678  -1.81840  -1.03165
C     3.16954  -2.34481  -1.57229
C     4.34301  -1.58312  -1.58419
C     4.34502  -0.28946  -1.04969
C     3.17883   0.24508  -0.50442
O     0.86154   0.97545   1.04123
C    -0.40343   1.04987   1.67115
O    -0.63304   1.87764   2.52563
C    -0.08402   1.21355  -1.51247
C    -0.12423   0.23074  -2.65705
C    -1.27373   1.62651  -0.91675
C    -1.48151   2.95442  -0.27195
H    -4.33958  -2.74062  -0.01414
H    -4.49907  -2.10413   1.66260
H    -4.91667  -1.05801   0.26555
H     1.07975  -2.40864  -1.01963
H     3.16757  -3.35530  -1.98627
H     5.25864  -1.99853  -2.01099
H     5.26055   0.30569  -1.05826
H     3.17300   1.25450  -0.09022
H     0.73667   1.94072  -1.51402
H    -0.49636   0.72634  -3.56936
H    -0.80362  -0.60639  -2.43262
H     0.86927  -0.17733  -2.88833
H    -2.17832   1.05791  -1.15609
H    -1.88444   3.65357  -1.02843
H    -2.21741   2.90565   0.54382
H    -0.54197   3.38315   0.10673
