31
Generated by autodE on: 2022-06-17. E = -784.235996 Ha
C     2.99291  -0.39721  -1.07104
C     2.09109  -0.62785   0.10145
O     2.42770  -1.23164   1.10521
C     0.71466   0.00833   0.07655
N     0.22788   0.63765  -1.15714
C    -0.96671   1.19825  -0.57936
C    -1.70400   2.21424  -1.40065
O    -0.45362   1.89859   0.65631
C     0.57831   1.16586   1.09343
O     1.20813   1.40054   2.09524
C    -1.72572  -0.06648  -0.05706
C    -2.68913   0.24005   1.08848
C    -2.49619  -0.72697  -1.20800
C    -0.48118  -0.92053   0.43064
C    -0.37328  -2.26951  -0.22632
O     0.53948  -2.61448  -0.94691
H     3.15322   0.68708  -1.19984
H     2.51564  -0.76660  -1.99065
H     3.95540  -0.89942  -0.91089
H     0.85766   1.37956  -1.47283
H    -1.05195   3.07831  -1.59453
H    -2.00516   1.77695  -2.36123
H    -2.60199   2.55935  -0.86971
H    -3.18038  -0.68902   1.41485
H    -3.47365   0.93830   0.75775
H    -2.17731   0.67867   1.95568
H    -1.84573  -0.95119  -2.06489
H    -2.96463  -1.66278  -0.87151
H    -3.30345  -0.06391  -1.55127
H    -0.54503  -1.10727   1.51339
H    -1.20479  -2.96974   0.01241
