17
Generated by autodE on: 2022-06-17. E = -513.540226 Ha
C    -2.89206   0.03710  -0.08806
C    -1.66416   0.71790   0.46522
O    -1.73987   1.71783   1.19620
C    -0.39128   0.16421   0.10953
N     0.81054   0.72706   0.56395
C     1.83684   0.05687   0.10769
C     3.26821   0.30710   0.34463
O     1.42109  -0.95210  -0.64609
C    -0.03981  -0.94333  -0.68981
O    -0.61607  -1.79689  -1.33559
H    -2.91526  -1.02441   0.20461
H    -3.79023   0.54638   0.28533
H    -2.88253   0.06309  -1.18961
H     0.85813   1.54715   1.16841
H     3.72630  -0.57999   0.80970
H     3.39886   1.17766   0.99936
H     3.77724   0.48497  -0.61586
