31
Generated by autodE on: 2022-06-17. E = -784.193312 Ha. Imaginary frequency = -459.3 cm-1
C     2.83578  -0.77923  -1.39492
C     2.37612  -0.38673  -0.02169
O     2.99720  -0.66455   0.99819
C     1.10728   0.35508   0.07953
N     0.35411   0.80273  -0.95029
C    -0.83688   1.28947  -0.43968
C    -1.62654   2.27221  -1.24201
O    -0.53740   1.68716   0.86262
C     0.59633   1.00799   1.28260
O     0.98570   1.05292   2.42647
C    -1.87958  -0.33419  -0.09018
C    -2.98620   0.16169   0.83297
C    -2.39253  -0.72318  -1.47080
C    -0.91386  -1.16170   0.56283
C    -0.07894  -2.15730  -0.05842
O    -0.02280  -2.42509  -1.26608
H     2.89521   0.10054  -2.05550
H     2.10176  -1.47533  -1.83547
H     3.81597  -1.26749  -1.32901
H     0.41714   0.44111  -1.90204
H    -1.09974   3.23871  -1.24251
H    -1.71986   1.91863  -2.27669
H    -2.62682   2.41880  -0.81800
H    -3.71159  -0.65447   0.98395
H    -3.53691   1.00715   0.39764
H    -2.59734   0.45945   1.81598
H    -1.59342  -0.79898  -2.21640
H    -2.88311  -1.70829  -1.41568
H    -3.14202   0.00219  -1.81711
H    -0.86377  -1.13642   1.65390
H     0.56338  -2.71935   0.65888
