52
Generated by autodE on: 2022-10-22. E = -1557.050517 Ha
C    -3.92276  -1.50664   2.19788
N    -2.72602  -1.28845   1.41173
C    -2.74390  -1.28363   0.07043
O    -3.74540  -1.56206  -0.59624
C    -1.43108  -0.89376  -0.62316
N    -0.25649  -1.27900   0.13987
C    -0.01169  -2.71708   0.17296
C     0.87721  -0.41626  -0.15878
C     1.65257  -0.93591  -1.41159
O     1.01399  -1.43366  -2.34352
N     2.98559  -0.83309  -1.42162
C     3.76451  -1.22649  -2.57804
C     1.77188  -0.25267   1.09595
O     2.90150   0.26424   1.03870
N     1.22924  -0.64808   2.24646
C     1.88257  -0.44237   3.52297
C     0.21872   0.97951  -0.55265
O     0.85628   1.57028  -1.64750
C     2.03119   2.34371  -1.40108
C     0.02102   1.93450   0.69963
C    -0.55507   3.24922   0.20883
C    -1.83123   2.98505  -0.08860
C    -2.01985   1.51072   0.22196
O    -1.11588   1.31864   1.31684
C    -1.29038   0.63831  -0.87738
C    -1.78284   0.96838  -2.28977
F    -1.59664   2.24405  -2.65742
F    -3.11585   0.74667  -2.35730
F    -1.21508   0.20969  -3.23911
H    -4.46190  -2.39286   1.83357
H    -3.64142  -1.66734   3.24627
H    -4.60879  -0.64373   2.14358
H    -1.88550  -0.93825   1.86068
H    -1.46093  -1.41266  -1.59417
H    -0.81911  -3.21627   0.72777
H     0.93223  -2.92369   0.69506
H     0.04626  -3.16031  -0.83617
H     3.41819  -0.36082  -0.62638
H     3.58285  -2.28096  -2.83723
H     4.82974  -1.09583  -2.35101
H     3.51117  -0.61441  -3.45946
H     0.27694  -0.99839   2.19561
H     1.32818  -0.98494   4.29834
H     1.91287   0.62745   3.78878
H     2.91638  -0.81584   3.49164
H     2.57373   2.39979  -2.35436
H     1.77329   3.36615  -1.08195
H     2.67656   1.88063  -0.64365
H     0.87184   1.99352   1.38277
H     0.00103   4.17660   0.08159
H    -2.58572   3.63514  -0.52832
H    -3.03401   1.18352   0.46691
