32
Generated by autodE on: 2022-10-26. E = -797.673077 Ha
C    -5.04408  -0.67990  -0.57807
N    -3.69087  -0.17098  -0.65076
C    -2.72492  -0.62696   0.17696
O    -2.94818  -1.48679   1.04099
C    -1.41669   0.01895  -0.06252
N    -0.29577  -0.24695   0.57049
C    -0.27135  -1.14831   1.74811
C     0.92391   0.16538   0.02139
C     1.09048  -0.01392  -1.43014
O     0.17440  -0.42768  -2.17567
N     2.32158   0.25362  -1.92965
C     2.64844  -0.01791  -3.30997
C     1.96122   0.70774   0.88889
O     3.16883   0.79122   0.55209
N     1.57882   1.18914   2.10409
C     2.54007   1.73997   3.03644
H    -5.07890  -1.75944  -0.79833
H    -5.46862  -0.52924   0.42708
H    -5.66381  -0.14857  -1.30991
H    -3.45613   0.51126  -1.36500
H    -1.35974   0.77326  -0.84318
H     0.75342  -1.20723   2.11861
H    -0.94881  -0.77948   2.52580
H    -0.60451  -2.14205   1.42813
H     3.04758   0.45463  -1.23864
H     2.70013  -1.09952  -3.53054
H     1.89718   0.41970  -3.98514
H     3.62606   0.42619  -3.53998
H     0.59461   1.28539   2.32177
H     3.36284   1.03191   3.21901
H     2.03278   1.94199   3.98853
H     2.98395   2.68129   2.66894
