52
Generated by autodE on: 2022-10-22. E = -1556.965560 Ha. Imaginary frequency = -218.2 cm-1
C    -4.79266  -2.35170  -0.25933
N    -3.37660  -2.23249  -0.54180
C    -2.51737  -1.73695   0.37183
O    -2.84271  -1.52159   1.54781
C    -1.17330  -1.40650  -0.18297
N    -0.03899  -1.61389   0.50458
C    -0.10056  -2.23568   1.84534
C     1.18012  -1.19892  -0.05811
C     1.41441  -1.50038  -1.49844
O     0.51501  -1.90481  -2.26859
N     2.65790  -1.29933  -1.98020
C     2.93755  -1.38764  -3.39401
C     2.30216  -0.80620   0.81900
O     3.49624  -0.77402   0.42864
N     2.02708  -0.40121   2.08517
C     3.06789   0.17992   2.90908
C     0.19489   1.18114  -0.61723
O     0.77472   1.38293  -1.80079
C     2.11580   1.89717  -1.80202
C     0.58576   1.91370   0.68724
C    -0.14296   3.26905   0.64281
C    -1.43614   2.97269   0.81535
C    -1.48679   1.43727   0.94177
O    -0.23793   1.18982   1.61266
C    -1.15467   0.83723  -0.44952
C    -2.13755   0.99767  -1.55275
F    -2.21728   2.27824  -2.00190
F    -3.39102   0.67478  -1.15801
F    -1.85483   0.24571  -2.63626
H    -5.27319  -2.92295  -1.06307
H    -4.94979  -2.87498   0.69400
H    -5.27271  -1.36012  -0.19040
H    -3.07613  -2.25523  -1.51154
H    -1.06321  -1.42111  -1.26002
H     0.88712  -2.62877   2.09492
H    -0.43322  -1.53141   2.61603
H    -0.80873  -3.07078   1.80951
H     3.36847  -1.03320  -1.29434
H     2.86579  -2.42180  -3.77288
H     2.23156  -0.77382  -3.97701
H     3.95689  -1.02331  -3.57731
H     1.07123  -0.12373   2.28982
H     3.90280  -0.52354   3.04072
H     3.47621   1.10752   2.47010
H     2.64567   0.41313   3.89516
H     2.48259   1.80052  -2.83048
H     2.75258   1.31744  -1.12283
H     2.11382   2.95778  -1.50735
H     1.63856   1.91692   0.97812
H     0.33672   4.22831   0.45360
H    -2.30465   3.63006   0.81065
H    -2.32888   0.98835   1.47569
