37
Generated by autodE on: 2022-06-15. E = -5898.596771 Ha
C     3.25879   3.12901   2.15177
N     2.29165   2.10472   1.80597
C     2.63353   0.81091   1.70602
O     3.78826   0.40874   1.86269
C     1.46817  -0.17200   1.42642
C     0.80632  -0.50661   2.77507
C     1.60578  -0.98264   3.82664
C     1.03532  -1.31669   5.05600
C    -0.34331  -1.18169   5.25351
C    -1.14364  -0.70818   4.21167
C    -0.57224  -0.37156   2.97973
C     0.51369   0.35876   0.45900
C    -0.24859   0.39835  -0.48360
C    -0.96400  -0.14063  -1.60368
Br   -0.10900   0.49381  -3.29969
Br   -2.86048   0.47328  -1.61611
C    -0.92030  -1.67714  -1.53306
C     0.46994  -2.29219  -1.26962
C     0.95084  -2.44348   0.20165
C     2.01765  -1.46541   0.73464
H     3.61971   3.01022   3.18667
H     2.78468   4.11296   2.05338
H     4.12943   3.08437   1.48059
H     1.31588   2.36417   1.70028
H     2.68279  -1.08685   3.68394
H     1.67215  -1.68408   5.86423
H    -0.78978  -1.44417   6.21543
H    -2.22149  -0.59829   4.35310
H    -1.20779  -0.00413   2.17272
H    -1.60730  -1.97292  -0.72423
H    -1.33982  -2.06756  -2.47162
H     0.41809  -3.30442  -1.69828
H     1.23065  -1.76165  -1.86571
H     1.39771  -3.44588   0.28193
H     0.08217  -2.45830   0.88129
H     2.64967  -1.97579   1.47418
H     2.68126  -1.15364  -0.08643
