25
Generated by autodE on: 2022-07-27. E = -688.483398 Ha
C     2.51464  -0.80554   2.17594
O     1.75412  -0.56974   0.99130
C     0.41058  -0.39605   1.15572
O    -0.11774  -0.51691   2.25989
C    -0.25355  -0.09191  -0.07262
O     0.51352  -0.02119  -1.26680
C     1.43684   0.83224  -1.48586
C     1.75582   1.91667  -0.54720
C     2.16214   0.66881  -2.75805
C    -1.65049  -0.15338  -0.37693
O    -2.11944  -0.02683  -1.50941
O    -2.44357  -0.34641   0.70695
C    -3.84863  -0.38936   0.45654
H     3.56090  -0.88113   1.85496
H     2.20609  -1.74221   2.66410
H     2.40238   0.02411   2.89008
H     2.51127   1.54954   0.16894
H     0.86431   2.19719   0.03510
H     2.18184   2.76877  -1.09228
H     2.07973   1.60382  -3.33702
H     3.23518   0.53711  -2.53416
H     1.78223  -0.18444  -3.33187
H    -4.20111   0.54994   0.00372
H    -4.32564  -0.53192   1.43430
H    -4.10925  -1.22597  -0.20964
