25
Generated by autodE on: 2022-06-15. E = -688.483769 Ha
C    -1.04260   3.36780   0.33626
O    -0.52149   2.05329   0.53120
C    -0.87949   1.11468  -0.39144
O    -1.66497   1.37691  -1.30165
C    -0.26628  -0.15209  -0.15068
O     0.58412  -0.30432   0.97639
C     1.69035   0.31448   1.13218
C     2.26014   1.19125   0.10062
C     2.36857   0.08619   2.41933
C    -0.64437  -1.37872  -0.77850
O    -1.45146  -1.50607  -1.69814
O     0.01931  -2.45175  -0.25750
C    -0.30180  -3.72229  -0.82217
H    -0.62486   3.98275   1.14292
H    -0.73656   3.77395  -0.63957
H    -2.14133   3.37036   0.39657
H     1.86112   2.20999   0.24866
H     3.35213   1.22941   0.20287
H     1.94489   0.86150  -0.90163
H     1.80272  -0.60274   3.05715
H     3.38390  -0.29743   2.22381
H     2.49832   1.06053   2.92228
H     0.31569  -4.45682  -0.29002
H    -1.36720  -3.96261  -0.68383
H    -0.06827  -3.74963  -1.89759
