62
Generated by autodE on: 2022-06-15. E = -6587.062325 Ha. Imaginary frequency = -150.6 cm-1
C    -4.81813   1.34680   5.27200
N    -4.09889   2.02101   4.20682
C    -4.33721   1.73022   2.92005
O    -5.19686   0.91368   2.58692
C    -3.54916   2.51896   1.83193
C    -4.64871   3.07599   0.89321
C    -5.16991   4.36488   1.05908
C    -6.18281   4.83742   0.21648
C    -6.69469   4.02606  -0.79762
C    -6.19082   2.73101  -0.95859
C    -5.17924   2.26095  -0.12047
C    -2.63073   3.62739   2.42687
C    -1.54260   4.25250   1.53483
C    -1.83848   4.81008   0.13059
C    -2.12176   3.86220  -1.05686
C    -1.39319   2.51347  -1.05240
Br   -1.82500   1.56951  -2.76821
Br    0.59058   2.86209  -1.05938
C    -1.82835   1.69757   0.06908
C    -2.64935   1.68307   0.99389
C    -2.55706  -0.96430   1.62391
C    -2.15451  -1.24375   2.99733
O    -2.83838  -1.05151   3.99256
O    -0.92690  -1.79831   3.06915
C    -0.37462  -1.96929   4.37797
C    -3.88064  -1.29509   1.10496
O    -4.19524  -1.17918  -0.07446
O    -4.72137  -1.77977   2.03159
C    -6.07714  -1.97262   1.62411
O    -1.64101  -1.04187   0.60484
C    -0.51734  -0.41209   0.46538
C     0.22749   0.23738   1.57243
C     0.18075  -0.75705  -0.79879
H    -5.90401   1.49947   5.17217
H    -4.48804   1.75566   6.23467
H    -4.61905   0.26538   5.25313
H    -3.39084   2.70008   4.45442
H    -4.79531   5.02192   1.84295
H    -6.56889   5.84962   0.35833
H    -7.48134   4.39849  -1.45801
H    -6.58252   2.08243  -1.74580
H    -4.78736   1.25436  -0.26756
H    -2.07555   3.17967   3.26391
H    -3.26797   4.40848   2.86200
H    -0.70300   3.54702   1.46373
H    -1.14688   5.09889   2.11952
H    -0.95538   5.40990  -0.13892
H    -2.68193   5.51725   0.17455
H    -1.87632   4.38765  -1.99112
H    -3.19003   3.61202  -1.10509
H    -0.31922  -1.00494   4.90469
H    -0.98186  -2.67045   4.96853
H     0.63289  -2.37636   4.23175
H    -6.62104  -2.28676   2.52312
H    -6.14744  -2.75226   0.85111
H    -6.50204  -1.03576   1.23701
H     0.88699  -0.51813   2.03321
H     0.86184   1.02958   1.15559
H    -0.42587   0.65080   2.34783
H     0.74974   0.09763  -1.18380
H     0.90813  -1.55906  -0.57359
H    -0.52856  -1.12230  -1.55076
