36
Generated by autodE on: 2022-06-17. E = -692.458031 Ha
C    -1.86796  -1.31948  -2.44500
C    -1.43930  -1.72998  -1.24403
C    -0.99840  -3.13945  -0.96773
C    -1.28520  -0.78641  -0.06232
C    -2.06004   0.50983  -0.17815
C    -3.54280   0.58911  -0.10580
N    -1.31608   1.54716  -0.32913
N     0.00691   1.15198  -0.29798
C     1.03804   2.00178  -0.54352
C     0.67981   3.43216  -0.85773
O     2.20468   1.59337  -0.51126
C     0.17854  -0.27360   0.08238
C     0.72622  -0.40656   1.47226
C     1.91829  -0.91961   1.82505
C     2.33127  -0.98011   3.27102
C     2.94212  -1.44770   0.85793
H    -1.92587  -2.01306  -3.28899
H    -2.16822  -0.28450  -2.63110
H    -1.04660  -3.76981  -1.86725
H    -1.62513  -3.59466  -0.18155
H     0.03726  -3.15228  -0.58487
H    -1.58842  -1.32193   0.85144
H    -3.88554   0.26813   0.89280
H    -3.89224   1.61390  -0.29034
H    -4.00533  -0.09280  -0.83607
H     0.11337   3.88307  -0.02947
H     1.60733   3.99395  -1.02407
H     0.04568   3.48805  -1.75496
H     0.83708  -0.74946  -0.65193
H     0.06239  -0.02975   2.25973
H     3.27127  -0.42250   3.42904
H     2.53493  -2.02144   3.57659
H     1.56296  -0.56435   3.93934
H     3.24308  -2.47088   1.14056
H     2.60036  -1.46505  -0.18418
H     3.85551  -0.82952   0.90524
