23
Generated by autodE on: 2022-06-17. E = -351.521384 Ha
C    -3.67110   0.89259   0.15630
C    -2.58347   0.09585   0.06664
C    -2.71608  -1.40037  -0.05925
C    -1.24513   0.68269   0.09016
C    -0.07841  -0.00469   0.00562
C     1.22439   0.62830   0.03254
C     2.43235   0.01593  -0.05352
C     2.62381  -1.46716  -0.19803
C     3.70419   0.81484  -0.00939
H    -4.68400   0.48065   0.14069
H    -3.57092   1.97856   0.24766
H    -3.77130  -1.70770  -0.06492
H    -2.20967  -1.91565   0.77384
H    -2.24413  -1.76444  -0.98698
H    -1.20281   1.77452   0.18440
H    -0.11242  -1.09343  -0.08874
H     1.21799   1.72036   0.13364
H     1.68388  -2.03289  -0.23230
H     3.19289  -1.69058  -1.11777
H     3.23020  -1.85749   0.63840
H     4.29999   0.65303  -0.92574
H     4.34294   0.48771   0.83075
H     3.51489   1.89314   0.09681
