22
Generated by autodE on: 2022-06-07. E = -608.198777 Ha
C     3.66189   0.37100   1.43982
C     2.50378  -0.37589   0.86148
O     2.50807  -1.57800   0.62043
N     1.38236   0.44354   0.61227
N     0.42054  -0.25161   0.10662
C    -0.80195   0.08695  -0.28078
C    -1.54406  -1.10491  -0.81281
C    -2.94525  -0.97875  -1.32200
O    -0.96237  -2.18761  -0.81977
C    -1.35138   1.46343  -0.19447
C    -0.48979   2.58240   0.31626
O    -2.50836   1.67256  -0.54381
H     3.96017   1.17822   0.75180
H     4.50534  -0.30726   1.61556
H     3.35706   0.85121   2.38342
H     0.61419  -1.27513  -0.03418
H    -2.99442  -0.24140  -2.13646
H    -3.61014  -0.61079  -0.52705
H    -3.27777  -1.96366  -1.67431
H    -1.07294   3.51144   0.27713
H    -0.16108   2.37891   1.34633
H     0.42665   2.67603  -0.28511
