24
Generated by autodE on: 2022-06-20. E = -721.566336 Ha
C     4.14230   2.07689  -0.87881
O     2.75263   1.76751  -0.72045
C     2.46023   0.53537  -0.26674
O     3.31315  -0.29289   0.00478
C     1.00375   0.40896  -0.18057
N     0.35574  -0.65882   0.24975
C     1.12842  -1.84475   0.70252
C    -1.02471  -0.74559   0.30775
C    -1.62805  -1.94157   0.75703
N    -2.16795  -2.91206   1.11975
C    -1.90707   0.34930  -0.08160
O    -1.56768   1.45119  -0.49359
O    -3.19914   0.00423   0.06905
C    -4.17280   0.99613  -0.27706
H     4.60916   1.39568  -1.60550
H     4.18217   3.10856  -1.24669
H     4.66827   1.99600   0.08391
H     0.40454   1.25656  -0.49637
H     1.69699  -2.24115  -0.14502
H     0.44253  -2.60280   1.08284
H     1.82019  -1.53436   1.49098
H    -4.07983   1.27871  -1.33590
H    -4.05503   1.89138   0.35097
H    -5.14951   0.53310  -0.09438
