24
Generated by autodE on: 2022-07-27. E = -721.563663 Ha
C    -1.73625  -4.25390  -1.80768
O    -0.87566  -3.14416  -1.52319
C    -1.37037  -2.19190  -0.71345
O    -2.49174  -2.25146  -0.23571
C    -0.34225  -1.15838  -0.55404
N    -0.40629  -0.04707   0.16037
C    -1.63054   0.28587   0.92646
C     0.65911   0.83130   0.22160
C     1.83665   0.48784  -0.47929
N     2.79823   0.17919  -1.06539
C     0.64082   2.09481   0.95403
O    -0.27987   2.57985   1.59206
O     1.83724   2.70860   0.83463
C     1.97592   3.97348   1.49075
H    -2.00364  -4.78225  -0.88077
H    -2.65358  -3.91194  -2.30908
H    -1.16582  -4.91499  -2.47010
H     0.58303  -1.34410  -1.09605
H    -1.35695   0.42103   1.97695
H    -2.03801   1.22534   0.54050
H    -2.34437  -0.52744   0.80721
H     3.00099   4.30540   1.28832
H     1.25652   4.70154   1.08786
H     1.81952   3.86908   2.57443
