47
Generated by autodE on: 2022-06-20. E = -1073.080338 Ha. Imaginary frequency = -403.9 cm-1
C     4.82653   2.12239  -0.07667
C     4.05053   1.06294  -0.40334
C     4.35404   0.19474  -1.59626
C     2.87519   0.76823   0.39957
C     2.01648  -0.27392   0.19637
C     0.83619  -0.45500   0.97462
C    -0.02339  -1.59264   0.93183
C     0.51848  -2.87771   0.32559
C    -0.86397  -1.79702   2.17929
C    -1.38232  -1.02285  -0.49770
C    -2.37136  -2.13044  -0.60383
O    -3.35052  -2.29466   0.09958
O    -1.99729  -2.99254  -1.55564
C    -2.77978  -4.18883  -1.68510
N    -1.78748   0.24304  -0.16072
C    -3.04000   0.52771   0.54756
C    -0.78965   1.20580  -0.23988
C     0.00814   1.26381  -1.40592
N     0.67074   1.29395  -2.36799
C    -0.58819   2.20416   0.79557
O    -1.16693   2.26263   1.87360
O     0.40766   3.05191   0.45642
C     0.85023   3.96261   1.46654
H     5.71061   2.38526  -0.66388
H     4.58840   2.75042   0.78708
H     4.49166  -0.85793  -1.29958
H     5.26387   0.53125  -2.11252
H     3.51558   0.21759  -2.31178
H     2.66572   1.45907   1.22347
H     2.20758  -0.97525  -0.61887
H     0.67912   0.25246   1.79137
H     0.89723  -2.73815  -0.69658
H     1.34985  -3.25549   0.94385
H    -0.25434  -3.65877   0.29868
H    -1.22817  -0.83868   2.57673
H    -0.24491  -2.26949   2.96203
H    -1.72461  -2.45588   1.99997
H    -0.64464  -1.05349  -1.30043
H    -2.76825  -4.75625  -0.74329
H    -3.81732  -3.94162  -1.95134
H    -2.30975  -4.77058  -2.48596
H    -3.86925   0.05024   0.01347
H    -3.19671   1.60959   0.55061
H    -3.02539   0.15878   1.58126
H     0.05057   4.67035   1.73052
H     1.16685   3.41957   2.36908
H     1.70192   4.50084   1.03417
