17
Generated by autodE on: 2022-06-17. E = -638.762886 Ha
C     3.64613  -1.54593   0.34753
N     2.28914  -1.06359   0.18134
C     1.88058   0.13528   0.61958
O     2.57090   0.97050   1.21073
C     0.45017   0.47204   0.35881
C    -0.04743   1.71777   0.81406
N    -0.43100   2.74815   1.19780
O    -0.27563  -0.39113  -0.27559
C    -1.53253  -0.45532  -0.67679
C    -1.88312  -1.63861  -1.36398
N    -2.19542  -2.60594  -1.93411
C    -2.47778   0.56677  -0.44615
N    -3.29544   1.38099  -0.27955
H     3.65380  -2.49042   0.91244
H     4.22694  -0.79618   0.89641
H     4.11977  -1.72013  -0.63097
H     1.61796  -1.66342  -0.29060
