12
Generated by autodE on: 2022-06-17. E = -381.636093 Ha
O     2.47597   0.99034  -0.01720
C     1.33711   0.53462  -0.00877
C     1.09537  -0.92822   0.02575
C    -0.15312  -1.42707   0.03412
C    -1.33711  -0.53462   0.00893
O    -2.47597  -0.99034   0.01713
C    -1.09537   0.92822  -0.02577
C     0.15312   1.42707  -0.03414
H     1.98216  -1.56614   0.04378
H    -0.35537  -2.50043   0.05994
H    -1.98216   1.56614  -0.04390
H     0.35537   2.50042  -0.06006
