29
Generated by autodE on: 2022-06-17. E = -1020.400640 Ha. Imaginary frequency = -293.9 cm-1
C     3.70550   1.20536  -0.97704
N     2.93444   0.61801   0.10435
C     1.89597  -0.18951  -0.15120
O     1.59114  -0.61584  -1.26498
C     1.06851  -0.58447   1.03256
C     1.59728  -0.48293   2.35467
N     2.03627  -0.34256   3.42263
O     0.12274  -1.49758   0.93686
C    -0.86104  -1.67706   0.06756
C    -0.79097  -1.61007  -1.35636
N    -0.98208  -1.62378  -2.50477
C    -1.92377  -2.47986   0.58474
N    -2.81804  -3.10223   0.99123
C    -1.69897   0.57107   0.56391
C    -2.26753   0.80819  -0.78752
O    -3.35737   0.34815  -1.10575
C    -1.46166   1.61619  -1.73030
C    -0.33570   2.23833  -1.33623
C     0.14136   2.16505   0.06386
O     1.07516   2.85702   0.45416
C    -0.55573   1.22639   0.97921
H     3.96917   0.43395  -1.71244
H     4.62359   1.63837  -0.56265
H     3.13181   1.99702  -1.48663
H     3.00920   1.04600   1.02396
H    -2.36276   0.09411   1.28648
H    -1.84143   1.68870  -2.75173
H     0.25836   2.85236  -2.01682
H    -0.31740   1.32190   2.03899
