47
Generated by autodE on: 2022-06-21. E = -1056.860977 Ha
C     2.40469   3.15475  -0.63685
O     1.47442   2.10210  -0.94894
C     0.47470   1.90412  -0.10373
O     0.21081   2.60470   0.84548
C    -0.33814   0.63448  -0.43354
C    -0.12315   0.22079  -1.83111
N    -0.00042  -0.11586  -2.93386
O    -1.70826   0.94020  -0.26964
C    -2.29445   0.22400   0.83306
C    -3.25851  -0.84526   0.35094
C    -3.92871  -1.63757   1.29539
C    -4.82761  -2.62456   0.88576
C    -5.07302  -2.83028  -0.47667
C    -4.41619  -2.03752  -1.42138
C    -3.51667  -1.04797  -1.01023
C    -1.09913  -0.27502   1.64619
C     0.02446  -0.51786   0.61764
C    -0.08114  -1.91135  -0.02462
C     1.39346  -0.33227   1.24211
C     2.54565  -0.27264   0.54791
C     3.84345  -0.01857   1.14855
C     4.98873   0.27778   0.48794
C     5.09493   0.40559  -1.00577
C     6.26535   0.53657   1.23710
H     1.88654   4.12312  -0.60931
H     2.87881   2.95473   0.33413
H     3.15165   3.14080  -1.43777
H    -2.86503   0.96578   1.41354
H    -3.74332  -1.48151   2.36141
H    -5.33877  -3.23630   1.63318
H    -5.77420  -3.60387  -0.79861
H    -4.60259  -2.18838  -2.48760
H    -3.00412  -0.43378  -1.75129
H    -0.78829   0.51038   2.34727
H    -1.32091  -1.18533   2.21758
H    -1.04628  -2.06612  -0.52555
H     0.72183  -2.06546  -0.75881
H     0.02564  -2.67197   0.76223
H     1.41588  -0.21448   2.33078
H     2.50660  -0.38129  -0.53989
H     3.87497  -0.04144   2.24434
H     5.84830  -0.29818  -1.40106
H     4.14873   0.23179  -1.53353
H     5.45108   1.41662  -1.27095
H     6.13656   0.43671   2.32483
H     7.05665  -0.16278   0.91283
H     6.64647   1.55068   1.02120
