24
Generated by autodE on: 2022-06-21. E = -705.266811 Ha
C     4.72925   0.12032  -0.91304
O     3.71293   0.00607   0.08756
C     2.43218   0.04912  -0.34574
O     2.13414   0.17847  -1.53274
C     1.50176  -0.07385   0.73629
C     1.86963  -0.22448   2.08131
N     2.18455  -0.34921   3.20185
O     0.14398  -0.05895   0.53645
C    -0.53089   0.06488  -0.54594
C    -1.95982   0.04770  -0.48539
C    -2.66759  -0.10926   0.72969
C    -4.05626  -0.11630   0.72018
C    -4.75473   0.03156  -0.48851
C    -4.06175   0.18704  -1.69468
C    -2.66995   0.19544  -1.69828
H     4.66108  -0.70504  -1.63749
H     4.64780   1.07869  -1.44728
H     5.68522   0.07019  -0.37822
H     0.01092   0.18149  -1.48695
H    -2.11602  -0.22360   1.66418
H    -4.60630  -0.23732   1.65564
H    -5.84710   0.02505  -0.48683
H    -4.61064   0.30171  -2.63144
H    -2.11535   0.31622  -2.63152
