47
Generated by autodE on: 2022-06-21. E = -1056.789445 Ha. Imaginary frequency = -274.3 cm-1
C     2.58283   2.04377  -1.94393
O     1.38944   1.27249  -1.76832
C     0.62357   1.58025  -0.69633
O     0.94390   2.42218   0.13394
C    -0.56181   0.76584  -0.63431
C    -0.91276  -0.14498  -1.63401
N    -1.16358  -0.90324  -2.49179
O    -1.25233   0.92977   0.53414
C    -2.09883   0.12599   1.11998
C    -3.23689  -0.52644   0.47590
C    -3.93658  -1.51814   1.19650
C    -5.08039  -2.10227   0.66260
C    -5.56301  -1.68968  -0.58689
C    -4.90169  -0.67819  -1.28811
C    -3.74518  -0.09741  -0.76595
C    -0.67496  -1.64798   1.65179
C     0.51108  -1.48303   0.96181
C     0.81662  -2.33360  -0.24016
C     1.50560  -0.56271   1.46660
C     2.72777  -0.34813   0.90473
C     3.67936   0.60843   1.40839
C     4.87896   0.92312   0.84911
C     5.41738   0.30480  -0.40820
C     5.76608   1.95909   1.47470
H     2.33357   3.08107  -2.21578
H     3.18760   2.04545  -1.02785
H     3.13513   1.56570  -2.76137
H    -2.20898   0.38059   2.17701
H    -3.56872  -1.83126   2.17572
H    -5.60462  -2.87933   1.22304
H    -6.46213  -2.14798  -1.00477
H    -5.28942  -0.33197  -2.24857
H    -3.26631   0.71762  -1.30697
H    -0.75925  -1.27115   2.67256
H    -1.36511  -2.43753   1.35314
H    -0.09013  -2.82062  -0.62116
H     1.27089  -1.75783  -1.05822
H     1.53649  -3.12202   0.04031
H     1.22790   0.01285   2.35621
H     2.99823  -0.91370   0.01026
H     3.38722   1.14266   2.31961
H     4.73057  -0.40685  -0.88307
H     5.65644   1.09301  -1.14290
H     6.36750  -0.21735  -0.19781
H     5.33759   2.37085   2.39981
H     6.75932   1.53386   1.70473
H     5.94590   2.79088   0.77033
