36
Generated by autodE on: 2022-10-07. E = -1123.749585 Ha
C     3.44182  -0.34541  -2.22176
O     2.41916  -0.63146  -1.25851
C     2.56470  -0.08136  -0.05080
O     3.56251   0.53783   0.26975
C     1.33573  -0.24580   0.85088
C     1.76825  -0.13250   2.30926
N     0.64402  -1.51909   0.57823
C    -0.61624  -1.28510  -0.14936
C    -0.77887  -2.23134  -1.34071
C    -1.79201  -1.41020   0.82582
O    -1.69508  -1.31803   2.03532
O    -2.95537  -1.61614   0.20654
C    -4.14062  -1.54708   1.01029
C    -0.53085   0.20649  -0.61534
C    -1.90469   0.86032  -0.86787
O    -2.37177   0.76712  -2.03276
O    -2.47470   1.41193   0.11323
C     0.30578   0.86518   0.46688
C     0.95403   2.20945   0.08539
O     1.23381   2.39776  -1.13001
O     1.19591   3.00688   1.02959
H     4.42122  -0.69744  -1.86787
H     3.15511  -0.87778  -3.13607
H     3.48455   0.73757  -2.40883
H     2.51762  -0.89632   2.56850
H     2.19629   0.85982   2.50058
H     0.88728  -0.26462   2.95360
H     0.43483  -1.96369   1.46848
H    -1.63943  -1.93998  -1.95764
H     0.12981  -2.17339  -1.95580
H    -0.91282  -3.27366  -1.01222
H    -4.10272  -2.28177   1.82674
H    -4.24612  -0.53389   1.42471
H    -4.97664  -1.76876   0.33690
H     0.02011   0.21769  -1.56319
H    -0.32123   1.03373   1.35244
