26
Generated by autodE on: 2022-10-13. E = -668.635812 Ha
C    -4.32530  -1.10326  -0.36756
O    -3.02330  -0.63001  -0.72546
C    -2.14809  -0.45987   0.28158
O    -2.43282  -0.70056   1.45638
C    -0.85620   0.04258  -0.15545
C    -0.56487   0.45465  -1.55385
N    -0.02173   0.25178   0.87786
C     1.25538   0.63547   1.01121
C     1.68616   1.19094   2.33399
C     2.27216   0.48724  -0.01666
O     3.34986   1.07570   0.01784
O     1.99064  -0.44799  -0.94442
C     2.94640  -0.62201  -1.99298
H    -4.83133  -0.38827   0.29817
H    -4.26061  -2.08012   0.13420
H    -4.88182  -1.19940  -1.30743
H    -0.06118  -0.32369  -2.14855
H     0.09855   1.33582  -1.55716
H    -1.50491   0.71434  -2.05829
H    -0.51992   0.13408   1.77218
H     0.91869   1.00475   3.10051
H     2.63760   0.74913   2.66794
H     1.83821   2.28360   2.27717
H     3.08749   0.31558  -2.55136
H     3.91528  -0.94991  -1.58826
H     2.53576  -1.39423  -2.65439
