36
Generated by autodE on: 2022-10-07. E = -1123.683986 Ha. Imaginary frequency = -361.1 cm-1
C     3.33520  -1.27899  -2.04053
O     2.40828  -1.27200  -0.95021
C     2.51550  -0.25954  -0.07792
O     3.48160   0.49153  -0.06511
C     1.41357  -0.17102   0.89468
C     1.82884   0.28757   2.26817
N     0.32691  -0.99958   0.85275
C    -0.61284  -1.11339  -0.12975
C    -0.31630  -1.27022  -1.59022
C    -1.87644  -1.65518   0.41419
O    -2.07979  -1.83605   1.60958
O    -2.81035  -1.87109  -0.51887
C    -4.12159  -2.20016  -0.04416
C    -0.98818   1.16872  -0.18630
C    -2.06636   1.18271   0.86405
O    -3.26182   1.08354   0.45784
O    -1.71971   1.26554   2.07874
C     0.28690   1.66140   0.08734
C     1.21114   2.19510  -0.97827
O     1.16250   1.69308  -2.14127
O     1.99057   3.12204  -0.62479
H     4.36748  -1.39065  -1.67840
H     3.06080  -2.13603  -2.66701
H     3.24616  -0.34493  -2.61479
H     2.39627  -0.49048   2.80876
H     2.47628   1.16877   2.17217
H     0.94557   0.56476   2.86058
H    -0.13539  -1.08075   1.76263
H    -1.25625  -1.20699  -2.15045
H     0.35576  -0.48866  -1.95432
H     0.14042  -2.25356  -1.79291
H    -4.10511  -3.13727   0.53080
H    -4.50663  -1.38590   0.58557
H    -4.74575  -2.31621  -0.93794
H    -1.32985   1.11384  -1.22143
H     0.43991   2.10190   1.07343
