23
Generated by autodE on: 2022-06-22. E = -351.521383 Ha
C    -1.58308  -1.50699   3.08551
C    -0.82679  -0.65233   2.36203
C    -0.05873   0.46474   3.02116
C    -0.74248  -0.80211   0.91060
C    -0.02153  -0.01378   0.07413
C     0.02712  -0.20744  -1.36071
C     0.72109   0.53268  -2.26201
C     1.58056   1.71316  -1.90857
C     0.67143   0.20496  -3.72757
H    -2.13942  -2.31705   2.60389
H    -1.66416  -1.41811   4.17244
H    -0.37079   1.44696   2.62891
H    -0.20996   0.46385   4.10982
H     1.02207   0.37569   2.82130
H    -1.31956  -1.62964   0.48062
H     0.55646   0.81337   0.49522
H    -0.56536  -1.04643  -1.74542
H     1.22801   2.61483  -2.43995
H     1.60397   1.93675  -0.83427
H     2.61812   1.54531  -2.24762
H     1.68430  -0.00432  -4.11633
H     0.03131  -0.66424  -3.93851
H     0.29444   1.06588  -4.30854
