27
Generated by autodE on: 2022-06-22. E = -687.361295 Ha
N    -1.56396   3.49472   1.38457
C    -1.36462   2.42654   0.94739
C    -1.15452   1.13967   0.41716
N     0.11514   0.72162   0.31282
C     1.19346   0.28689   0.19045
C     2.49418  -0.23726   0.03857
C     3.61891   0.56614   0.33297
C     4.89462   0.03087   0.17798
C     5.06519  -1.28502  -0.26844
C     3.94791  -2.07632  -0.56145
C     2.66118  -1.56740  -0.41040
C    -2.24745   0.26558  -0.01115
C    -1.99608  -1.01596  -0.54607
C    -3.05049  -1.83659  -0.94840
C    -4.37658  -1.40645  -0.83056
C    -4.63468  -0.13622  -0.30161
C    -3.58859   0.69141   0.10378
H     3.47781   1.59160   0.67727
H     5.76540   0.64887   0.40680
H     6.07037  -1.69449  -0.38806
H     4.07945  -3.10296  -0.90958
H     1.78530  -2.17837  -0.63357
H    -0.96982  -1.37459  -0.64937
H    -2.83032  -2.82502  -1.35953
H    -5.19870  -2.05215  -1.14680
H    -5.66429   0.21669  -0.20239
H    -3.80836   1.67940   0.51467
