50
Generated by autodE on: 2022-06-22. E = -1038.886716 Ha. Imaginary frequency = -311.6 cm-1
C     6.18889   0.74700   0.68326
C     4.90694   1.16067   0.01721
C     4.71636   2.64479  -0.12527
C     3.99942   0.23489  -0.38881
C     2.72225   0.48647  -1.01736
C     1.79575  -0.48706  -1.24964
C     0.47784  -0.27334  -1.79865
C     0.07760   1.11243  -2.22173
C    -0.40911  -1.32408  -1.96418
C    -1.72504  -1.43263  -0.19794
C    -3.02117  -2.03343  -0.42686
C    -4.10159  -1.68339   0.41149
C    -5.35933  -2.23676   0.18789
C    -5.54811  -3.15187  -0.85543
C    -4.47814  -3.50785  -1.68274
C    -3.21886  -2.94352  -1.48147
N    -1.13889  -0.94331   0.74253
C    -0.09679  -0.24284   1.19951
C     0.98347  -0.97693   1.74254
N     1.90358  -1.56062   2.16631
C    -0.08396   1.21188   1.18566
C     1.11138   1.91428   1.45583
C     1.14833   3.30670   1.36675
C     0.00196   4.02878   1.01939
C    -1.18871   3.33876   0.75410
C    -1.23553   1.94859   0.83114
H     7.06469   1.11691   0.11932
H     6.27446  -0.34590   0.77641
H     6.26960   1.18899   1.69317
H     4.72145   3.12737   0.86877
H     3.78218   2.92233  -0.62989
H     5.55668   3.09233  -0.68541
H     4.23229  -0.81907  -0.19319
H     2.47685   1.51759  -1.27978
H     2.04150  -1.51759  -0.96923
H     0.71095   1.46713  -3.05340
H     0.20027   1.83815  -1.40329
H    -0.97088   1.14287  -2.54985
H    -1.27770  -1.19084  -2.61212
H    -0.06128  -2.35131  -1.81889
H    -3.94115  -0.97457   1.22576
H    -6.19619  -1.95952   0.83245
H    -6.53512  -3.58874  -1.02356
H    -4.62670  -4.22445  -2.49303
H    -2.38595  -3.21784  -2.12882
H     2.01464   1.36623   1.72683
H     2.08612   3.82941   1.57023
H     0.03381   5.11866   0.95584
H    -2.09152   3.89153   0.48276
H    -2.16748   1.42197   0.61562
