27
Generated by autodE on: 2022-06-05. E = -8481.667688 Ha
C    -2.62548  -2.64885   1.73665
N    -1.68368  -2.08627   0.78320
C    -0.77544  -1.19382   1.16592
O    -0.64999  -0.80686   2.33091
C     0.17799  -0.56354   0.10633
Br    0.29242  -1.66294  -1.51226
C     1.58762  -0.33166   0.73653
C     1.95670  -1.30907   1.84929
O     2.46397  -0.98351   2.89516
O     1.70347  -2.55499   1.46796
C     1.97301  -3.59812   2.42013
O     1.61608   1.00197   1.23473
C     0.34194   1.59529   1.08875
C     0.46248   3.05183   1.00730
N     0.53652   4.20774   0.99836
C    -0.24759   0.91457  -0.16980
Br    0.64544   1.65264  -1.75903
Br   -2.16550   1.19176  -0.31954
H    -2.09022  -3.11231   2.57850
H    -3.22609  -3.41073   1.22699
H    -3.29243  -1.86927   2.13666
H    -1.74185  -2.36451  -0.19031
H     2.35806  -0.42299  -0.04453
H     1.70322  -4.53565   1.92170
H     1.35785  -3.45057   3.31914
H     3.03750  -3.59983   2.69268
H    -0.30609   1.35462   1.94893
