13
Generated by autodE on: 2022-06-05. E = -8007.490426 Ha
C    -4.02181  -0.95249  -0.71706
N    -2.74944  -0.57706  -0.12665
C    -1.85935   0.16701  -0.79718
O    -2.04355   0.63137  -1.92004
C    -0.57331   0.45690  -0.04540
Br   -0.55353   2.16293   0.77777
C     0.48533  -0.36721  -0.03179
Br    2.13047   0.01593   0.80674
Br    0.40780  -2.04780  -0.91571
H    -4.63625  -1.44060   0.04863
H    -4.55104  -0.06330  -1.09000
H    -3.88127  -1.64855  -1.55990
H    -2.49734  -0.94939   0.78354
