14
Generated by autodE on: 2022-07-27. E = -474.077620 Ha
C    -0.22510  -3.12556   1.85184
O     0.00978  -2.52721   0.57128
C    -0.04829  -1.18608   0.51817
O    -0.28561  -0.47374   1.48907
C     0.20290  -0.70312  -0.81881
O     0.19903   0.56949  -1.10916
C    -0.00541   1.63734  -0.38229
C     0.07601   2.86674  -1.05681
N     0.13491   3.91094  -1.57947
H     0.51780  -2.77725   2.58462
H    -0.12968  -4.20722   1.70216
H    -1.23468  -2.88106   2.21437
H     0.41238  -1.35123  -1.66743
H    -0.22279   1.54959   0.68063
