14
Generated by autodE on: 2022-06-05. E = -474.077804 Ha
C     3.36144   0.26703   0.53103
O     1.93090   0.20712   0.59478
C     1.29405  -0.04514  -0.55963
O     1.86081  -0.22182  -1.62939
C    -0.14886  -0.09130  -0.43263
O    -0.67473   0.10952   0.73867
C    -1.92994   0.12261   1.11623
C    -2.96611  -0.10573   0.20052
N    -3.82257  -0.29856  -0.57296
H     3.68622   1.07111  -0.14585
H     3.70073   0.47423   1.55263
H     3.77484  -0.69074   0.18193
H    -0.78573  -0.28803  -1.29749
H    -2.09275   0.31978   2.17399
