27
Generated by autodE on: 2022-06-05. E = -8481.562169 Ha. Imaginary frequency = -329.5 cm-1
C    -1.18084  -4.24343   0.39158
N    -0.92676  -2.99417  -0.30092
C    -0.74286  -1.85464   0.39152
O    -0.84588  -1.81333   1.61682
C    -0.38476  -0.61096  -0.39940
Br   -0.24783  -0.82202  -2.31616
C     2.01725  -1.00613  -0.01665
C     2.00395  -1.39420   1.39994
O     2.04461  -0.62252   2.34239
O     1.96095  -2.72276   1.50805
C     1.85772  -3.25679   2.83676
O     2.23784   0.23196  -0.39511
C     1.82378   1.30175   0.26371
C     2.08003   2.53543  -0.37497
N     2.23489   3.57392  -0.88078
C    -0.55585   0.70062   0.05124
Br   -1.07199   2.11249  -1.14243
Br   -1.09222   1.11706   1.83543
H    -1.38076  -5.02249  -0.35369
H    -2.05177  -4.15431   1.05772
H    -0.31339  -4.54568   1.00016
H    -0.81445  -3.00788  -1.30718
H     2.28482  -1.74348  -0.77279
H     1.81662  -4.34536   2.72079
H     2.73524  -2.96975   3.43350
H     0.94180  -2.88783   3.31805
H     1.69903   1.24996   1.34368
