57
Generated by autodE on: 2022-10-22. E = -1474.479216 Ha
C     3.71972  -2.52056   1.40925
N     2.77964  -1.63560   0.75332
C     2.57572  -0.37034   1.14232
O     3.26976   0.22891   1.96941
C     1.42555   0.36092   0.39238
C     2.08082   1.08491  -0.77853
C     2.96466   2.14398  -0.52638
C     3.55843   2.83534  -1.58448
C     3.28461   2.46875  -2.90623
C     2.41922   1.40051  -3.15958
C     1.82194   0.70879  -2.10198
O     0.47722  -0.58020  -0.11900
C    -0.62141  -0.75898   0.76825
C    -0.36284  -2.02364   1.62353
O     0.27065  -2.97558   1.21826
O    -0.97716  -1.99127   2.79972
C    -0.90274  -3.18020   3.60629
C    -1.86617  -1.11555  -0.04008
C    -3.12007  -1.14015   0.58603
C    -4.26525  -1.44836  -0.15016
C    -4.16519  -1.75070  -1.51232
C    -2.91113  -1.75774  -2.12879
C    -1.76296  -1.44821  -1.39491
C    -0.70827   0.53731   1.60099
C    -1.72358   1.66871   1.20372
O    -1.01873   2.80203   1.73275
C     0.14745   2.66468   0.88329
C    -0.47413   2.57776  -0.50033
C    -1.65064   1.95795  -0.28988
O    -2.64057   1.58923  -1.11373
C    -2.38174   1.75784  -2.50374
C     0.64289   1.26141   1.36950
H     4.13270  -3.23354   0.68208
H     4.54064  -1.93172   1.83692
H     3.23487  -3.09043   2.21994
H     2.02663  -2.05873   0.21606
H     3.18441   2.43135   0.50270
H     4.23662   3.66566  -1.37412
H     3.74636   3.01151  -3.73432
H     2.20201   1.10364  -4.18845
H     1.13648  -0.11285  -2.30495
H    -1.34657  -4.02990   3.06863
H     0.14393  -3.40457   3.85470
H    -1.47330  -2.96166   4.51567
H    -3.20566  -0.90643   1.64853
H    -5.24044  -1.44907   0.34215
H    -5.06250  -1.98615  -2.08934
H    -2.82353  -1.99968  -3.19056
H    -0.78783  -1.44384  -1.87959
H    -0.87241   0.30774   2.65659
H    -2.72557   1.57239   1.63317
H     0.85351   3.48323   1.05526
H    -0.01880   2.90440  -1.42995
H    -3.25638   1.37036  -3.04009
H    -2.23802   2.82435  -2.74570
H    -1.48282   1.19431  -2.80059
H     1.21026   1.38791   2.29649
