40
Generated by autodE on: 2022-10-22. E = -1052.259799 Ha
C    -2.23322   3.95978   1.85771
N    -1.46325   2.82915   1.38451
C    -1.97747   1.95840   0.48917
O    -3.10046   2.10808  -0.01897
C    -1.12236   0.79998   0.13582
O     0.00853   0.78061   0.79530
C     1.14134   0.08514   0.77890
C     2.01116   0.38351   1.90360
O     3.11776  -0.11819   2.07125
O     1.48130   1.27887   2.76673
C     2.30180   1.65093   3.87809
C     1.52149  -0.80567  -0.31139
C     1.28484  -0.43827  -1.65365
C     1.60353  -1.30773  -2.69448
C     2.16616  -2.55855  -2.41891
C     2.42850  -2.92456  -1.09354
C     2.11353  -2.05806  -0.04795
C    -1.54546  -0.25106  -0.77606
C    -1.31876  -1.60680  -0.45313
C    -1.67898  -2.61479  -1.34373
C    -2.26286  -2.29006  -2.57299
C    -2.50983  -0.95035  -2.89574
C    -2.16305   0.06333  -2.00477
H    -2.54585   4.60417   1.02113
H    -1.61251   4.54904   2.54354
H    -3.14344   3.63903   2.39157
H    -0.55819   2.63046   1.79893
H     2.54016   0.77400   4.49802
H     1.71494   2.37290   4.45826
H     3.23834   2.11582   3.53535
H     0.85323   0.53690  -1.88067
H     1.40736  -1.00880  -3.72652
H     2.40361  -3.24496  -3.23483
H     2.87052  -3.89885  -0.87248
H     2.29903  -2.35627   0.98414
H    -0.86932  -1.86814   0.50493
H    -1.49590  -3.65881  -1.08091
H    -2.52926  -3.08077  -3.27801
H    -2.96756  -0.69410  -3.85384
H    -2.33912   1.10698  -2.26351
