57
Generated by autodE on: 2022-10-22. E = -1474.351899 Ha. Imaginary frequency = -235.6 cm-1
C     3.75100  -2.79956   1.49052
N     2.87805  -1.99460   0.65639
C     2.54703  -0.73789   1.01232
O     3.14659  -0.10390   1.88424
C     1.51635  -0.10442   0.09276
C     2.04707   0.76184  -0.96540
C     3.13460   1.62157  -0.70471
C     3.61165   2.47644  -1.69780
C     3.03125   2.47891  -2.97065
C     1.96386   1.61464  -3.24358
C     1.47026   0.76949  -2.25313
O     0.40220  -0.72606  -0.23535
C    -0.57351  -1.35013   0.43498
C    -0.32495  -1.94294   1.73716
O     0.68786  -1.78829   2.41252
O    -1.36279  -2.68204   2.17888
C    -1.23990  -3.22924   3.49500
C    -1.74973  -1.62050  -0.40381
C    -3.05710  -1.63588   0.12429
C    -4.15531  -1.84618  -0.70726
C    -3.98073  -2.04662  -2.08200
C    -2.68964  -2.03485  -2.61702
C    -1.58632  -1.82490  -1.78906
C    -0.76545   0.90686   1.98913
C    -1.77607   1.94621   1.45844
O    -1.04248   3.16203   1.74085
C     0.12918   2.76558   0.96457
C    -0.52100   2.49559  -0.39700
C    -1.71250   1.96333  -0.07304
O    -2.73148   1.48348  -0.79697
C    -2.55000   1.51885  -2.21087
C     0.45859   1.42628   1.68326
H     4.68182  -2.25598   1.70256
H     3.99505  -3.72878   0.96090
H     3.26895  -3.04960   2.45062
H     2.25373  -2.48163   0.01973
H     3.58980   1.62717   0.28532
H     4.44513   3.14637  -1.47457
H     3.40986   3.14792  -3.74668
H     1.50806   1.60367  -4.23635
H     0.62910   0.11203  -2.46898
H    -0.39011  -3.92565   3.55013
H    -1.10214  -2.43124   4.23936
H    -2.17742  -3.76462   3.68655
H    -3.21050  -1.44870   1.18608
H    -5.16084  -1.83955  -0.27958
H    -4.84530  -2.21000  -2.72941
H    -2.53717  -2.19337  -3.68730
H    -0.58144  -1.83204  -2.21371
H    -1.02049   0.14613   2.71943
H    -2.77647   1.93823   1.90404
H     0.91389   3.52873   0.99670
H    -0.06488   2.65665  -1.36690
H    -3.44199   1.06482  -2.65835
H    -1.65597   0.94686  -2.50178
H    -2.44378   2.56055  -2.55709
H     1.41538   1.20521   2.14983
