41
Generated by autodE on: 2022-06-17. E = -791.006101 Ha
C     0.64643  -2.61327  -0.39865
C     0.13759  -1.63809  -1.16507
C    -0.53253  -1.90061  -2.48278
C     0.15569  -0.18955  -0.72272
C     1.30155   0.22304   0.17347
C     2.71151  -0.14870  -0.16582
O     3.07091  -0.36491  -1.30686
O     3.51400  -0.20490   0.89463
C     4.89057  -0.52837   0.64137
N     1.01953   0.99051   1.15416
C    -0.42816   1.30614   1.11148
C    -0.56294   2.71805   0.52951
C    -1.02633   1.25168   2.51252
C    -1.04351   0.20607   0.18014
C    -2.28611   0.59400  -0.55614
C    -3.55141   0.23500  -0.26590
C    -3.94501  -0.65127   0.88515
C    -4.70473   0.72690  -1.10004
H     0.60128  -3.66139  -0.70878
H     1.12127  -2.40250   0.56514
H     0.00576  -1.38621  -3.29768
H    -0.57943  -2.97438  -2.71531
H    -1.55863  -1.49421  -2.48140
H     0.18149   0.45495  -1.61991
H     5.38283  -0.53901   1.62038
H     5.34936   0.23055  -0.00862
H     4.96969  -1.51543   0.16336
H     0.00592   3.43588   1.13972
H    -1.61797   3.02841   0.52442
H    -0.18268   2.76597  -0.50232
H    -0.85654   0.26692   2.97439
H    -0.58439   2.02356   3.16164
H    -2.11257   1.42377   2.46185
H    -1.24142  -0.66143   0.82501
H    -2.13139   1.25649  -1.41550
H    -4.58381  -0.09489   1.59354
H    -4.55055  -1.50212   0.52721
H    -3.08832  -1.04793   1.44499
H    -5.26486  -0.12076  -1.53337
H    -5.42670   1.28759  -0.48002
H    -4.37317   1.37967  -1.92123
