18
Generated by autodE on: 2022-06-17. E = -439.401339 Ha
C     3.24024   0.45715  -1.00792
O     1.95906   0.76558  -0.43580
C     1.36904  -0.20995   0.27074
O     1.84727  -1.31799   0.44500
C     0.14655   0.25772   0.92926
N    -0.98486   0.12532   0.44953
C    -2.19103   0.03642   0.05420
C    -2.81874   1.15698  -0.72226
C    -2.99938  -1.19171   0.35598
H     3.56646   1.36786  -1.52358
H     3.15633  -0.37263  -1.72467
H     3.96000   0.18912  -0.22080
H    -2.12219   1.99462  -0.85980
H    -3.71939   1.51668  -0.19651
H    -3.14459   0.79402  -1.71153
H    -3.90812  -0.91228   0.91547
H    -2.42465  -1.92129   0.94188
H    -3.33023  -1.66585  -0.58336
