41
Generated by autodE on: 2022-06-17. E = -790.908791 Ha. Imaginary frequency = -375.1 cm-1
C     0.46854  -2.75468   0.68146
C     0.50458  -2.11324  -0.50275
C     1.39422  -2.58834  -1.62333
C    -0.29558  -0.90544  -0.81941
C     1.27917   0.45698  -0.09014
C     2.65272   0.47048  -0.58386
O     3.03472   1.17695  -1.50086
O     3.39043  -0.48121   0.00209
C     4.70004  -0.70469  -0.54415
N     0.72517   1.06517   0.81897
C    -0.43298   1.17873   1.44733
C    -1.23084   2.42751   1.23721
C    -0.59771   0.44750   2.74920
C    -1.43269  -0.49312  -0.12309
C    -2.43182   0.35079  -0.75352
C    -3.68007   0.64061  -0.31114
C    -4.25904   0.11422   0.97417
C    -4.59133   1.54758  -1.09189
H     1.08986  -3.63665   0.85989
H    -0.17482  -2.42626   1.50177
H     2.00828  -1.76458  -2.02288
H     2.06340  -3.39997  -1.30391
H     0.78372  -2.95234  -2.46820
H    -0.20025  -0.56073  -1.85408
H     5.12628  -1.53573   0.02924
H     5.32430   0.19332  -0.43213
H     4.63008  -0.97316  -1.60823
H    -0.95776   3.18850   1.99057
H    -2.30023   2.20777   1.36092
H    -1.06931   2.84718   0.23520
H    -0.03900  -0.49799   2.75426
H    -0.24095   1.07054   3.58990
H    -1.66368   0.24170   2.92360
H    -1.71667  -1.04288   0.77501
H    -2.12148   0.80635  -1.70290
H    -4.49710   0.94407   1.66420
H    -5.21435  -0.40895   0.78716
H    -3.59052  -0.57935   1.50147
H    -5.53520   1.03679  -1.35808
H    -4.88274   2.42951  -0.49164
H    -4.12158   1.90684  -2.02012
