20
Generated by autodE on: 2022-06-23. E = -457.715321 Ha
C    -3.11198   0.63157  -0.09309
N    -1.81848  -0.02132  -0.21321
C    -1.70614  -1.19507  -0.96899
C    -0.52942  -1.79744  -1.20230
C     0.78406  -1.27233  -0.67739
C     0.56841   0.01706   0.09789
C     1.69656   0.74793   0.69749
N     2.92534   0.20051   0.51977
O     1.56467   1.81212   1.33597
C    -0.67674   0.54378   0.27062
H    -3.04032   1.44895   0.63546
H    -3.44662   1.04864  -1.05822
H    -3.87289  -0.08258   0.25729
H    -2.65011  -1.58638  -1.35242
H    -0.52387  -2.71430  -1.79619
H     1.49274  -1.11611  -1.51629
H     1.27433  -2.03910  -0.04254
H     3.07522  -0.66167   0.01152
H     3.72889   0.67493   0.91686
H    -0.80196   1.47231   0.82999
