46
Generated by autodE on: 2022-06-23. E = -1052.779858 Ha. Imaginary frequency = -371.6 cm-1
C     1.28829   0.46619   2.14688
N     1.70112   0.39339   0.75590
C     2.44723  -0.64252   0.29046
C     2.86982  -0.75267  -1.00522
C     3.65185  -1.94093  -1.35663
N     4.14411  -1.98765  -2.62240
O     3.87141  -2.88181  -0.56206
C     2.56451   0.33860  -2.01322
C     1.45878   1.24424  -1.49521
C    -0.28473   0.19827  -2.38488
N    -1.14436   0.05711  -1.54225
C    -1.53474   0.24419  -0.28264
C    -1.40009  -0.89099   0.63614
C    -2.19915  -1.03081   1.79433
C    -1.99304  -2.08515   2.68175
C    -0.99407  -3.03791   2.44066
C    -0.22321  -2.93593   1.27844
C    -0.42846  -1.88632   0.38382
C    -2.23630   1.50470   0.00494
C    -2.86327   2.22885  -1.03316
C    -3.47167   3.46024  -0.78817
C    -3.47733   4.00580   0.49960
C    -2.85348   3.30362   1.53784
C    -2.23962   2.07479   1.29852
C     1.18337   1.32164  -0.14964
H     1.79062  -0.32346   2.71832
H     1.56057   1.44296   2.57776
H     0.20074   0.33572   2.24155
H     2.70870  -1.40882   1.02032
H     4.69703  -2.79123  -2.89869
H     4.02534  -1.23001  -3.28242
H     3.47071   0.94034  -2.23447
H     2.26713  -0.09950  -2.98307
H     1.20274   2.11584  -2.10171
H    -0.31048  -0.04631  -3.45527
H    -2.99181  -0.31119   1.99803
H    -2.62350  -2.16775   3.57069
H    -0.83008  -3.85693   3.14463
H     0.55411  -3.67394   1.06444
H     0.18019  -1.83014  -0.51757
H    -2.87929   1.81265  -2.04228
H    -3.95272   3.99424  -1.61157
H    -3.95698   4.96814   0.69201
H    -2.83239   3.72336   2.54672
H    -1.72561   1.56913   2.11561
H     0.59041   2.12194   0.28918
