35
Generated by autodE on: 2022-10-06. E = -1048.474760 Ha
C     3.06581   2.83444   0.46033
O     1.84041   2.10260   0.32682
C     1.88381   0.98158  -0.39239
O     2.89205   0.60305  -0.96043
C     0.52653   0.26949  -0.47377
C     0.79579  -1.02789  -1.30040
C     1.50927  -2.19670  -0.68175
O     0.52499  -1.01166  -2.49189
N    -0.42935   1.11891  -1.18657
C    -1.74248   1.13419  -0.47547
C    -2.86879   0.83031  -1.46396
C    -1.96853   2.52265   0.13863
C    -1.60417   0.07516   0.67029
C    -2.16635  -1.29867   0.28321
O    -1.50525  -1.99382  -0.54113
O    -3.27991  -1.62444   0.77061
C    -0.10075   0.11583   0.93468
C     0.56813  -0.89420   1.87413
O    -0.13445  -1.78235   2.41814
O     1.80559  -0.71285   2.05621
H     3.82261   2.21781   0.96689
H     2.82745   3.71539   1.06754
H     3.44366   3.14232  -0.52519
H     1.76255  -2.91772  -1.47069
H     0.84978  -2.67602   0.05291
H     2.41301  -1.86893  -0.15447
H    -0.53172   0.71991  -2.11959
H    -2.69131  -0.12642  -1.97591
H    -3.83592   0.76940  -0.94381
H    -2.93701   1.62308  -2.22612
H    -1.95451   3.29325  -0.64834
H    -1.17722   2.76996   0.86254
H    -2.93953   2.57268   0.65626
H    -2.16083   0.41366   1.55396
H     0.09658   1.08138   1.42161
