25
Generated by autodE on: 2022-10-06. E = -593.395049 Ha
C    -1.72350  -2.67912  -0.28887
O    -0.85113  -1.62476   0.11404
C    -1.14382  -0.37915  -0.34871
O    -2.18095  -0.16727  -0.97731
C    -0.15911   0.60300   0.02062
N     1.07136   0.22794   0.60809
C     1.94436  -0.68142   0.28442
C     3.14602  -0.84853   1.14626
C     1.79340  -1.53512  -0.91943
C    -0.40369   2.01202   0.12667
C    -1.69534   2.60959  -0.38235
O     0.45078   2.75652   0.66106
H    -2.74205  -2.52065   0.09637
H    -1.30535  -3.60001   0.13633
H    -1.76510  -2.76056  -1.38574
H     1.35112   0.87807   1.35199
H     3.16994  -1.87861   1.54052
H     3.15554  -0.14247   1.98801
H     4.05752  -0.72070   0.54041
H     1.16565  -1.05058  -1.68104
H     2.78864  -1.75664  -1.33090
H     1.31938  -2.49272  -0.65111
H    -1.80715   2.44331  -1.46408
H    -1.68491   3.68803  -0.17336
H    -2.56958   2.14565   0.09842
