25
Generated by autodE on: 2022-10-13. E = -593.394999 Ha
C     1.74363   2.66949   0.24151
O     0.83837   1.62935  -0.12445
C     1.16931   0.36781   0.26209
O     2.25747   0.13375   0.78793
C     0.15505  -0.60221  -0.05709
N    -1.12596  -0.21035  -0.50843
C    -1.96367   0.68662  -0.07522
C    -3.24295   0.87252  -0.81274
C    -1.69862   1.50680   1.13212
C     0.39246  -2.00338  -0.24928
C     1.72921  -2.61308   0.10553
O    -0.50629  -2.72942  -0.73421
H     2.72336   2.53001  -0.23974
H     1.88367   2.70597   1.33261
H     1.28931   3.60554  -0.10641
H    -1.47749  -0.83926  -1.24020
H    -3.33121   0.18624  -1.66612
H    -4.09217   0.72722  -0.12576
H    -3.30494   1.91155  -1.17829
H    -1.26121   2.47653   0.84573
H    -0.99457   1.00775   1.81315
H    -2.64932   1.70646   1.64715
H     1.95068  -2.48537   1.17534
H     2.54947  -2.12815  -0.44493
H     1.69924  -3.68305  -0.14155
