10
Generated by autodE on: 2022-10-06. E = -455.046459 Ha
O    -1.25977  -0.15780  -1.82440
C    -1.45627  -0.07571  -0.58553
O    -2.22536  -0.79792   0.10253
C    -0.78568   1.06993   0.14951
C     0.46131   1.10306   0.64799
C     1.47723  -0.01145   0.55730
O     1.10560  -1.13092   0.10535
O     2.64575   0.27117   0.94859
H    -1.42469   1.95421   0.28026
H     0.81435   2.00839   1.15557
