19
Generated by autodE on: 2022-06-04. E = -365.387971 Ha
C     3.27986   0.11366   0.07187
C     1.81978   0.26248   0.28479
N     0.95211  -0.36991  -0.46660
C    -0.43629  -0.40543  -0.48004
C    -1.06410  -1.28355  -1.52863
C    -1.18286   0.35007   0.44593
C    -2.69724   0.24533   0.35025
O    -0.67636   1.09737   1.33545
H     3.50834  -0.56917  -0.76131
H     3.74384   1.09358  -0.13902
H     3.76854  -0.26956   0.98520
H     1.40923   0.89695   1.06734
H     1.37127  -0.95883  -1.19208
H    -1.69357  -2.07961  -1.09371
H    -1.70828  -0.71870  -2.22528
H    -0.29178  -1.78119  -2.13657
H    -3.06448   0.56596  -0.63874
H    -3.04169  -0.79198   0.49603
H    -3.14952   0.88281   1.12250
