19
Generated by autodE on: 2022-07-27. E = -365.389768 Ha
C    -3.07711  -0.12564   0.09849
C    -1.99039  -0.47937  -0.85273
N    -0.70246  -0.33924  -0.68288
C     0.14620   0.13418   0.29634
C    -0.35024   0.67478   1.59970
C     1.50427   0.03918  -0.10694
C     2.59459   0.51036   0.83506
O     1.83060  -0.43251  -1.23790
H    -2.81264   0.68674   0.78459
H    -3.36411  -1.00383   0.70683
H    -3.97280   0.16890  -0.46946
H    -2.26439  -0.94353  -1.80356
H    -0.10613  -0.65664  -1.46587
H    -0.87212   1.64298   1.49476
H     0.48982   0.83624   2.28684
H    -1.04782  -0.01788   2.09952
H     2.47287   1.57392   1.09588
H     2.58562  -0.05846   1.77899
H     3.56957   0.37245   0.34852
