37
Generated by autodE on: 2022-06-04. E = -924.985055 Ha
C     5.34951  -0.52066  -0.09674
N     4.15082   0.27997  -0.26360
C     2.96125  -0.13000   0.18311
O     2.76677  -1.19324   0.77986
C     1.78902   0.83945  -0.04485
F     2.19401   1.86041  -0.92382
C     0.61746   0.16115  -0.58613
C    -0.54336  -0.17622  -0.64214
C    -1.94532  -0.27032  -0.25922
C    -2.18953  -1.53519   0.63164
C    -1.28213  -2.70668   0.41697
O    -3.10318  -1.53518   1.43014
C    -2.86799  -0.45056  -1.49258
C    -4.32756  -0.16583  -1.30996
O    -2.39273  -0.82088  -2.54879
C    -2.27024   1.02524   0.54422
C    -1.26106   1.38893   1.65380
C     0.00578   2.21160   1.28267
C     1.36495   1.48491   1.29200
H     5.49039  -0.79328   0.95982
H     6.21515   0.06178  -0.43357
H     5.29551  -1.45065  -0.68511
H     4.19449   1.15857  -0.76973
H    -1.65563  -3.57942   0.96724
H    -1.20283  -2.92633  -0.65968
H    -0.26755  -2.44875   0.76161
H    -4.88799  -0.53822  -2.17690
H    -4.47359   0.92351  -1.22475
H    -4.70402  -0.61455  -0.37951
H    -3.25932   0.88151   0.99868
H    -2.35568   1.85930  -0.16947
H    -1.83113   1.98827   2.38012
H    -0.96594   0.47644   2.19934
H    -0.13480   2.71831   0.31352
H     0.09425   3.02030   2.02378
H     2.17502   2.18393   1.55472
H     1.36339   0.68884   2.05180
