56
Generated by autodE on: 2022-06-04. E = -1290.374409 Ha. Imaginary frequency = -268.8 cm-1
C    -0.96590  -6.63325   8.09224
N    -0.61124  -6.02687   6.82313
C    -1.16966  -6.42252   5.67379
O    -2.01171  -7.32373   5.60442
C    -0.66445  -5.69897   4.40386
F     0.09700  -4.58120   4.84205
C     0.34649  -6.56177   3.62074
C    -0.09060  -7.92687   3.08160
C    -1.04660  -7.97497   1.87340
C    -2.55941  -7.99950   2.17743
C    -3.29795  -6.65126   1.92980
C    -4.80603  -6.78316   2.23974
C    -5.19634  -7.44489   3.52815
O    -5.63039  -6.33774   1.45931
C    -3.15675  -6.23814   0.44427
C    -3.51735  -7.26624  -0.59386
O    -2.72363  -5.14639   0.12555
C    -2.71532  -5.62232   2.82167
C    -1.79598  -5.27995   3.58316
C    -2.06966  -2.71150   3.61894
C    -2.42769  -2.45105   5.05419
C    -0.77726  -2.30618   3.07775
C     0.24105  -1.69585   4.00508
O    -0.53458  -2.41581   1.85995
N    -2.96490  -2.95859   2.62973
C    -4.06090  -3.71944   2.60287
C    -5.00518  -3.89785   3.75063
H    -0.72599  -7.70796   8.09925
H    -2.04286  -6.52470   8.29523
H    -0.40186  -6.13795   8.89138
H     0.05526  -5.26301   6.79260
H     0.69993  -5.92830   2.79134
H     1.19932  -6.71080   4.30235
H     0.84467  -8.42091   2.77284
H    -0.49550  -8.54389   3.89923
H    -0.79988  -7.15234   1.18097
H    -0.81590  -8.89978   1.32310
H    -3.05360  -8.77354   1.57213
H    -2.71592  -8.27590   3.22740
H    -4.51953  -7.16470   4.34729
H    -6.23680  -7.19691   3.77396
H    -5.11397  -8.53697   3.39737
H    -3.78073  -6.75920  -1.53173
H    -4.32721  -7.93300  -0.27253
H    -2.62399  -7.88715  -0.77811
H    -2.43248  -1.36764   5.27258
H    -1.69234  -2.91609   5.72405
H    -3.41197  -2.84394   5.32072
H     1.21556  -1.64830   3.50109
H    -0.07784  -0.66908   4.25623
H     0.33380  -2.24851   4.94723
H    -2.48280  -2.89964   1.72334
H    -4.46982  -3.84218   1.59906
H    -5.38939  -2.92121   4.09463
H    -4.54737  -4.40242   4.61173
H    -5.86696  -4.49155   3.42155
