46
Generated by autodE on: 2022-06-24. E = -1387.760262 Ha
C    -3.41686   2.48317  -3.00490
O    -2.49665   2.20372  -1.94297
C    -2.79962   1.16784  -1.15589
O    -3.82909   0.51919  -1.23673
N    -1.83802   0.94044  -0.19949
N    -2.08057  -0.20942   0.60796
C    -0.92739  -0.37418   1.49000
C    -1.35668  -0.31024   2.89837
N    -1.73718  -0.27436   3.99226
C    -0.21476  -1.73979   1.31505
O     0.46962  -2.22968   2.18073
O    -0.40842  -2.23742   0.10826
C     0.34699  -3.40968  -0.26450
C     0.07014   0.83388   1.12069
C    -0.15063   2.01954   2.06352
C     1.54259   0.40930   1.20249
O     2.16167   0.54421   2.24779
C     2.20120  -0.19742   0.03190
O     3.46119  -0.66176   0.24359
C     4.49923   0.32717   0.19445
C     1.56228  -0.35410  -1.17195
O     1.99145  -0.97313  -2.26109
C     3.19450  -1.75601  -2.30824
C     0.16170   0.13578  -1.34866
O    -0.50130  -0.20232  -2.30742
C    -0.39078   1.14721  -0.32824
C     0.03994   2.54121  -0.80074
H    -3.00171   3.34608  -3.53848
H    -4.41057   2.72896  -2.60417
H    -3.49557   1.62160  -3.68382
H    -2.15858  -1.02705  -0.00252
H    -0.02119  -4.27890   0.29663
H     0.17897  -3.53527  -1.33890
H     1.41127  -3.24337  -0.05114
H    -1.19399   2.35839   2.03074
H     0.10105   1.73243   3.09058
H     0.50539   2.85252   1.78223
H     5.43994  -0.19877   0.40225
H     4.33858   1.10782   0.95271
H     4.54634   0.78659  -0.80630
H     3.18992  -2.21972  -3.30223
H     4.08291  -1.12050  -2.19944
H     3.18078  -2.53196  -1.53250
H     1.10751   2.68029  -0.58193
H    -0.53790   3.31662  -0.28434
H    -0.11285   2.64998  -1.87933
