20
Generated by autodE on: 2022-06-24. E = -698.280037 Ha
C     4.77396  -0.33109   0.39645
O     3.58227   0.12166  -0.26460
C     2.43056  -0.22372   0.29321
O     2.30956  -0.88560   1.31143
N     1.37079   0.28792  -0.46727
N     0.24618  -0.04368   0.06460
C    -0.96401   0.26142  -0.37649
C    -1.13213   1.02891  -1.55409
N    -1.28230   1.65913  -2.52073
C    -2.09446  -0.24876   0.43024
O    -1.93148  -0.90415   1.44152
O    -3.26312   0.09872  -0.08836
C    -4.44117  -0.34252   0.61123
H     5.61044   0.04615  -0.20243
H     4.79565  -1.42977   0.43399
H     4.82172   0.07408   1.41748
H     0.26991  -0.61558   0.93887
H    -4.46688  -1.44052   0.65213
H    -4.45130   0.06833   1.63049
H    -5.29024   0.04000   0.03468
