26
Generated by autodE on: 2022-06-24. E = -689.460847 Ha
C     3.23753  -0.30838   0.05198
O     2.16197  -0.06385   0.96475
C     0.90707  -0.06900   0.42617
C     0.16006   1.06016   0.26786
O     0.47796   2.32682   0.53395
C     1.77715   2.72010   0.98739
C    -1.24798   0.95811  -0.25617
O    -1.90777   1.98143  -0.37602
C    -1.79725  -0.37117  -0.62682
C    -3.19460  -0.42194  -1.16280
C    -1.04134  -1.48683  -0.47523
C    -1.55389  -2.84595  -0.83317
C     0.34047  -1.39181   0.08478
O     1.01087  -2.40485   0.27684
H     4.16375  -0.25980   0.63978
H     3.15143  -1.30169  -0.41245
H     3.26287   0.46467  -0.73406
H     1.73106   3.81244   1.08173
H     2.00896   2.27151   1.96189
H     2.54913   2.44754   0.25367
H    -3.64213   0.57803  -1.20223
H    -3.82947  -1.06971  -0.53621
H    -3.20703  -0.85487  -2.17673
H    -2.44485  -3.09556  -0.23273
H    -0.79103  -3.61510  -0.66600
H    -1.86944  -2.87787  -1.88885
