36
Generated by autodE on: 2022-05-29. E = -3415.373463 Ha
C     4.33016   0.24856   1.64750
O     3.06730  -0.32116   1.27138
C     2.17369   0.52872   0.76820
O     2.35460   1.71693   0.59778
N     0.98171  -0.10463   0.44700
N     0.76615  -1.40984   0.75678
C    -0.46091  -1.70957   0.50094
C    -0.96957  -3.07127   0.80207
C     0.01613  -4.09901   1.28274
O    -2.16164  -3.31793   0.66534
C    -1.28023  -0.57537  -0.08157
C    -1.92600  -0.99704  -1.40225
C    -2.27681   0.02570   0.96701
C    -3.09148   1.15533   0.31128
C    -2.02632   2.26914   0.09042
C    -0.75171   1.69159   0.74111
C    -1.34631   0.84000   1.88485
C    -0.17857   0.56338  -0.13629
Br    0.31916   1.16910  -1.97557
H     4.92589  -0.58334   2.04016
H     4.19119   1.01558   2.42281
H     4.82773   0.69316   0.77378
H     0.54009  -3.73844   2.18071
H    -0.51153  -5.03536   1.50379
H     0.78317  -4.27325   0.51178
H    -2.30326  -0.13284  -1.96162
H    -1.20348  -1.52185  -2.04299
H    -2.76324  -1.67645  -1.19586
H    -2.88173  -0.75546   1.44331
H    -3.87026   1.48826   1.01286
H    -3.59645   0.84984  -0.61353
H    -2.30434   3.20064   0.60302
H    -1.87292   2.51043  -0.96955
H     0.00431   2.43488   1.01102
H    -1.90037   1.45536   2.60811
H    -0.60505   0.24118   2.43223
