20
Generated by autodE on: 2022-05-29. E = -2885.785262 Ha
C     1.92340  -1.55266  -0.57318
C     0.54316  -1.02165  -0.72590
C    -0.02044   0.10895  -0.26418
Br    0.80464   1.44131   0.80760
C    -1.51954   0.06916  -0.50042
C    -2.07533  -1.01699   0.47497
C    -1.44893  -2.32922  -0.08119
C    -0.61921  -1.82775  -1.30799
C    -1.53711  -0.70595  -1.83462
H     2.35759  -1.81807  -1.55218
H     2.58691  -0.82872  -0.07840
H     1.91432  -2.47936   0.02787
H    -2.03605   1.03586  -0.46246
H    -3.17448  -1.04342   0.42748
H    -1.78812  -0.80796   1.51550
H    -0.81403  -2.84752   0.65208
H    -2.22547  -3.03585  -0.41112
H    -0.32476  -2.61704  -2.01265
H    -1.09273  -0.13909  -2.66580
H    -2.54149  -1.05966  -2.11601
