16
Generated by autodE on: 2022-05-29. E = -529.484469 Ha
C     2.89634   1.09181   1.00877
O     1.72255   0.47327   0.46523
C     1.91828  -0.59591  -0.31884
O     3.00928  -1.05859  -0.58947
N     0.74521  -1.15639  -0.81455
N    -0.32819  -0.59286  -0.46992
C    -1.37223  -0.14218  -0.20851
C    -2.70700   0.36895   0.10043
C    -2.74080   1.58180   0.97317
O    -3.67565  -0.20633  -0.36064
H     2.53983   1.93316   1.61444
H     3.45052   0.37977   1.63735
H     3.54902   1.45493   0.20171
H    -3.78316   1.87182   1.15883
H    -2.19588   2.40405   0.48057
H    -2.22381   1.37029   1.92350
