36
Generated by autodE on: 2022-05-29. E = -3415.263211 Ha. Imaginary frequency = -280.9 cm-1
C     4.64915  -0.65741   0.70913
O     3.23552  -0.81316   0.88338
C     2.54104   0.30777   1.14693
O     3.04089   1.41454   1.23139
N     1.17868   0.11073   1.29079
N     0.73553  -1.07305   1.18889
C    -0.22085  -1.71352   0.82662
C    -0.81679  -3.04198   1.04854
C     0.18617  -4.13095   1.31237
O    -2.02064  -3.21629   1.00303
C    -1.51601  -0.31087  -0.47460
C    -1.61343  -1.24547  -1.64501
C    -2.70238  -0.01321   0.45935
C    -3.57878   1.03704  -0.29357
C    -2.69678   2.31742  -0.26073
C    -1.41484   1.84044   0.50210
C    -2.04561   0.87778   1.52889
C    -0.76611   0.84500  -0.42666
Br    0.44946   1.38135  -1.77858
H     5.04197  -1.66318   0.51845
H     5.10791  -0.23799   1.61654
H     4.86274   0.00047  -0.14604
H     0.76012  -3.89306   2.22203
H    -0.34074  -5.08656   1.43081
H     0.90219  -4.18711   0.47711
H    -2.24477  -0.79313  -2.43011
H    -0.62607  -1.44040  -2.08691
H    -2.06938  -2.20316  -1.36197
H    -3.24231  -0.90166   0.80417
H    -4.52550   1.18813   0.24590
H    -3.82351   0.70959  -1.31402
H    -3.17886   3.12842   0.30492
H    -2.45286   2.70293  -1.26086
H    -0.76708   2.64156   0.87446
H    -2.78020   1.38026   2.17546
H    -1.30434   0.35803   2.14951
