49
Generated by autodE on: 2022-06-02. E = -1167.146386 Ha
C    -0.84986  -0.01361  -2.70104
N    -0.00889   0.04250  -1.52068
C     1.09155  -0.91393  -1.45590
C     2.13823  -0.66391  -2.55429
C     0.61397  -2.31727  -1.65698
N     0.24001  -3.39285  -1.88385
C     1.63884  -0.78084  -0.00275
C     2.85285   0.18248   0.14403
O     2.23271   1.46492   0.06309
C     1.34048   1.28912   1.17291
C     2.28962   0.83720   2.26925
C     3.24576   0.13747   1.62928
C     4.31248  -0.61669   2.17109
N     5.20182  -1.24418   2.58700
C     0.54256  -0.00065   0.78205
C    -0.65593   0.18245  -0.19682
C    -1.73172  -0.90785   0.01222
C    -1.47795  -2.10826   0.69147
C    -2.45082  -3.10966   0.77877
C    -3.70179  -2.93213   0.18581
C    -3.97103  -1.74062  -0.49548
C    -2.99746  -0.74420  -0.57840
C    -1.26217   1.57606  -0.01807
C    -2.12231   1.82023   1.06383
C    -2.60605   3.10514   1.31761
C    -2.24119   4.17076   0.48754
C    -1.38140   3.93752  -0.58846
C    -0.89034   2.65095  -0.83452
H    -1.39044  -0.97310  -2.81699
H    -1.59531   0.79074  -2.66418
H    -0.23979   0.14599  -3.60139
H     1.72092  -0.87326  -3.54824
H     2.46192   0.38429  -2.52198
H     3.00759  -1.31999  -2.40576
H     1.87134  -1.76574   0.41678
H     3.66882   0.07229  -0.57382
H     0.75387   2.18985   1.36569
H     2.14714   0.97001   3.34099
H     0.20916  -0.50172   1.69389
H    -0.51125  -2.29113   1.15958
H    -2.22296  -4.03379   1.31539
H    -4.46279  -3.71300   0.25564
H    -4.94617  -1.58323  -0.96281
H    -3.23116   0.18266  -1.10316
H    -2.41200   0.99698   1.71958
H    -3.27205   3.27471   2.16718
H    -2.62336   5.17589   0.68095
H    -1.08396   4.76208  -1.24102
H    -0.19865   2.48158  -1.65857
