35
Generated by autodE on: 2022-07-27. E = -767.250030 Ha
C     2.74083  -0.81269  -2.69931
C     2.00388  -0.67216  -1.39659
C     2.17562  -1.64126  -0.40552
N     2.37350  -2.46259   0.41227
N     1.12676   0.36719  -1.16937
C     1.33507   1.56968  -1.99935
C     0.09614   0.31415  -0.29549
C    -0.53290  -0.97308   0.05369
C    -0.91791  -1.24854   1.37911
C    -1.58999  -2.43070   1.70095
C    -1.89237  -3.36232   0.70567
C    -1.51117  -3.10180  -0.61864
C    -0.83695  -1.92810  -0.94100
C    -0.38839   1.54159   0.35112
C    -1.76766   1.72695   0.58929
C    -2.23536   2.87875   1.21909
C    -1.33949   3.87162   1.63451
C     0.03115   3.69687   1.41707
C     0.50353   2.54494   0.78778
H     3.32841  -1.74064  -2.68197
H     2.05195  -0.87140  -3.56144
H     3.44188   0.01714  -2.89122
H     0.53299   2.28816  -1.81939
H     1.30278   1.26889  -3.05437
H     2.31119   2.02423  -1.78643
H    -0.68381  -0.52809   2.16485
H    -1.87528  -2.62324   2.73804
H    -2.41892  -4.28639   0.95499
H    -1.74900  -3.82003  -1.40709
H    -0.54577  -1.74042  -1.97669
H    -2.47443   0.96200   0.26309
H    -3.30799   3.00621   1.38381
H    -1.70788   4.77274   2.13009
H     0.74029   4.45786   1.75166
H     1.57774   2.41018   0.64908
