14
Generated by autodE on: 2022-06-02. E = -399.800818 Ha
N     3.16018   0.59081  -0.70361
C     2.07881   0.24237  -0.44110
C     0.76714  -0.14744  -0.09863
C     0.07389  -1.23964  -0.46516
C    -1.32092  -1.04317   0.16469
C    -1.99500   0.11884  -0.59938
C    -1.31750   1.20998  -0.23204
C    -0.24114   0.69735   0.74735
O    -0.94883  -0.37336   1.38466
H     0.37937  -2.06321  -1.10846
H    -1.91215  -1.94602   0.34744
H    -2.80206   0.00580  -1.32195
H    -1.41919   2.24188  -0.56531
H     0.19280   1.40469   1.46051
