49
Generated by autodE on: 2022-06-02. E = -1167.044747 Ha. Imaginary frequency = -246.9 cm-1
C     0.02405   1.22698  -2.47077
N    -0.20801   0.08228  -1.57196
C     0.59905  -1.01505  -1.80681
C     1.58997  -1.00296  -2.94438
C     0.22486  -2.32546  -1.40550
N     0.07405  -3.45298  -1.13572
C     1.83810  -0.91487   0.21309
C     2.91137   0.15437  -0.04857
O     2.13715   1.35430   0.05410
C     1.58237   1.06729   1.35460
C     2.87854   0.83918   2.15247
C     3.73131   0.27504   1.27473
C     5.03638  -0.21758   1.47892
N     6.12002  -0.62855   1.61320
C     0.97107  -0.31796   1.10129
C    -1.03384   0.19494  -0.48210
C    -1.88569  -0.98131  -0.13479
C    -2.15214  -1.35595   1.19307
C    -3.03299  -2.39909   1.47943
C    -3.68163  -3.08068   0.44361
C    -3.45347  -2.69492  -0.88042
C    -2.57076  -1.65263  -1.16487
C    -1.55173   1.51406  -0.04762
C    -2.88900   1.63581   0.39695
C    -3.39809   2.85218   0.85145
C    -2.59132   3.99335   0.87788
C    -1.26742   3.89755   0.43797
C    -0.75521   2.68296  -0.01605
H     0.03397   0.86115  -3.50367
H    -0.79869   1.93776  -2.37191
H     0.97535   1.72816  -2.25648
H     2.25726  -1.86919  -2.83865
H     2.21157  -0.09770  -2.93883
H     1.10094  -1.07784  -3.93187
H     2.05530  -1.97765   0.13425
H     3.48958   0.10574  -0.97602
H     0.92831   1.86811   1.71138
H     3.02318   1.03696   3.21376
H     0.32803  -0.82311   1.81504
H    -1.67572  -0.81611   2.01157
H    -3.21660  -2.67992   2.51927
H    -4.36842  -3.89991   0.66884
H    -3.96811  -3.20545  -1.69796
H    -2.40269  -1.35661  -2.20230
H    -3.54608   0.76739   0.37485
H    -4.43844   2.90751   1.18101
H    -2.98890   4.94581   1.23569
H    -0.61940   4.77725   0.45320
H     0.28118   2.64206  -0.33803
