29
Generated by autodE on: 2022-10-26. E = -596.529595 Ha
C     4.18234   0.12584   1.47742
C     2.82294   0.10831   0.78613
O     2.81990   0.31415  -0.46362
C     1.67381  -0.14812   1.57986
C     1.78366  -0.35379   3.06901
N     0.38856  -0.22790   1.01409
C    -0.68247  -0.71605   1.90742
C     0.10241   0.03826  -0.25612
C    -1.19512   0.08255  -0.90912
C    -2.42156   0.45686  -0.31005
C    -3.59277   0.51876  -1.06534
C    -3.57944   0.21671  -2.43097
C    -2.37019  -0.12743  -3.04686
C    -1.19577  -0.18122  -2.30098
H     4.27093   0.96642   2.18514
H     4.95257   0.24161   0.70297
H     4.38058  -0.79907   2.04117
H     1.01600   0.20399   3.62786
H     2.75158   0.00910   3.42990
H     1.70537  -1.41206   3.38091
H    -0.28684  -1.51643   2.53850
H    -1.05768   0.09392   2.54590
H    -1.49951  -1.12178   1.30749
H     0.98118   0.24190  -0.86476
H    -2.46054   0.73957   0.74082
H    -4.52571   0.81689  -0.58099
H    -4.50180   0.26306  -3.01432
H    -2.34312  -0.35100  -4.11596
H    -0.25313  -0.44223  -2.78800
