27
Generated by autodE on: 2022-10-22. E = -962.485810 Ha
C    -1.63565   2.63724   0.26125
O    -1.09278   2.10326  -0.93809
C    -0.49434   0.82643  -0.84706
C     0.46951   0.80674  -2.05490
F     1.40641   1.75827  -1.93899
F    -0.19197   1.02512  -3.19824
F     1.10361  -0.37049  -2.16999
C     0.25946   0.56892   0.38462
C     0.68540  -0.00656   1.36083
C     0.68184  -1.09769   2.34062
F    -0.05988  -0.71280   3.43282
F     1.93243  -1.37137   2.82187
C     0.07570  -2.34593   1.71072
C    -1.25088  -2.12453   0.95897
C    -1.17023  -1.73598  -0.54435
C    -1.56658  -0.30157  -0.94804
H    -0.84294   2.86815   0.99301
H    -2.36507   1.95460   0.72846
H    -2.14885   3.56709  -0.01811
H    -0.06319  -3.05695   2.54072
H     0.83660  -2.76788   1.03624
H    -1.79768  -3.07653   1.02390
H    -1.86708  -1.39576   1.51168
H    -1.86748  -2.39183  -1.08691
H    -0.17357  -1.98078  -0.94075
H    -1.92547  -0.28956  -1.98813
H    -2.40869   0.02992  -0.32276
