23
Generated by autodE on: 2022-06-17. E = -629.269634 Ha
C     3.33914   1.92734  -0.38457
N     2.24550   1.01071  -0.15260
C     2.41442  -0.25525   0.30292
O     3.52205  -0.75434   0.57339
C     1.20579  -1.05251   0.47665
O     0.06249  -0.49995   0.18139
C    -1.14868  -0.99892   0.24900
C    -1.35482  -2.38178   0.71723
C    -2.21173  -0.10018  -0.16038
O    -3.39735  -0.41170  -0.15710
O    -1.77087   1.11475  -0.54640
C    -2.77193   2.04871  -0.96320
H     3.41928   2.19781  -1.45042
H     3.20891   2.85504   0.19531
H     4.27514   1.44770  -0.07492
H     1.29953   1.32340  -0.34764
H     1.25369  -2.07909   0.83928
H    -0.95691  -2.51354   1.74173
H    -2.42291  -2.62678   0.71087
H    -0.81222  -3.10068   0.07383
H    -3.32399   1.66642  -1.83479
H    -2.23591   2.96682  -1.23143
H    -3.48126   2.25093  -0.14688
