54
Generated by autodE on: 2022-06-08. E = -1795.786614 Ha
C   -10.49439  -2.69258  -5.24377
N    -9.50175  -1.99431  -4.45219
C    -8.61453  -1.17386  -5.02508
O    -8.45442  -1.07717  -6.24427
C    -7.69861  -0.39266  -4.08014
C    -7.80349  -0.66138  -2.53757
O    -8.73563  -1.07000  -1.88561
O    -6.61459  -0.33935  -2.02628
C    -5.79035   0.12860  -3.23315
C    -4.33746   0.02879  -2.90035
C    -3.40463   0.08598  -3.94627
C    -2.04056   0.02393  -3.66623
C    -1.60092  -0.09384  -2.34334
C    -2.53124  -0.15805  -1.30260
C    -3.89914  -0.10007  -1.57762
C    -6.45037   1.47494  -3.59842
C    -7.65968   1.16450  -4.11407
C    -8.81405   2.02022  -4.60495
C    -8.77323   2.11812  -6.13160
Cl  -10.38706   1.11985  -4.14326
C    -8.96714   3.42275  -4.00341
C    -9.12366   3.58152  -2.49289
C    -8.03107   2.99284  -1.60249
C    -6.58963   3.40582  -1.88227
C    -5.89045   2.83609  -3.19847
C    -4.44056   2.86452  -2.87939
N    -3.34223   3.10058  -2.59472
C    -5.94498   3.76841  -4.34700
N    -5.89213   4.49558  -5.24837
N    -6.27325  -0.71466  -4.29277
C    -5.92737  -2.13484  -4.21220
H   -10.01753  -3.21678  -6.08357
H   -11.23958  -1.99006  -5.65510
H   -11.00835  -3.42507  -4.60933
H    -9.63926  -1.91003  -3.44607
H    -3.74803   0.19388  -4.97595
H    -1.31716   0.07247  -4.48301
H    -0.53149  -0.13763  -2.12458
H    -2.19189  -0.25262  -0.26878
H    -4.62435  -0.14547  -0.76602
H    -9.65823   2.65927  -6.49505
H    -7.87255   2.68367  -6.41636
H    -8.72712   1.12797  -6.59703
H    -8.13185   4.03136  -4.36564
H    -9.85279   3.85861  -4.48902
H    -9.19557   4.66448  -2.29855
H   -10.08647   3.14645  -2.18308
H    -8.23091   3.31854  -0.56864
H    -8.10410   1.89718  -1.57117
H    -6.47911   4.49987  -1.91012
H    -5.97065   3.03627  -1.05395
H    -6.39944  -2.65639  -5.05459
H    -6.23908  -2.62095  -3.27081
H    -4.84111  -2.24152  -4.31699
