25
Generated by autodE on: 2022-06-08. E = -995.657458 Ha
C     2.71315  -1.87835  -0.62796
C     1.29194  -1.38140  -0.84280
Cl    0.23769  -2.85633  -1.27943
C     0.67225  -0.75832   0.31610
C     0.02475   0.00791   0.99315
C    -0.81216   1.19491   1.21590
C     0.02900   2.31570   1.69282
N     0.69497   3.20359   2.02507
C    -1.88618   0.95861   2.20171
N    -2.75218   0.76486   2.94638
C    -1.45419   1.56497  -0.18110
C    -0.45830   1.64321  -1.35177
C    -0.17613   0.35300  -2.17184
C     1.18136  -0.35130  -1.99095
H     3.35088  -1.03033  -0.33439
H     2.74802  -2.63846   0.16438
H     3.10450  -2.30920  -1.56028
H    -1.96560   2.52851  -0.04210
H    -2.22297   0.80296  -0.37544
H    -0.89380   2.37882  -2.04427
H     0.48818   2.09516  -1.00980
H    -0.22791   0.63414  -3.23424
H    -0.98842  -0.37704  -2.02211
H     1.96882   0.39983  -1.81130
H     1.45398  -0.88319  -2.91521
