29
Generated by autodE on: 2022-06-08. E = -800.082978 Ha
C     5.23558   0.08482   0.02813
N     3.84285   0.46582   0.11888
C     2.85230  -0.39061  -0.23045
O     3.09550  -1.52301  -0.68799
C     1.50339   0.12447  -0.02195
C     1.14377   1.34180   0.58139
O     1.75109   2.30752   1.03271
O    -0.28201   1.31551   0.62563
C    -0.71841   0.17273   0.08678
C    -2.14912  -0.08225   0.01576
C    -3.01845   1.02045  -0.11225
C    -4.39613   0.82150  -0.15921
C    -4.92400  -0.47159  -0.07145
C    -4.06716  -1.56692   0.07424
C    -2.68604  -1.38035   0.12259
N     0.30960  -0.55485  -0.32287
C     0.22746  -1.80304  -1.08288
H     5.85632   0.93995   0.32330
H     5.50623  -0.20603  -0.99943
H     5.47432  -0.76585   0.68871
H     3.58424   1.36008   0.52954
H    -2.60474   2.02719  -0.18451
H    -5.06246   1.67989  -0.26709
H    -6.00481  -0.62479  -0.10854
H    -4.47609  -2.57549   0.16323
H    -2.03363  -2.23920   0.27672
H     0.38228  -2.66407  -0.42006
H     1.01296  -1.79295  -1.84279
H    -0.75527  -1.86642  -1.55989
