54
Generated by autodE on: 2022-06-08. E = -1795.730118 Ha. Imaginary frequency = -345.7 cm-1
C   -10.77232  -2.69111  -4.90608
N    -9.62965  -2.25456  -4.13171
C    -8.52833  -1.76316  -4.72792
O    -8.32441  -1.85688  -5.94737
C    -7.57173  -1.09730  -3.80135
C    -7.75416  -1.03850  -2.35850
O    -8.71034  -1.24453  -1.63696
O    -6.53198  -0.66203  -1.84848
C    -5.68783  -0.39310  -2.90843
C    -4.25189  -0.30704  -2.58472
C    -3.33690   0.29102  -3.46609
C    -1.98647   0.37356  -3.12406
C    -1.53712  -0.13725  -1.90373
C    -2.44587  -0.73208  -1.02162
C    -3.79600  -0.81675  -1.35590
C    -6.57432   1.52404  -3.28007
C    -7.70108   1.28238  -3.78504
C    -8.93326   1.77253  -4.43520
C    -8.91849   1.46806  -5.93290
Cl  -10.39620   0.89417  -3.68760
C    -9.14865   3.28117  -4.21464
C    -9.30774   3.80631  -2.78807
C    -8.13329   3.59611  -1.81850
C    -6.75835   3.93030  -2.41771
C    -5.84162   2.66536  -2.62425
C    -5.35892   2.26366  -1.28274
N    -5.04342   2.00868  -0.19781
C    -4.69024   3.10104  -3.43892
N    -3.83609   3.51572  -4.10330
N    -6.20936  -1.01631  -4.00808
C    -5.58407  -0.96816  -5.32109
H   -11.45235  -3.25653  -4.25646
H   -11.32024  -1.83051  -5.32838
H   -10.45117  -3.33635  -5.73449
H    -9.76449  -2.02581  -3.14717
H    -3.67772   0.71971  -4.40618
H    -1.28636   0.85060  -3.81291
H    -0.48033  -0.06710  -1.63646
H    -2.10115  -1.13076  -0.06509
H    -4.50472  -1.27131  -0.66397
H    -8.77274   0.40192  -6.13536
H    -8.08736   2.02572  -6.39203
H    -9.86037   1.80254  -6.39020
H   -10.04576   3.55645  -4.79047
H    -8.30301   3.77914  -4.71523
H   -10.21662   3.37458  -2.34111
H    -9.49423   4.88938  -2.87980
H    -8.30111   4.23407  -0.93818
H    -8.14066   2.56321  -1.43898
H    -6.85327   4.40976  -3.40084
H    -6.19318   4.62515  -1.78119
H    -5.69515   0.04158  -5.74897
H    -6.08377  -1.68882  -5.97091
H    -4.52292  -1.22048  -5.22679
