21
Generated by autodE on: 2022-06-16. E = -662.105214 Ha
C    -2.90339   0.96748  -0.06341
N    -1.51534   0.61514   0.16674
N    -0.82056   1.33950   1.04170
C     0.45372   1.25679   0.79338
C     1.41761   1.88074   1.62087
N     2.22428   2.40666   2.27778
C     0.75991   0.36059  -0.39583
C     1.48343  -0.90922   0.04638
O     2.48464  -0.83236   0.74014
C     0.96430  -2.21543  -0.39996
C    -0.19351  -2.35016  -1.07444
C    -1.05192  -1.20705  -1.43502
O    -2.07606  -1.36816  -2.07983
C    -0.65900   0.18962  -0.96850
H    -3.36487   1.22808   0.89719
H    -2.98812   1.82430  -0.75642
H    -3.43293   0.11096  -0.49752
H     1.43166   0.84976  -1.11780
H     1.57488  -3.08278  -0.13574
H    -0.55779  -3.33096  -1.39081
H    -0.82813   0.87368  -1.81834
