9
Generated by autodE on: 2022-06-16. E = -280.381060 Ha
C    -2.68604   0.02652  -0.21614
N    -1.58339  -0.61682   0.50802
N    -0.45506  -0.41269   0.12179
C     0.68688  -0.38476  -0.27436
C     1.82102   0.38287  -0.10558
N     2.83220   0.96750  -0.03534
H    -2.48256   0.06360  -1.29688
H    -2.82577   1.05138   0.16147
H    -3.59917  -0.54684  -0.02258
