21
Generated by autodE on: 2022-06-16. E = -662.017803 Ha. Imaginary frequency = -316.3 cm-1
C    -3.01947   1.22890  -0.00933
N    -1.81803   0.51709   0.40242
N    -0.92968   1.06968   1.04442
C     0.27441   1.29175   1.09415
C     1.24226   1.55892   2.04649
N     2.13537   1.78797   2.76359
C     0.82866   0.43640  -0.96043
C     1.64997  -0.63649  -0.34355
O     2.81386  -0.44477  -0.00261
C     0.99943  -1.95484  -0.14400
C    -0.22039  -2.21999  -0.64435
C    -0.97395  -1.21124  -1.43493
O    -2.00847  -1.51991  -2.02512
C    -0.41016   0.14683  -1.49431
H    -3.73218   1.26870   0.83010
H    -2.78743   2.24950  -0.34979
H    -3.47027   0.64552  -0.82171
H     1.35493   1.35733  -1.21530
H     1.57944  -2.70045   0.40526
H    -0.69735  -3.19623  -0.52758
H    -0.94005   0.86838  -2.11925
