51
Generated by autodE on: 2022-06-07. E = -1383.678245 Ha
C     3.86934   3.39016   0.97988
N     2.61355   2.68118   0.83327
C     2.49474   1.37809   1.08793
O     3.44072   0.65320   1.43516
C     1.09084   0.82935   0.93726
N     0.12175   1.65237   1.06025
C    -1.16037   0.94414   0.98623
C    -1.68868   0.89587   2.36321
N    -2.01329   0.99375   3.47212
C    -2.20810   1.73432   0.14366
O    -3.40924   1.51170   0.27576
N    -1.69237   2.61508  -0.71595
C    -2.53157   3.32950  -1.66092
C    -0.80279  -0.47399   0.36692
C    -0.83018  -0.26649  -1.17480
O     0.14920   0.20553  -1.75527
N    -1.98420  -0.53551  -1.79910
C    -2.17301  -0.18812  -3.19721
C    -1.80014  -1.56419   0.81656
O    -2.85388  -1.25352   1.38462
N    -1.47517  -2.82197   0.51657
C    -2.35812  -3.92589   0.83354
C     0.69984  -0.64672   0.81704
C     0.84446  -1.29510   2.21953
C     1.47757  -1.54801  -0.17349
O     0.87620  -2.44626  -0.78964
N     2.79573  -1.40213  -0.26547
C     3.59260  -2.29013  -1.09144
H     4.69694   2.75193   0.64258
H     4.05452   3.67094   2.02983
H     3.84097   4.30100   0.36943
H     1.76080   3.19978   0.63810
H    -0.68361   2.72654  -0.75672
H    -1.88993   3.81478  -2.40575
H    -3.13698   4.09845  -1.15525
H    -3.21422   2.63313  -2.16943
H    -2.80186  -0.78808  -1.25161
H    -1.48391  -0.75933  -3.83707
H    -3.20453  -0.42566  -3.48225
H    -1.98893   0.88441  -3.36464
H    -0.60629  -2.96120  -0.01520
H    -3.29508  -3.87191   0.25443
H    -2.62109  -3.92368   1.90239
H    -1.84822  -4.86726   0.59417
H     0.59128  -2.36126   2.17121
H     1.88210  -1.19135   2.56063
H     0.18710  -0.80988   2.95315
H     3.25663  -0.71841   0.34357
H     3.53889  -3.33060  -0.73264
H     4.63675  -1.95615  -1.06021
H     3.24295  -2.27272  -2.13465
