21
Generated by autodE on: 2022-06-07. E = -641.268116 Ha
C     2.52776  -1.47762   1.85159
N     3.29591  -1.19430   0.65191
C     2.83613  -0.60918  -0.46055
O     3.46939  -0.37099  -1.48976
C     1.43085  -0.21360  -0.43778
N     0.34183   0.14521  -0.59440
C    -0.93535   0.49993  -0.59627
C    -1.48261   1.10157  -1.74782
N    -1.97569   1.59959  -2.67512
C    -1.69206   0.22310   0.64968
O    -1.13385  -0.31937   1.61362
N    -2.98729   0.60281   0.64695
C    -3.87679   0.39286   1.77081
H     1.49012  -1.13761   1.72994
H     2.95963  -0.95848   2.71983
H     2.51265  -2.55852   2.05503
H     4.27794  -1.46427   0.62354
H    -3.37279   1.02443  -0.19256
H    -3.28809   0.05888   2.63301
H    -4.63764  -0.37270   1.54649
H    -4.39377   1.32801   2.03410
