30
Generated by autodE on: 2022-06-07. E = -742.331739 Ha
C     3.91013  -1.48618  -0.64906
N     2.90092  -0.53151  -0.23230
C     1.81784  -0.27872  -0.98782
O     1.67586  -0.69641  -2.14121
C     0.82656   0.70210  -0.39538
C     1.27624   2.12894  -0.52682
C    -0.36359   0.28613   0.08972
C    -1.40848   1.24756   0.58644
O    -2.56055   1.25021   0.11995
N    -1.04441   2.06271   1.58791
C    -1.94751   3.06292   2.12635
C    -0.70811  -1.18055   0.09983
O     0.17106  -2.05296   0.13870
N    -2.01696  -1.48100   0.05829
C    -2.47910  -2.85293   0.04636
H     4.78144  -1.40124   0.01231
H     4.22557  -1.28074  -1.68163
H     3.53053  -2.52150  -0.60564
H     2.88260  -0.23550   0.73869
H     2.09873   2.33317   0.17961
H     0.47337   2.85413  -0.35054
H     1.68216   2.28749  -1.53894
H    -0.08731   2.02966   1.92283
H    -1.46877   3.54596   2.98647
H    -2.18986   3.83164   1.37481
H    -2.88973   2.59898   2.45486
H    -2.67317  -0.70672  -0.03623
H    -2.16827  -3.37855  -0.87178
H    -3.57449  -2.86028   0.10211
H    -2.07562  -3.41181   0.90482
