33
Generated by autodE on: 2022-07-27. E = -765.328679 Ha
C    -0.88005   0.39437   3.39110
N    -1.13292  -0.11903   2.06277
C    -1.41532   0.68705   0.99121
O    -1.64969   1.90269   1.16543
C    -1.43410   0.06797  -0.32252
C    -1.90642   0.63541  -1.53348
C    -2.53563   2.01632  -1.53581
O    -1.81165   0.02366  -2.63033
N    -0.90272  -1.26843  -0.45116
C    -1.89831  -2.32691  -0.68092
C     0.36498  -1.59072  -0.35539
C     1.55266  -0.76883  -0.19507
C     2.75383  -1.50245  -0.04849
C     3.97749  -0.85434   0.09024
C     4.02775   0.54235   0.07338
C     2.85063   1.28421  -0.08160
C     1.62011   0.64588  -0.20771
H     0.19626   0.39304   3.63907
H    -1.40565  -0.20749   4.14861
H    -1.24700   1.42565   3.45070
H    -0.91996  -1.09498   1.89986
H    -3.24077   2.16235  -0.70744
H    -3.04531   2.15334  -2.50036
H    -1.76069   2.79293  -1.43336
H    -2.47551  -2.05817  -1.57387
H    -1.40376  -3.29404  -0.83311
H    -2.56772  -2.37261   0.18944
H     0.56108  -2.66581  -0.40202
H     2.71247  -2.59381  -0.04577
H     4.89288  -1.43746   0.20810
H     4.98565   1.05622   0.18171
H     2.89222   2.37519  -0.09764
H     0.71929   1.24021  -0.32042
