47
Generated by autodE on: 2022-06-21. E = -1035.980176 Ha. Imaginary frequency = -396.5 cm-1
C    -0.49771   0.77960   3.50997
N    -0.90129   0.08404   2.30563
C    -1.15617   0.74502   1.15699
O    -1.16949   1.98190   1.11193
C    -1.50283  -0.14097  -0.00334
C    -2.78730   0.09180  -0.68867
C    -3.51956   1.38616  -0.43038
O    -3.23884  -0.69903  -1.52331
C    -0.23158   0.61916  -2.04656
C    -0.02699   2.01294  -1.74131
O    -0.84725   2.90299  -1.99386
C     0.77765  -0.38406  -2.10086
C     0.50343  -1.51556  -3.08123
C     2.24540   0.00783  -2.09135
C     0.53254  -1.41391  -0.29511
C     1.57065  -0.87802   0.63242
C     2.47284  -1.83446   1.14010
C     3.49568  -1.47423   2.02025
C     3.65192  -0.13960   2.40020
C     2.78193   0.82616   1.88295
C     1.75965   0.46394   1.00728
N    -0.84546  -1.34098  -0.13537
C    -1.57069  -2.56996  -0.52548
H    -0.14794   0.04340   4.24390
H    -1.33583   1.34585   3.94773
H     0.31760   1.48804   3.29934
H    -0.86396  -0.92879   2.28758
H    -3.66912   1.58388   0.64003
H    -4.48755   1.33467  -0.94592
H    -2.93398   2.22356  -0.84105
H    -1.17705   0.40687  -2.54881
H     0.94188   2.28763  -1.27004
H    -0.55776  -1.79556  -3.10358
H     0.77935  -1.18468  -4.09791
H     1.10266  -2.41036  -2.85660
H     2.48312   0.82196  -1.39907
H     2.52977   0.33308  -3.10659
H     2.87773  -0.85373  -1.83162
H     0.80452  -2.43393  -0.57315
H     2.36118  -2.88104   0.84736
H     4.17158  -2.24079   2.40620
H     4.45114   0.14956   3.08651
H     2.90231   1.87649   2.15754
H     1.12220   1.24683   0.60794
H    -1.66782  -2.67452  -1.61177
H    -1.01112  -3.42417  -0.12501
H    -2.56897  -2.56019  -0.08023
