35
Generated by autodE on: 2022-10-07. E = -878.732463 Ha
C     0.99544   2.63582  -1.46945
N     0.56077   1.48422  -2.23709
C     0.04126   0.35550  -1.72496
O    -0.57864  -0.48047  -2.38754
C     0.41084  -0.01456  -0.30469
N    -0.50714  -0.38800   0.54884
C    -1.89577  -0.30742   0.60838
C    -2.57094   0.74691  -0.10646
C    -4.07388   0.89875  -0.06397
O    -1.91305   1.57584  -0.76290
C    -2.39245  -1.21358   1.63300
C    -3.85552  -1.34133   1.96702
O    -1.57116  -1.91209   2.26319
C     1.82063  -0.20803   0.05144
C     2.78802  -0.42790  -0.95072
C     4.12322  -0.63096  -0.60734
C     4.51846  -0.61067   0.73446
C     3.56799  -0.38539   1.73607
C     2.23073  -0.18189   1.40126
H     1.79552   3.16099  -2.00918
H     0.16188   3.33568  -1.29507
H     1.38839   2.32534  -0.49380
H     0.29706   1.65202  -3.20632
H    -0.18455  -0.93906   1.36301
H    -4.34684   1.70864  -0.75275
H    -4.42467   1.15919   0.94540
H    -4.58552  -0.02524  -0.36782
H    -4.25596  -0.40234   2.37638
H    -3.96514  -2.13371   2.71841
H    -4.45133  -1.59678   1.07948
H     2.49225  -0.46162  -1.99969
H     4.86015  -0.80946  -1.39326
H     5.56720  -0.76293   0.99894
H     3.87236  -0.35280   2.78435
H     1.50772   0.03191   2.19126
