29
Generated by autodE on: 2022-07-27. E = -837.105035 Ha
C     4.50992   0.89675   1.23158
N     3.78085   0.69594  -0.00351
C     2.48360   0.27182   0.01079
O     1.80866   0.25252   1.06742
N     2.04903  -0.13061  -1.21866
O     0.74101  -0.61107  -1.15997
C    -0.22913  -0.12141  -0.46716
C    -0.15569   1.28953   0.06426
O     0.30656   2.19285  -0.59844
O    -0.74364   1.41849   1.24140
C    -0.72760   2.73362   1.82451
C    -1.43585  -0.92001  -0.42949
C    -2.68357  -0.35797  -0.07163
C    -3.83000  -1.14654  -0.08507
C    -3.75316  -2.49712  -0.44240
C    -2.52067  -3.06492  -0.79317
C    -1.36959  -2.28770  -0.78922
H     4.78163  -0.05078   1.73131
H     5.43346   1.45118   1.01774
H     3.90371   1.48607   1.93322
H     4.31686   0.46298  -0.83385
H    -1.25938   2.64371   2.77777
H    -1.23653   3.45029   1.16522
H     0.31123   3.05181   1.99145
H    -2.75855   0.69352   0.20096
H    -4.79126  -0.70448   0.18372
H    -4.65577  -3.11222  -0.44355
H    -2.46132  -4.12126  -1.06256
H    -0.40623  -2.72880  -1.04604
