35
Generated by autodE on: 2022-06-18. E = -915.718652 Ha. Imaginary frequency = -177.1 cm-1
C     3.12815   0.97934   2.17187
N     2.45948   0.09842   1.23807
C     2.74510   0.13478  -0.09770
O     3.68048   0.82354  -0.54422
N     2.03272  -0.66056  -0.96113
C     0.89634   0.65822  -2.87509
C    -0.42140   0.56179  -2.59168
C    -0.21480  -0.28791  -0.21940
C     0.01934   1.10477   0.38647
O     0.48451   2.06676  -0.17382
O    -0.40538   1.08639   1.64343
C    -0.28844   2.31679   2.38526
C    -1.52531  -0.91376  -0.12236
C    -2.67233  -0.13312   0.13508
C    -3.92882  -0.73148   0.17362
C    -4.05915  -2.10836  -0.03749
C    -2.92495  -2.88923  -0.29639
C    -1.66601  -2.30063  -0.34460
O     0.77717  -1.07551  -0.49046
H     4.17668   0.68575   2.35538
H     3.12892   2.01184   1.79172
H     2.58918   0.95809   3.12809
H     1.84253  -0.61638   1.60540
H     1.48044   1.54071  -2.60651
H     1.40978  -0.10996  -3.45570
H    -0.97401   1.38858  -2.14195
H    -1.00541  -0.30121  -2.92183
H     0.75490   2.65677   2.39524
H    -0.92759   3.08536   1.92853
H    -0.62947   2.08453   3.39969
H    -2.58632   0.94302   0.28888
H    -4.81207  -0.12013   0.36865
H    -5.04620  -2.57466  -0.00216
H    -3.02656  -3.96389  -0.46102
H    -0.78214  -2.90546  -0.54748
