43
Generated by autodE on: 2022-06-18. E = -809.298978 Ha
C     0.95768   3.46930   1.48452
N     0.59455   2.07583   1.35536
C     0.30834   1.51597   0.17240
O     0.37981   2.14565  -0.89149
C    -0.02555  -0.00168   0.25209
C     1.24657  -0.71754  -0.21074
C     1.76771  -0.47328  -1.49411
C     2.90620  -1.14096  -1.94877
C     3.55972  -2.06524  -1.12778
C     3.06471  -2.30248   0.15567
C     1.92301  -1.63332   0.60972
N    -0.36035  -0.32418   1.64799
C    -1.78967  -0.02530   1.83439
C    -2.47440   0.06453   0.43759
C    -2.90351   1.51587   0.15524
C    -3.74341  -0.79700   0.39390
C    -1.33929  -0.43246  -0.54358
C    -1.33312  -1.97040  -0.64941
C    -1.51243   0.10338  -1.96710
H     1.20301   3.68024   2.53283
H     0.13176   4.13174   1.17574
H     1.83211   3.71107   0.85962
H     0.48815   1.46251   2.16161
H     1.28634   0.25891  -2.13873
H     3.28553  -0.93374  -2.95243
H     4.45018  -2.58909  -1.48321
H     3.56836  -3.01176   0.81696
H     1.57745  -1.83667   1.62301
H    -0.22397  -1.32111   1.78655
H    -1.91014   0.92690   2.37559
H    -2.23963  -0.80736   2.46160
H    -3.57447   1.85982   0.95850
H    -2.05983   2.21753   0.10897
H    -3.45629   1.59524  -0.79263
H    -4.17850  -0.81971  -0.61842
H    -4.50311  -0.37189   1.06983
H    -3.56158  -1.83220   0.71377
H    -2.25177  -2.32258  -1.13793
H    -0.48682  -2.30862  -1.26363
H    -1.26075  -2.47158   0.32712
H    -2.50210  -0.19950  -2.34595
H    -1.43360   1.19178  -2.03394
H    -0.76299  -0.33360  -2.64326
