25
Generated by autodE on: 2022-07-27. E = -573.260537 Ha
C    -2.01033   0.75677   2.32542
N    -1.08569   0.10579   1.64870
C    -0.43958   0.27030   0.45049
C    -0.53402   1.49226  -0.34435
O    -0.20006   1.52343  -1.54709
N    -0.99151   2.63270   0.25656
C    -0.96591   3.89524  -0.45456
C     0.34923  -0.87949  -0.01106
C     1.51831  -0.71794  -0.79290
C     2.28479  -1.81488  -1.18030
C     1.92444  -3.11389  -0.79853
C     0.77319  -3.29572  -0.02871
C    -0.00829  -2.20041   0.34758
H    -2.50719   1.63084   1.91465
H    -2.29842   0.34376   3.29047
H    -0.77096  -0.74083   2.13171
H    -1.01704   2.67578   1.26980
H     0.06080   4.22849  -0.68877
H    -1.45097   4.66141   0.16424
H    -1.51326   3.81325  -1.40464
H     1.82739   0.28368  -1.08874
H     3.18528  -1.65250  -1.77854
H     2.53066  -3.97029  -1.10251
H     0.46363  -4.30115   0.26802
H    -0.92819  -2.38689   0.90776
