18
Generated by autodE on: 2022-05-31. E = -534.593887 Ha
C    -0.10094  -2.36663  -0.09474
C    -0.04358  -1.02751  -0.04146
C     1.29354  -0.35815  -0.10287
O     2.27355  -0.85158  -0.62614
O     1.31217   0.81261   0.53598
C     2.56402   1.51455   0.56150
C    -1.31891  -0.25375   0.07923
O    -2.33535  -0.69881   0.57561
O    -1.24008   0.95703  -0.47466
C    -2.42601   1.76504  -0.43308
H    -1.05861  -2.88710  -0.02610
H     0.80925  -2.95955  -0.20771
H     2.37509   2.44662   1.10615
H     3.32814   0.91758   1.08003
H     2.90204   1.73231  -0.46184
H    -2.72942   1.94604   0.60812
H    -3.24646   1.27049  -0.97272
H    -2.16352   2.70982  -0.92259
