30
Generated by autodE on: 2022-07-27. E = -522.455879 Ha
C    -1.73513   0.45481   1.41818
C    -0.72621   0.11354   0.35920
C     0.46391   0.87892   0.15970
C     1.54709   0.44191  -0.66957
C     2.68971   1.21444  -0.85554
C     2.84686   2.45096  -0.21186
C     1.82192   2.88275   0.64308
C     0.66968   2.12512   0.83332
N    -0.98900  -1.00570  -0.44968
C    -0.97309  -0.84372  -1.91614
C    -1.42168  -2.15881   0.05512
C    -2.10655  -3.16415  -0.81737
C    -1.19171  -2.46777   1.49324
H    -1.44969   0.18989   2.45669
H    -1.94249   1.53889   1.42413
H    -2.69125  -0.05085   1.21341
H     1.49765  -0.53617  -1.15078
H     3.48575   0.83348  -1.50265
H     3.74933   3.04915  -0.35552
H     1.92411   3.83255   1.17691
H    -0.09565   2.49936   1.51496
H    -2.00577  -0.87709  -2.29283
H    -0.39410  -1.64159  -2.40067
H    -0.54583   0.13059  -2.16497
H    -2.52717  -3.97166  -0.20407
H    -2.92495  -2.71598  -1.40513
H    -1.40968  -3.62179  -1.54241
H    -1.05268  -3.55296   1.61900
H    -2.03182  -2.17498   2.14967
H    -0.30200  -1.92950   1.85798
