43
Generated by autodE on: 2022-05-30. E = -1053.719227 Ha
C     4.26845  -1.22327  -1.29054
O     3.17399  -0.93948  -0.40412
C     2.23688  -0.11324  -0.86591
O     2.28641   0.41487  -1.95620
C     1.13325   0.16790   0.15100
C     1.58465   1.51082   0.82922
C     1.25452   1.71200   2.27526
O     2.19356   2.33927   0.18146
N     1.02708  -0.85853   1.19026
C    -0.20003  -1.14169   1.38877
C    -1.22245  -0.50122   0.48387
C    -2.15981   0.35757   1.30943
O    -1.94160   0.68387   2.46259
O    -3.25259   0.73055   0.64898
C    -4.17411   1.58657   1.34224
C    -1.98177  -1.52601  -0.43342
C    -1.03074  -2.67966  -0.79894
C     0.01504  -1.97859  -1.71335
C    -0.51350  -0.52699  -1.83369
C    -2.03384  -0.77388  -1.77271
C    -0.29459   0.30670  -0.52868
C    -0.67911   1.76798  -0.77098
H     3.89844  -1.69413  -2.21260
H     4.92416  -1.91316  -0.74733
H     4.80835  -0.29901  -1.54090
H     1.83120   0.99111   2.87604
H     1.52043   2.73649   2.56500
H     0.19284   1.51134   2.47534
H    -0.49278  -1.84893   2.17315
H    -3.67914   2.52607   1.62670
H    -4.55851   1.08623   2.24216
H    -4.98957   1.78338   0.63729
H    -2.93912  -1.84670  -0.00501
H    -1.59251  -3.44735  -1.35087
H    -0.57917  -3.17344   0.07231
H     0.04442  -2.43668  -2.71231
H     1.03012  -2.05841  -1.30545
H    -0.14632   0.00170  -2.72013
H    -2.38633  -1.41574  -2.59418
H    -2.64227   0.13677  -1.75187
H    -1.65032   1.85052  -1.27261
H    -0.74150   2.34454   0.16367
H     0.07747   2.24328  -1.40994
