26
Generated by autodE on: 2022-05-30. E = -540.188571 Ha
C     3.40686  -1.24645   0.32971
O     2.02537  -1.08812  -0.00627
C     1.50927   0.15453   0.11584
O     2.18927   1.09969   0.49243
C     0.09528   0.18980  -0.25383
C    -0.79982   1.17315   0.03714
C    -0.63183   2.46395   0.75329
C    -2.16402   0.64394  -0.36729
C    -2.50678  -0.45968   0.69037
C    -1.49563  -1.59310   0.35470
C    -0.68662  -0.98536  -0.83286
C    -1.79830  -0.22775  -1.58467
H     4.03986  -0.62051  -0.31676
H     3.63917  -2.30631   0.17089
H     3.58667  -0.97461   1.38052
H     0.40024   2.63425   1.07986
H    -0.94533   3.29953   0.10327
H    -1.30203   2.49140   1.63032
H    -2.94168   1.40868  -0.49065
H    -2.40783  -0.08084   1.71794
H    -3.54656  -0.79212   0.55424
H    -0.83853  -1.85022   1.19764
H    -2.01335  -2.51074   0.03704
H    -0.09416  -1.71070  -1.40179
H    -2.62330  -0.87688  -1.91653
H    -1.42022   0.35848  -2.43550
