18
Generated by autodE on: 2022-10-20. E = -514.386956 Ha
C    -2.68886  -0.10515  -0.92495
O    -1.68739  -1.03955  -0.49221
C    -0.56103  -0.56792  -0.00753
C    -0.04854   0.67858   0.20434
C    -0.54451   1.96528  -0.04462
N    -0.91063   3.06076  -0.22743
C     1.39413   0.37300   0.72347
C     2.19292  -0.21818  -0.45499
C     1.66138  -1.42678  -0.66402
C     0.55560  -1.55272   0.40271
O     1.13285  -0.81576   1.48934
H    -3.53288  -0.70472  -1.28437
H    -2.29520   0.51960  -1.74009
H    -3.00683   0.52557  -0.08174
H     1.86197   1.16321   1.31883
H     2.97035   0.30615  -1.00960
H     1.87291  -2.16418  -1.43691
H     0.21786  -2.55397   0.68939
