34
Generated by autodE on: 2022-10-20. E = -840.439756 Ha. Imaginary frequency = -321.9 cm-1
C    -0.98455  -1.05704   2.41133
O    -1.67997  -0.87721   1.18100
C    -1.06687  -0.17839   0.18886
C    -0.10894  -1.82762  -0.81568
C    -1.17740  -2.62986  -1.48077
N     0.79140  -1.17714  -1.58311
C     1.81380  -0.42238  -1.12972
C     2.51578  -0.66342   0.10302
C     3.68212   0.24794   0.39949
O     2.21612  -1.56214   0.91448
C    -0.08048   0.83455   0.28236
C     0.65279   1.26481   1.39322
N     1.28881   1.68057   2.28541
C    -0.49700   1.84578  -0.82536
C    -1.76559   2.53843  -0.30066
C    -2.71793   1.59848  -0.34890
C    -2.01658   0.35592  -0.92036
O    -1.05534   0.94931  -1.79830
H    -0.98789  -0.12576   2.99866
H     0.05721  -1.37308   2.24005
H    -1.52032  -1.83910   2.96469
H     0.28733  -2.18519   0.13121
H    -2.04491  -2.72215  -0.81117
H    -0.81955  -3.65240  -1.69326
H    -1.50201  -2.17538  -2.42982
H     0.47430  -0.94557  -2.52515
H     2.22990   0.27638  -1.85368
H     3.89948   0.95508  -0.41213
H     4.57512  -0.36304   0.60663
H     3.44933   0.81304   1.31784
H     0.30109   2.46770  -1.24274
H    -1.80941   3.55244   0.09594
H    -3.75267   1.63579  -0.01044
H    -2.63990  -0.38886  -1.42297
