54
Generated by autodE on: 2022-06-24. E = -1298.373565 Ha
C     2.02657  -1.70567   3.78789
N     1.39892  -1.41693   2.51405
C     1.58119  -0.25221   1.88065
O     2.32548   0.63996   2.30382
C     0.81984  -0.10046   0.54484
C     1.80387  -0.27846  -0.60645
C     1.58268  -1.23706  -1.60363
C     2.47468  -1.37352  -2.67183
C     3.60244  -0.55389  -2.75705
C     3.83621   0.39707  -1.75855
C     2.94734   0.53331  -0.69044
O    -0.19981  -1.09677   0.47739
C    -1.52285  -0.54081   0.55303
C    -2.01703  -0.55800   2.00367
C    -2.45662  -1.43990  -0.27313
O    -3.62870  -1.09810  -0.50133
N    -1.96084  -2.61346  -0.66856
C    -2.74940  -3.56475  -1.42851
C    -1.34492   0.88674  -0.04792
C    -2.38754   1.92221   0.41626
N    -3.66648   1.62690   0.14054
O    -2.04816   2.97130   0.97399
C    -1.30715   0.82717  -1.59665
C    -0.55644   1.98856  -2.17191
C     0.34572   2.67222  -1.43994
N     0.69125   2.37130  -0.13971
C     1.28392   3.40691   0.68619
C     0.04242   1.27361   0.52614
H     1.62003  -1.07268   4.59405
H     1.84982  -2.75774   4.04281
H     3.11109  -1.52943   3.73327
H     0.69708  -2.04341   2.13257
H     0.70582  -1.87871  -1.55102
H     2.28222  -2.12569  -3.44063
H     4.29795  -0.65733  -3.59336
H     4.71798   1.04040  -1.80967
H     3.14707   1.26778   0.08681
H    -1.40807   0.10268   2.63615
H    -3.06410  -0.23546   2.06171
H    -1.94516  -1.58239   2.39659
H    -0.98352  -2.79979  -0.46759
H    -2.14407  -4.46045  -1.61090
H    -3.05943  -3.14017  -2.39635
H    -3.65706  -3.85191  -0.87611
H    -3.90909   0.68175  -0.17766
H    -4.38830   2.26351   0.46452
H    -0.84515  -0.12701  -1.90061
H    -2.33487   0.79569  -1.98389
H    -0.72988   2.27621  -3.21024
H     0.87787   3.53144  -1.85757
H     0.52174   4.07744   1.12642
H     1.86005   2.95044   1.50114
H     1.97055   4.01450   0.07859
H    -0.10734   1.57354   1.56842
