20
Generated by autodE on: 2022-06-24. E = -457.715313 Ha
C     3.08157   0.18656   0.75100
N     1.81701  -0.17767   0.13347
C     1.81718  -0.95309  -1.03270
C     0.69376  -1.25472  -1.70300
C    -0.67488  -0.78911  -1.27070
C    -0.57400   0.05852  -0.01301
C    -1.77019   0.64373   0.61389
N    -2.95155   0.39004  -0.00331
O    -1.73375   1.33504   1.65208
C     0.62559   0.30511   0.58513
H     2.88762   0.70071   1.70075
H     3.68539  -0.71104   0.95614
H     3.66890   0.85775   0.10168
H     2.80164  -1.29743  -1.35483
H     0.77450  -1.87081  -2.60148
H    -1.33981  -1.66207  -1.10712
H    -1.16110  -0.22365  -2.09204
H    -3.79915   0.78361   0.39064
H    -3.01998  -0.15452  -0.85352
H     0.66837   0.91937   1.48594
