34
Generated by autodE on: 2022-06-24. E = -840.568517 Ha
C     0.83837   4.07893   0.52887
N     0.70435   2.67283   0.21412
C    -0.46218   2.01367   0.42292
O    -1.46685   2.59840   0.86858
C    -0.48600   0.57956   0.09198
O     0.71659   0.08648  -0.18788
C     1.13961  -1.00159  -0.78529
C     0.24276  -1.92726  -1.49910
C     2.60331  -1.15338  -0.80871
O     3.13617  -2.07752  -1.45001
N     3.33210  -0.25344  -0.10658
C     4.77751  -0.31943  -0.07264
C    -1.67571  -0.24450   0.26588
C    -1.59828  -1.49514   0.91900
C    -2.74973  -2.24936   1.15141
C    -3.99859  -1.77758   0.73823
C    -4.08974  -0.53486   0.09764
C    -2.94648   0.22554  -0.13444
H     1.88161   4.37959   0.37161
H     0.56725   4.28027   1.57713
H     0.19217   4.70543  -0.10909
H     1.47731   2.18890  -0.22605
H    -0.32448  -2.59740  -0.82648
H    -0.50836  -1.35992  -2.07531
H     0.84740  -2.54524  -2.17384
H     2.85452   0.43977   0.45763
H     5.15856   0.54107   0.49077
H     5.20151  -0.29285  -1.08878
H     5.13237  -1.24380   0.41364
H    -0.63542  -1.85889   1.28179
H    -2.66809  -3.21026   1.66480
H    -4.89775  -2.37181   0.91631
H    -5.06204  -0.15960  -0.23058
H    -3.02435   1.18855  -0.63859
