34
Generated by autodE on: 2022-07-27. E = -840.564920 Ha
C     0.41788  -0.67343   4.09112
N     0.34407  -0.66249   2.64297
C     0.69320   0.42962   1.92801
O     1.23183   1.41462   2.45695
C     0.48437   0.33790   0.46029
O    -0.59669  -0.22401  -0.06344
C    -1.83175  -0.40542   0.35182
C    -2.34581   0.16474   1.61112
C    -2.69675  -1.08923  -0.61641
O    -3.91383  -1.23530  -0.39415
N    -2.11397  -1.55110  -1.74953
C    -2.88849  -2.21550  -2.77518
C     1.48867   0.72761  -0.50961
C     1.18200   0.73375  -1.89328
C     2.14795   1.07443  -2.83680
C     3.43928   1.43666  -2.43506
C     3.75254   1.44772  -1.07065
C     2.79871   1.09675  -0.11809
H     1.45968  -0.59810   4.44187
H    -0.01177  -1.61235   4.46060
H    -0.14552   0.17043   4.51989
H    -0.04381  -1.47200   2.16959
H    -3.43662   0.25668   1.53269
H    -1.89513   1.16017   1.78181
H    -2.11533  -0.44033   2.50559
H    -1.11389  -1.43897  -1.87109
H    -3.36074  -3.13585  -2.39343
H    -3.69030  -1.56506  -3.16084
H    -2.22320  -2.48182  -3.60560
H     0.17440   0.47558  -2.22111
H     1.88644   1.06919  -3.89779
H     4.19165   1.71328  -3.17694
H     4.75644   1.72894  -0.74320
H     3.06254   1.11072   0.93871
