41
Generated by autodE on: 2022-10-21. E = -3513.900925 Ha
C     4.45653   0.47333  -0.59924
O     3.05279   0.20946  -0.45928
C     2.23336   1.25263  -0.52209
O     2.59117   2.39624  -0.70706
C     0.79614   0.84364  -0.34175
N    -0.12975   1.66839  -0.64445
C    -1.44704   1.11513  -0.31444
C    -1.96769   1.92335   0.89354
C    -2.46184   1.36564  -1.44001
C    -2.16365   2.44450  -2.43979
O    -3.51156   0.74603  -1.45027
C    -1.22056  -0.40330   0.05692
O    -1.82736  -0.75353   1.27662
C    -3.18923  -1.15004   1.25866
C    -1.46794  -1.48969  -1.02953
C    -0.80025  -1.13694  -2.37635
C     0.70844  -1.40085  -2.12189
C     0.74133  -1.75821  -0.62194
C    -0.54045  -2.60226  -0.49842
C     0.35290  -0.49343   0.18870
Br    0.99358  -0.62550   2.06635
H     4.79667   1.14771   0.19964
H     4.66365   0.92881  -1.57813
H     4.95508  -0.49875  -0.51659
H    -2.97836   1.59842   1.16914
H    -1.99684   2.99246   0.63942
H    -1.30001   1.77849   1.75311
H    -1.97876   3.39537  -1.91568
H    -1.24303   2.21008  -2.99472
H    -3.00881   2.55159  -3.13177
H    -3.54974  -1.06831   2.29438
H    -3.80294  -0.50596   0.61096
H    -3.30793  -2.19760   0.93252
H    -2.52810  -1.73888  -1.13164
H    -1.19758  -1.79562  -3.16126
H    -0.99173  -0.10872  -2.70853
H     1.34886  -0.54980  -2.38726
H     1.06595  -2.26569  -2.69928
H     1.68062  -2.20807  -0.28508
H    -0.52088  -3.49203  -1.14437
H    -0.77174  -2.90145   0.53210
