20
Generated by autodE on: 2022-10-21. E = -552.786818 Ha
C     3.88808   0.63659  -0.18532
O     2.53031   0.50266   0.27439
C     1.95973  -0.68832   0.09858
O     2.48869  -1.66295  -0.39819
C     0.61850  -0.72209   0.67548
N    -0.49321  -0.61929   0.22006
C    -1.71269  -0.38344  -0.12537
C    -2.58355  -1.46925  -0.68663
C    -2.16922   1.01338   0.08389
C    -3.58591   1.32340  -0.31362
O    -1.41679   1.85819   0.56273
H     4.18608   1.66137   0.06270
H     4.53761  -0.08605   0.32881
H     3.94274   0.47625  -1.27143
H    -3.48258  -1.60950  -0.06551
H    -2.92204  -1.21413  -1.70358
H    -2.03518  -2.41947  -0.72962
H    -4.28949   0.69176   0.25261
H    -3.74290   1.09786  -1.38068
H    -3.79975   2.38237  -0.12079
