41
Generated by autodE on: 2022-10-21. E = -3513.789916 Ha. Imaginary frequency = -353.6 cm-1
C     4.26736   1.76548   0.32299
O     2.83101   1.69487   0.40853
C     2.20600   1.09352  -0.59378
O     2.73233   0.64595  -1.59181
C     0.75320   0.96373  -0.34112
N    -0.15528   1.76124  -0.32565
C    -1.45214   1.98918  -0.08986
C    -1.84741   2.26339   1.32901
C    -2.35243   2.23380  -1.19630
C    -1.78433   2.33983  -2.59504
O    -3.57183   2.40568  -1.00741
C    -1.19124  -1.12413   0.31998
O    -1.81425  -0.87024   1.47473
C    -3.23944  -0.75468   1.45108
C    -1.75257  -1.96052  -0.82994
C    -1.59751  -1.20655  -2.17397
C    -0.05589  -1.16985  -2.37685
C     0.48322  -1.89176  -1.11365
C    -0.59238  -2.99272  -0.94119
C     0.18707  -1.02675   0.12954
Br    1.36222  -1.18488   1.67188
H     4.56825   2.34013  -0.56394
H     4.69102   0.75230   0.27169
H     4.59497   2.27195   1.23737
H    -2.93245   2.41511   1.37782
H    -1.35075   3.17002   1.71544
H    -1.56677   1.42167   1.98166
H    -1.57449   3.40432  -2.79952
H    -0.84938   1.78312  -2.73436
H    -2.53529   2.00078  -3.32204
H    -3.53735  -0.38698   2.44034
H    -3.55310  -0.03855   0.67599
H    -3.71129  -1.73167   1.26748
H    -2.75862  -2.35168  -0.64371
H    -2.09379  -1.77479  -2.97424
H    -2.05453  -0.21312  -2.13311
H     0.34517  -0.15557  -2.49133
H     0.24173  -1.73963  -3.26936
H     1.52969  -2.20903  -1.18816
H    -0.68877  -3.66418  -1.80997
H    -0.45620  -3.58757  -0.02636
