23
Generated by autodE on: 2022-06-18. E = -351.521383 Ha
C    -3.60347   0.88618   0.72650
C    -2.55724   0.38284   0.03525
C    -2.74891  -0.27314  -1.30829
C    -1.20726   0.46996   0.58848
C    -0.07806   0.00584  -0.00346
C     1.23869   0.11859   0.58994
C     2.41207  -0.31299   0.06207
C     2.54307  -0.99723  -1.26909
C     3.70466  -0.12421   0.80461
H    -4.62369   0.83469   0.33611
H    -3.46115   1.36203   1.70170
H    -3.80727  -0.27131  -1.60479
H    -2.16920   0.24546  -2.08994
H    -2.39454  -1.31727  -1.29512
H    -1.12166   0.95624   1.56772
H    -0.15485  -0.48055  -0.97962
H     1.27568   0.60696   1.57128
H     3.22739  -0.42939  -1.92403
H     1.58913  -1.12148  -1.79764
H     2.99919  -1.99508  -1.14286
H     3.55908   0.37908   1.77173
H     4.41752   0.47011   0.20504
H     4.19690  -1.09646   0.98713
