19
Generated by autodE on: 2022-06-18. E = -568.917765 Ha
C    -3.93363   0.21640  -0.12865
N    -2.52792  -0.12763  -0.17283
C    -1.54617   0.72805   0.16875
O    -1.70861   1.89350   0.55654
C    -0.18401   0.19286   0.05723
N     0.91753   0.86449   0.34815
C     2.03578   0.09882   0.14115
C     3.43052   0.54866   0.37668
C     1.58461  -1.15715  -0.31818
O     2.11144  -2.21056  -0.65642
O     0.14558  -1.03067  -0.35020
H    -4.39283   0.11946  -1.12481
H    -4.03481   1.25423   0.20892
H    -4.47732  -0.43932   0.56938
H    -2.26445  -1.06243  -0.47172
H     0.89960   1.82977   0.68088
H     4.11637  -0.26245   0.09537
H     3.68531   1.43730  -0.22472
H     3.61239   0.79768   1.43593
