42
Generated by autodE on: 2022-06-18. E = -920.424543 Ha. Imaginary frequency = -440.1 cm-1
C     1.95987  -2.35410  -1.28182
C     1.24491  -2.59337  -0.15919
C     0.92847  -4.00579   0.26569
C     0.67753  -1.54874   0.68714
C     0.90435  -0.15274   0.54415
C     0.92913   0.67426   1.76405
C     1.54708   1.86145   1.93822
C     2.35073   2.56353   0.87858
C     1.44529   2.59896   3.24502
C    -0.76509   0.42531  -0.41110
C    -0.67655   1.89778  -0.61524
O    -1.10047   2.65811   0.26213
N    -0.07118   2.28331  -1.75089
C     0.26087   3.66305  -2.04027
N    -1.74026  -0.08742   0.41583
C    -1.78643  -1.42930   0.19168
C    -2.57529  -2.39387   0.99420
C    -1.26748  -1.63382  -1.13410
O    -1.24949  -2.59110  -1.88896
O    -0.72425  -0.39850  -1.51562
H     2.19270  -1.34207  -1.62184
H     2.33679  -3.18014  -1.89050
H     1.43554  -4.74688  -0.36856
H     1.22560  -4.17936   1.31358
H    -0.15729  -4.18811   0.20882
H     0.30202  -1.88789   1.65626
H     1.59097   0.14681  -0.25173
H     0.36290   0.26591   2.60986
H     2.46055   1.98223  -0.04563
H     3.35923   2.80627   1.25653
H     1.87663   3.52590   0.61926
H     2.44582   2.79872   3.66805
H     0.97076   3.58542   3.09504
H     0.85638   2.04325   3.98982
H     0.27216   1.55818  -2.37355
H     0.04502   3.89265  -3.09342
H    -0.34275   4.31839  -1.40107
H     1.32689   3.86821  -1.84753
H    -1.93124   0.34695   1.31683
H    -2.30889  -3.41997   0.70862
H    -3.65701  -2.26068   0.81919
H    -2.38657  -2.26172   2.06994
