38
Generated by autodE on: 2022-06-22. E = -1142.411364 Ha
C     5.07093  -1.38205   0.72586
N     3.78722  -0.70740   0.67947
C     2.69632  -1.33452   0.24232
O     2.66308  -2.51614  -0.11345
C     1.39658  -0.52742   0.16600
N     0.25327  -1.34151   0.43326
C    -0.75315  -0.41042  -0.09437
C    -2.16777  -0.91028  -0.12402
C    -3.13528  -0.31097  -0.94567
C    -4.45239  -0.77575  -0.93388
C    -4.81967  -1.83867  -0.10348
C    -3.86027  -2.43611   0.71898
C    -2.54215  -1.97390   0.71035
C    -0.11216  -0.00779  -1.44282
O    -0.60183   0.36630  -2.47656
O     1.22720  -0.09383  -1.25073
C    -0.45018   0.80726   0.87864
C    -1.08014   2.11561   0.45843
O    -2.29076   2.27155   0.52533
C    -0.21072   3.20338  -0.02841
C     1.13366   3.14389   0.02561
C     1.86726   1.98002   0.55060
O     3.08976   2.02030   0.63359
C     1.09987   0.74821   1.00258
H     5.80908  -0.70866   1.17747
H     5.00656  -2.29955   1.32961
H     5.41322  -1.66295  -0.28338
H     3.73400   0.30150   0.85171
H     0.30580  -2.20698  -0.11102
H    -2.85917   0.51617  -1.59695
H    -5.19599  -0.30184  -1.57883
H    -5.85062  -2.20015  -0.09735
H    -4.13678  -3.26728   1.37180
H    -1.79874  -2.44117   1.35673
H    -0.91310   0.52652   1.83253
H    -0.72626   4.08879  -0.40884
H     1.75603   3.97637  -0.31163
H     1.39119   0.56197   2.04554
