26
Generated by autodE on: 2022-07-27. E = -760.748381 Ha
C     5.27265   0.52330   0.97320
N     3.94716   0.60604   0.39493
C     2.86533   0.02815   0.94376
O     2.84699  -0.63404   1.98919
C     1.60457   0.22289   0.20731
N     0.44304  -0.27399   0.58339
C    -0.55696   0.07033  -0.30131
C    -1.94827  -0.32109  -0.17121
C    -2.89799   0.10709  -1.12507
C    -4.23765  -0.26128  -1.00634
C    -4.66569  -1.06132   0.05856
C    -3.73243  -1.49234   1.00779
C    -2.39050  -1.12980   0.89809
C     0.06378   0.85477  -1.31058
O    -0.29668   1.42765  -2.32650
O     1.45221   0.90991  -0.91930
H     5.65802   1.52669   1.21172
H     5.22296  -0.06698   1.89521
H     5.97334   0.03824   0.27606
H     3.82665   1.12469  -0.47070
H     0.34553  -0.83548   1.43067
H    -2.57363   0.73056  -1.95795
H    -4.95527   0.08233  -1.75536
H    -5.71608  -1.34704   0.14817
H    -4.05093  -2.11880   1.84442
H    -1.68536  -1.48380   1.65331
