38
Generated by autodE on: 2022-06-22. E = -1142.383192 Ha. Imaginary frequency = -408.1 cm-1
C     5.06529  -0.86037   0.45546
N     3.71662  -0.64914  -0.03724
C     2.64811  -1.09555   0.63111
O     2.67236  -1.83635   1.61714
C     1.32146  -0.60195   0.14720
N     0.22997  -1.43488   0.22089
C    -0.76671  -0.88951  -0.51488
C    -2.15687  -1.30223  -0.51914
C    -3.08755  -0.62114  -1.33235
C    -4.43365  -0.98220  -1.30461
C    -4.87054  -2.02145  -0.47769
C    -3.95198  -2.70127   0.33173
C    -2.60627  -2.34537   0.31735
C    -0.10950   0.02334  -1.45632
O    -0.49791   0.63934  -2.42180
O     1.22765   0.05532  -1.05506
C    -0.58275   1.08507   1.02506
C    -0.93861   2.22193   0.19976
O    -2.10292   2.46104  -0.15136
C     0.16709   3.12105  -0.22894
C     1.42768   2.96637   0.21739
C     1.78804   1.87501   1.14887
O     2.90371   1.81544   1.65808
C     0.75455   0.83117   1.41482
H     5.77794  -0.67289  -0.35678
H     5.18115  -1.89529   0.80367
H     5.29005  -0.18119   1.29455
H     3.56846   0.02332  -0.78462
H     0.10536  -2.04530   1.02857
H    -2.74973   0.19022  -1.97403
H    -5.14711  -0.44703  -1.93489
H    -5.92588  -2.30248  -0.46150
H    -4.28810  -3.51321   0.98003
H    -1.90676  -2.88395   0.95899
H    -1.40797   0.55302   1.49730
H    -0.10885   3.92989  -0.91012
H     2.23631   3.64208  -0.07178
H     0.93746   0.25970   2.32874
