67
Generated by autodE on: 2022-07-02. E = -2160.714944 Ha
C   -11.66549   0.20486  -2.48440
N   -10.60393  -0.36866  -1.67627
C   -10.43398  -0.00668  -0.40376
O   -11.20669   0.76897   0.17388
C    -9.26729  -0.65762   0.38477
C   -10.04956  -1.84219   1.04890
O    -9.96103  -2.99125   0.61631
N   -10.87107  -1.50185   2.05141
C   -11.62779  -2.48989   2.79538
C    -8.15467  -1.18638  -0.55403
C    -6.80856  -1.52583   0.08093
C    -6.77513  -2.62391   1.14564
C    -7.45406  -2.37242   2.49995
C    -7.29971  -1.00413   3.17580
Cl   -5.44129  -0.66925   3.16910
C    -7.78186  -1.12985   4.62311
C    -9.12890  -0.87369   4.90821
C    -9.63436  -1.05463   6.19807
C    -8.79747  -1.50042   7.22286
C    -7.45447  -1.77264   6.94237
C    -6.95117  -1.59264   5.65292
C    -7.91047   0.19108   2.47541
C    -8.69264   0.34254   1.37982
C    -8.89464   1.87325   1.26491
C    -9.33781   2.52315  -0.04779
C   -10.36909   3.60509  -0.01047
O    -8.74589   2.18419  -1.05582
O    -9.83710   2.22847   2.37640
C    -9.11225   2.08735   3.50079
O    -9.53430   2.29539   4.60581
C    -7.68813   1.64454   3.01194
C    -6.60555   1.89838   4.04441
O    -6.76152   1.66323   5.22157
O    -5.50948   2.42998   3.52241
C    -4.41090   2.64764   4.42168
N    -7.61703   2.37832   1.73063
C    -7.50350   3.84036   1.80862
H   -11.50740   1.28538  -2.63066
H   -11.67292  -0.29116  -3.46207
H   -12.64265   0.06214  -2.00050
H    -9.92175  -0.97251  -2.12038
H   -10.95974  -0.52119   2.29747
H   -10.95584  -3.24059   3.24035
H   -12.34945  -3.01395   2.14877
H   -12.17308  -1.98290   3.60038
H    -7.97419  -0.40771  -1.30785
H    -8.55048  -2.07427  -1.06850
H    -6.15187  -1.85047  -0.74257
H    -6.34576  -0.61038   0.47800
H    -5.71586  -2.84503   1.34526
H    -7.21212  -3.54852   0.73538
H    -8.52782  -2.58177   2.47428
H    -7.05253  -3.10529   3.21422
H    -9.79704  -0.53536   4.12017
H   -10.68683  -0.84035   6.39678
H    -9.18752  -1.63637   8.23417
H    -6.78908  -2.12431   7.73431
H    -5.90050  -1.79864   5.45000
H   -10.62178   3.89690  -1.03771
H    -9.96189   4.47600   0.52857
H   -11.26320   3.27416   0.53120
H    -4.70852   3.32460   5.23447
H    -4.07866   1.68766   4.84232
H    -3.61466   3.09775   3.81885
H    -8.30605   4.32482   2.39214
H    -7.51097   4.24746   0.78931
H    -6.53947   4.09398   2.25922
