23
Generated by autodE on: 2022-07-02. E = -741.491374 Ha
C    -4.30074   0.37424   0.02355
O    -2.90156   0.66646  -0.07594
C    -2.05928  -0.35657   0.13814
O    -2.44792  -1.48478   0.40628
C    -0.67598   0.07113   0.00611
C    -0.20859   1.38454  -0.30668
O    -0.71108   2.46248  -0.53827
O     1.21164   1.24842  -0.31482
C     1.53316  -0.01479  -0.03577
C     2.94671  -0.44097   0.01772
C     3.95940   0.63029  -0.25197
O     3.23058  -1.60351   0.26884
N     0.44236  -0.74078   0.16124
C     0.44560  -2.17507   0.48650
H    -4.59295  -0.38325  -0.71832
H    -4.81839   1.31931  -0.17789
H    -4.55134   0.01217   1.03135
H     3.85411   1.44340   0.48445
H     4.96628   0.19902  -0.19654
H     3.78813   1.07198  -1.24676
H     0.93093  -2.72454  -0.32826
H    -0.59068  -2.49335   0.60393
H     1.00942  -2.33004   1.41315
