67
Generated by autodE on: 2022-07-02. E = -2160.655612 Ha. Imaginary frequency = -311.2 cm-1
C   -11.56755   0.51981  -2.56026
N   -10.55848  -0.14276  -1.75415
C   -10.48067   0.05240  -0.43342
O   -11.30716   0.72921   0.18951
C    -9.34707  -0.66647   0.32958
C   -10.06084  -1.94167   0.90741
O    -9.84538  -3.06365   0.45001
N   -10.93170  -1.71123   1.90017
C   -11.57389  -2.78786   2.62886
C    -8.15415  -1.08820  -0.56306
C    -6.82067  -1.38977   0.13526
C    -6.70860  -2.50059   1.19535
C    -7.34875  -2.35223   2.58958
C    -7.31776  -0.96963   3.28393
Cl   -5.52766  -0.39827   3.25926
C    -7.79775  -1.09660   4.72553
C    -9.16853  -0.96865   4.98826
C    -9.66494  -1.15314   6.28073
C    -8.79669  -1.47275   7.32761
C    -7.42967  -1.61324   7.06903
C    -6.93354  -1.43011   5.77630
C    -8.10598  -0.02418   2.48120
C    -8.82791   0.14506   1.47315
C    -9.12441   2.35305   1.46189
C    -9.63837   2.84366   0.13348
C   -10.87882   3.68078   0.17146
O    -9.00999   2.60654  -0.88363
O    -9.99380   2.37173   2.51503
C    -9.26019   2.21604   3.68901
O    -9.80380   2.11447   4.76261
C    -7.87243   2.23581   3.25271
C    -6.77120   2.33301   4.22207
O    -6.89655   1.98368   5.38110
O    -5.65105   2.84720   3.71594
C    -4.51348   2.88865   4.58907
N    -7.87876   2.62757   1.92830
C    -6.69107   2.66976   1.07868
H   -11.35916   1.59840  -2.65094
H   -11.57261   0.07390  -3.56224
H   -12.56127   0.39769  -2.10707
H    -9.82057  -0.65438  -2.22458
H   -11.04720  -0.75677   2.22621
H   -12.12605  -3.45181   1.94668
H   -12.27704  -2.35508   3.35067
H   -10.83368  -3.39479   3.17612
H    -7.96075  -0.26115  -1.26187
H    -8.47470  -1.95791  -1.15529
H    -6.12511  -1.67108  -0.67267
H    -6.41490  -0.45585   0.54815
H    -5.62950  -2.65066   1.35392
H    -7.08835  -3.44627   0.77571
H    -8.40870  -2.64175   2.58037
H    -6.85607  -3.06436   3.26902
H    -9.85297  -0.71673   4.17939
H   -10.73524  -1.03897   6.46715
H    -9.18204  -1.61039   8.34058
H    -6.74082  -1.86298   7.87944
H    -5.86515  -1.53307   5.58630
H   -11.23618   3.85293  -0.85138
H   -10.62542   4.64632   0.64367
H   -11.65846   3.21001   0.78248
H    -4.72067   3.52432   5.46151
H    -4.25748   1.87386   4.92565
H    -3.69540   3.31120   3.99506
H    -6.03531   3.47916   1.41180
H    -7.00055   2.82975   0.04435
H    -6.15779   1.71197   1.16112
