42
Generated by autodE on: 2022-06-21. E = -1232.267692 Ha
C     4.10027  -1.95693  -0.29803
N     2.98175  -1.05006  -0.47392
C     2.12740  -0.78737   0.52111
O     2.23392  -1.22997   1.66396
C     0.95587   0.15075   0.14870
C     1.25706   1.57869   0.63009
O     1.26873   2.54275  -0.10081
O     1.51507   1.60523   1.92761
C     1.71805   2.89811   2.52372
O     0.81442   0.21780  -1.27506
C    -0.41995  -0.34847  -1.68630
C    -0.23006  -1.79571  -1.97128
N    -0.00018  -2.91555  -2.15764
C    -0.84824   0.31410  -2.93162
N    -1.16642   0.83780  -3.91374
C    -1.37623  -0.09929  -0.48678
C    -2.61046  -0.99168  -0.57929
N    -3.21322  -1.27987   0.57790
O    -3.01053  -1.36377  -1.68663
C    -1.80465   1.39378  -0.46569
C    -1.96614   1.92044   0.92769
C    -1.52957   1.25260   2.01085
N    -0.91668   0.00805   1.95029
C    -0.44891  -0.62604   3.17284
C    -0.41554  -0.43517   0.68706
H     3.76204  -3.00269  -0.21270
H     4.76784  -1.87036  -1.16367
H     4.65912  -1.70196   0.61364
H     2.75473  -0.70263  -1.40075
H     0.81611   3.51239   2.39085
H     2.58192   3.39826   2.06472
H     1.90168   2.71122   3.58722
H    -2.80633  -0.98228   1.46207
H    -4.05700  -1.84616   0.57298
H    -2.74059   1.49716  -1.03681
H    -1.05694   1.99464  -1.00944
H    -2.46116   2.88337   1.05995
H    -1.67210   1.64549   3.01959
H    -1.18828  -0.45869   3.96876
H     0.52824  -0.24024   3.50480
H    -0.35525  -1.70890   3.01104
H    -0.28759  -1.52485   0.74075
