20
Generated by autodE on: 2022-06-21. E = -457.715336 Ha
C     2.32533   0.73725  -2.03784
N     1.15520   0.14232  -1.41351
C     0.31615  -0.68622  -2.16908
C    -0.81491  -1.21517  -1.67618
C    -1.29291  -0.97150  -0.26585
C    -0.33833  -0.04100   0.46474
C    -0.59162   0.37348   1.85374
N    -1.71616  -0.12559   2.42601
O     0.15924   1.13792   2.49352
C     0.78597   0.44076  -0.13665
H     2.97309  -0.04045  -2.47195
H     2.89909   1.28719  -1.28151
H     2.04008   1.43763  -2.84076
H     0.65218  -0.87042  -3.19116
H    -1.41562  -1.85525  -2.32643
H    -2.31979  -0.55265  -0.27990
H    -1.39670  -1.93599   0.27313
H    -1.92489   0.12378   3.38653
H    -2.33806  -0.76139   1.94329
H     1.45493   1.10689   0.41060
