22
Generated by autodE on: 2022-06-21. E = -774.469150 Ha
C    -3.14926  -1.39781  -1.95634
N    -1.79871  -0.90425  -1.77484
C    -1.33756  -0.58424  -0.55835
O    -2.01597  -0.61225   0.47731
C     0.09795  -0.21668  -0.45441
O     0.56427   0.32314   0.62531
C     0.09430   0.90774   1.70730
C    -1.23008   1.35526   1.91849
N    -2.24203   1.86413   2.19797
C     1.09407   1.26781   2.64524
N     1.89550   1.55865   3.44005
C     1.14136  -0.60314  -1.43400
O     0.87047  -1.04692  -2.53844
O     2.37166  -0.38874  -0.99081
C     3.44602  -0.70654  -1.89317
H    -3.38093  -1.41156  -3.02791
H    -3.86596  -0.74352  -1.43963
H    -3.26664  -2.41765  -1.55290
H    -1.11745  -0.97421  -2.53028
H     3.42642  -1.77633  -2.14484
H     3.35889  -0.10857  -2.81138
H     4.36802  -0.45537  -1.35761
