42
Generated by autodE on: 2022-06-21. E = -1232.186059 Ha. Imaginary frequency = -243.1 cm-1
C     3.45820  -2.50661  -0.41754
N     2.80761  -1.22484  -0.60080
C     2.04992  -0.67487   0.37647
O     2.06455  -1.10604   1.53676
C     1.23512   0.49346  -0.04395
C     1.33875   1.81133   0.57003
O     1.06905   2.86172   0.00195
O     1.74238   1.74583   1.84945
C     1.77277   2.98058   2.57249
O     0.75659   0.58486  -1.31361
C    -0.03349  -0.34267  -1.86871
C     0.22866  -1.74226  -1.78127
N     0.34736  -2.89882  -1.71439
C    -0.71200   0.12009  -3.03330
N    -1.28830   0.50833  -3.96697
C    -1.66241  -0.17805  -0.08898
C    -2.56325  -1.11699  -0.83200
N    -2.52727  -2.42870  -0.51166
O    -3.34667  -0.67941  -1.68399
C    -1.99517   1.29198  -0.19453
C    -1.91248   1.98951   1.12947
C    -1.44035   1.40314   2.23782
N    -0.97486   0.07864   2.22457
C    -0.33126  -0.43818   3.42959
C    -0.99647  -0.62129   1.08461
H     2.71679  -3.30291  -0.23643
H     4.02291  -2.74961  -1.32569
H     4.15132  -2.48121   0.43656
H     2.80678  -0.81306  -1.52822
H     0.77752   3.44872   2.57528
H     2.50027   3.67431   2.12634
H     2.07249   2.72406   3.59516
H    -1.83504  -2.82341   0.11274
H    -3.04801  -3.07048  -1.10170
H    -2.99659   1.40443  -0.63882
H    -1.31569   1.80917  -0.90314
H    -2.24702   3.02728   1.18514
H    -1.37898   1.90267   3.20404
H     0.63541   0.05851   3.58974
H    -0.16926  -1.51635   3.32383
H    -0.98515  -0.25050   4.29255
H    -0.63512  -1.64715   1.17057
