47
Generated by autodE on: 2022-06-25. E = -1073.954997 Ha
C     4.16993   1.98917   1.27584
N     3.01884   1.20249   0.87898
C     3.09062   0.12997   0.08630
O     4.11966  -0.34720  -0.39568
C     1.73428  -0.51811  -0.25473
C     1.86111  -1.97821  -0.02430
N     1.91905  -3.11929   0.17479
O     0.69898   0.00235   0.54643
C    -0.58328  -0.05074  -0.14711
C    -1.20419   1.34467  -0.06478
C    -2.59626   1.51393  -0.04167
C    -3.16144   2.79224  -0.03513
C    -2.34332   3.92503  -0.04580
C    -0.95467   3.76669  -0.06830
C    -0.39114   2.48820  -0.08071
C    -1.45142  -1.08541   0.56747
C    -2.38103  -1.87928  -0.11783
C    -3.18968  -2.78705   0.57402
C    -3.07675  -2.91658   1.96028
C    -2.15278  -2.12626   2.65180
C    -1.35165  -1.21498   1.96089
C    -0.21682  -0.46382  -1.61557
C    -1.01969   0.20393  -2.72380
C     1.29486  -0.20569  -1.70838
C     2.01147  -0.97323  -2.80628
H     4.04278   3.04021   0.97588
H     5.06350   1.58347   0.78699
H     4.31201   1.95149   2.36685
H     2.09506   1.45685   1.21839
H    -3.25067   0.64186  -0.02997
H    -4.24853   2.90032  -0.01643
H    -2.78446   4.92449  -0.03503
H    -0.30205   4.64299  -0.07725
H     0.69216   2.38352  -0.10738
H    -2.48944  -1.79289  -1.19959
H    -3.90878  -3.39710   0.02222
H    -3.70463  -3.62965   2.49973
H    -2.05500  -2.21914   3.73618
H    -0.63459  -0.60050   2.50636
H    -0.35963  -1.55273  -1.68902
H    -0.84308   1.28921  -2.75125
H    -2.09922   0.04027  -2.59219
H    -0.73215  -0.21578  -3.69953
H     1.46862   0.87504  -1.83554
H     3.09440  -0.78900  -2.77379
H     1.83994  -2.05713  -2.71254
H     1.63968  -0.65493  -3.79131
