12
Generated by autodE on: 2022-06-25. E = -157.300303 Ha
C    -1.95008  -0.07271   0.22257
C    -0.48269   0.13605   0.44405
C     0.48268  -0.13602  -0.44407
C     1.95009   0.07269  -0.22256
H    -2.15725  -0.48789  -0.77634
H    -2.37479  -0.76060   0.97523
H    -2.50894   0.87473   0.32331
H    -0.19340   0.54755   1.42127
H     0.19340  -0.54750  -1.42129
H     2.15723   0.48812   0.77624
H     2.37489   0.76031  -0.97539
H     2.50886  -0.87484  -0.32300
