35
Generated by autodE on: 2022-06-25. E = -916.567822 Ha
C     4.73239  -1.36382  -0.30488
N     3.36815  -0.88106  -0.26627
C     3.05606   0.38179  -0.64997
O     3.91673   1.17497  -1.08068
C     1.66170   0.78502  -0.54476
C     1.24670   2.04102  -0.99546
N     0.93304   3.09874  -1.39193
O     0.79913  -0.18538  -0.13433
C    -0.46808  -0.23544   0.12590
C    -0.98803  -1.58202   0.30107
C    -2.22739  -1.80005   0.94232
C    -2.70668  -3.09610   1.11856
C    -1.96339  -4.19060   0.66379
C    -0.73057  -3.98545   0.02991
C    -0.24399  -2.69588  -0.15390
C    -1.28292   0.97447   0.26458
C    -0.84952   2.02003   1.10370
C    -1.65023   3.14566   1.28309
C    -2.87416   3.25131   0.61349
C    -3.30653   2.21944  -0.22674
C    -2.52355   1.07831  -0.39297
H     4.73790  -2.43004  -0.04640
H     5.16850  -1.24432  -1.30878
H     5.38204  -0.82772   0.40798
H     2.64560  -1.46627   0.13704
H    -2.80136  -0.95454   1.32176
H    -3.66301  -3.25406   1.62141
H    -2.34393  -5.20508   0.80204
H    -0.15199  -4.83866  -0.33043
H     0.70709  -2.53521  -0.66285
H     0.10436   1.93889   1.62791
H    -1.31590   3.94690   1.94529
H    -3.49355   4.14100   0.74756
H    -4.25952   2.30356  -0.75317
H    -2.85840   0.27119  -1.04635
