13
Generated by autodE on: 2022-05-29. E = -449.162433 Ha
C    -3.07808   0.35540   0.44611
N    -2.54667  -0.88540  -0.08839
C    -1.26221  -1.17148  -0.32425
O    -0.81285  -2.22186  -0.77555
C    -0.30105  -0.10190  -0.00489
N     0.61720   0.59004   0.17334
N     1.48668   1.47989   0.43396
C     2.75849   1.19894   0.18116
N     3.91028   1.08228   0.00707
H    -2.26319   1.06591   0.63969
H    -3.77525   0.81631  -0.26889
H    -3.60815   0.17230   1.39236
H    -3.19995  -1.63448  -0.31443
