16
Generated by autodE on: 2022-05-29. E = -743.987480 Ha
F    -0.59318   1.19251   1.91097
C    -0.71254   0.76325   0.67090
C     0.17266   0.15814  -0.12503
C     1.55051  -0.30049   0.13478
F     2.02212   0.14146   1.31342
F     2.41368   0.10813  -0.81990
F     1.62685  -1.65161   0.15417
C    -0.67100  -0.19482  -1.37812
C    -1.67978  -1.29158  -0.96444
C    -2.54457  -0.67792  -0.15224
C    -2.05204   0.78776  -0.09022
O    -1.54123   0.95365  -1.42234
H    -0.11341  -0.33471  -2.30984
H    -1.61862  -2.33838  -1.25896
H    -3.38809  -1.07668   0.40933
H    -2.76493   1.56574   0.20175
