15
Generated by autodE on: 2022-05-29. E = -400.074718 Ha
C     3.35361   0.97853   0.79449
C     2.22972   0.24769   0.25594
N     1.33507  -0.35526  -0.18205
C     0.27629  -1.02097  -0.66935
C    -1.04805  -0.57150  -0.42511
O    -2.07673  -1.12129  -0.83184
O    -1.10285   0.57219   0.33062
C    -2.40444   1.07466   0.61975
H     4.27630   0.49828   0.42983
H     3.34295   2.02345   0.44610
H     3.35347   0.95146   1.89579
H     0.46745  -1.91651  -1.25806
H    -3.00052   0.34250   1.18684
H    -2.94848   1.33488  -0.30179
H    -2.25693   1.97735   1.22666
