29
Generated by autodE on: 2022-05-29. E = -633.710935 Ha
C     3.61134  -1.15589   0.48177
N     2.21157  -0.99182   0.15354
C     1.71667   0.20725  -0.18942
O     2.43117   1.21975  -0.30148
C     0.25580   0.31168  -0.47675
C    -0.83788  -0.40867  -0.07973
C    -0.93291  -1.62094   0.75619
C    -2.25121  -1.88370   1.43058
O     0.00019  -2.41770   0.89051
C    -2.06401   0.40128  -0.49851
C    -2.09548   1.65093   0.44088
C    -0.84608   2.45229  -0.01351
C    -0.26062   1.56244  -1.16101
C    -1.55159   1.02956  -1.80634
H     3.81225  -2.21815   0.66865
H     3.89241  -0.57915   1.37940
H     4.25229  -0.81371  -0.34571
H     1.53822  -1.74378   0.33846
H    -2.14748  -2.71823   2.13567
H    -3.00635  -2.14181   0.66967
H    -2.61551  -0.98413   1.95006
H    -3.00544  -0.15671  -0.54245
H    -2.06374   1.36294   1.50093
H    -3.02241   2.21845   0.27211
H    -1.12175   3.43743  -0.41753
H    -0.10940   2.60782   0.78665
H     0.47121   2.07170  -1.79667
H    -2.20547   1.82723  -2.18946
H    -1.36509   0.28744  -2.59666
