44
Generated by autodE on: 2022-05-29. E = -1033.789874 Ha. Imaginary frequency = -260.6 cm-1
C    -0.51910   4.04959  -0.86353
N    -0.10347   2.66343  -0.80325
C    -0.98114   1.68528  -0.49504
O    -2.18691   1.92656  -0.32747
C    -0.44116   0.28599  -0.48292
C     0.31407  -0.22083  -1.71659
C    -0.79486  -0.47257  -2.78916
C    -1.55870  -1.70263  -2.21605
C    -0.78944  -2.00031  -0.89324
C     0.65107  -1.66799  -1.31213
C    -1.10124  -0.83247   0.03896
C    -2.23935  -0.88927   0.95611
C    -2.42498   0.15556   2.03529
O    -3.02106  -1.84831   0.91113
C     0.23406  -1.39212   1.99235
C    -0.07515  -2.64718   2.66209
N     0.91830  -0.41619   1.93048
C     1.22940   0.71751   1.30252
C     2.40014   0.80596   0.45235
O     2.68727   1.80990  -0.19871
O     3.11951  -0.32537   0.39333
C     4.18657  -0.36682  -0.56212
H    -1.35275   4.17799  -1.57053
H     0.32733   4.66073  -1.20194
H    -0.85354   4.42431   0.11921
H     0.89568   2.45636  -0.76533
H     1.13704   0.41715  -2.06035
H    -1.43920   0.40758  -2.92848
H    -0.32821  -0.70247  -3.75858
H    -1.49546  -2.56515  -2.89677
H    -2.62210  -1.50028  -2.02573
H    -0.97956  -2.99166  -0.46484
H     1.00140  -2.27096  -2.16355
H     1.37614  -1.74183  -0.49375
H    -2.44654  -0.36609   3.00572
H    -1.64754   0.92639   2.05312
H    -3.40371   0.63985   1.90060
H     0.49413  -3.44411   2.15571
H    -1.14432  -2.88515   2.56577
H     0.21485  -2.61268   3.72375
H     0.82513   1.64303   1.71342
H     4.92558   0.42015  -0.35432
H     3.79634  -0.24289  -1.58291
H     4.64832  -1.35512  -0.45381
