20
Generated by autodE on: 2022-06-26. E = -457.715319 Ha
C    -3.13981  -0.37034  -0.32921
N    -1.82457   0.02910   0.14351
C    -1.71938   0.97887   1.16727
C    -0.53865   1.43617   1.61324
C     0.78663   0.97518   1.05864
C     0.57304  -0.03480  -0.05725
C     1.70984  -0.63352  -0.77488
N     2.94348  -0.22157  -0.38784
O     1.58202  -1.47370  -1.68886
C    -0.67724  -0.42801  -0.43176
H    -3.03108  -1.17333  -1.06874
H    -3.67013   0.47341  -0.80174
H    -3.75658  -0.74291   0.50372
H    -2.67205   1.31885   1.57754
H    -0.53801   2.17409   2.41876
H     1.40853   0.54319   1.86960
H     1.37149   1.84626   0.69848
H     3.75354  -0.60403  -0.86312
H     3.08928   0.46485   0.34123
H    -0.80123  -1.15421  -1.23666
