44
Generated by autodE on: 2022-07-27. E = -1055.476852 Ha
C     3.01927  -2.42563  -3.55691
O     2.64152  -1.68487  -2.39614
C     1.31986  -1.44229  -2.23901
O     0.48566  -1.82299  -3.07324
C     0.98723  -0.68548  -1.06190
N    -0.35439  -0.39336  -1.01662
C    -1.18573   0.10729  -0.10509
C    -0.77797   0.27580   1.29800
C    -1.04713   1.47954   1.97591
C    -0.61007   1.66824   3.28703
C     0.09211   0.65392   3.94668
C     0.34157  -0.55687   3.29099
C    -0.08756  -0.74522   1.97835
C    -2.53472   0.47098  -0.55319
C    -2.79738   0.81824  -1.89739
C    -4.09319   1.11698  -2.31797
C    -5.15517   1.09495  -1.40811
C    -4.90758   0.76777  -0.06975
C    -3.61676   0.45867   0.35472
C     1.95729  -0.16509  -0.09279
C     2.94574  -0.99767   0.46920
C     3.82718  -0.51226   1.43581
C     3.73898   0.81428   1.87126
C     2.77297   1.65772   1.31096
C     1.89850   1.17695   0.33764
H     2.53697  -3.41476  -3.56942
H     4.10848  -2.54317  -3.50039
H     2.74947  -1.88415  -4.47630
H    -0.79373  -0.66352  -1.90608
H    -1.57776   2.28038   1.45778
H    -0.81011   2.61527   3.79355
H     0.44084   0.80456   4.97092
H     0.88011  -1.35700   3.80359
H     0.11627  -1.68933   1.47186
H    -1.97890   0.88683  -2.61739
H    -4.27066   1.38699  -3.36162
H    -6.16791   1.33778  -1.73752
H    -5.73027   0.74427   0.64884
H    -3.44297   0.18415   1.39588
H     3.00138  -2.04222   0.16023
H     4.57746  -1.18058   1.86568
H     4.41927   1.18933   2.63942
H     2.69900   2.69834   1.63582
H     1.15134   1.84686  -0.09045
