37
Generated by autodE on: 2022-06-17. E = -916.953610 Ha
C     4.31239   1.78146   1.52023
N     3.46528   0.94352   0.69336
C     2.13216   0.90376   0.80647
O     1.45707   1.55124   1.60894
C     1.42173  -0.02681  -0.14963
O     2.27867  -0.73626  -1.06097
N     1.29887  -1.54234  -1.68526
C     0.32193  -0.53109  -2.16755
C     0.35898   0.62431  -1.12370
C     0.94969   1.89691  -1.74219
C    -0.93870   0.93496  -0.42066
C    -2.03154   0.15073  -0.34563
C    -3.22517   0.51909   0.39641
C    -4.35268  -0.21900   0.53752
C    -4.56303  -1.57692  -0.07040
C    -5.50880   0.29283   1.35001
O     0.64956  -2.15018  -0.49635
C     0.72709  -1.22255   0.50231
O     0.30532  -1.40345   1.60848
H     4.95673   1.16905   2.16994
H     4.95245   2.41865   0.89223
H     3.67832   2.41812   2.14789
H     3.90288   0.33974   0.00316
H     0.68486  -0.19999  -3.14781
H    -0.64632  -1.02179  -2.29592
H     1.94577   1.70299  -2.16538
H     1.03046   2.69528  -0.99024
H     0.29196   2.25099  -2.55017
H    -0.94403   1.89338   0.10832
H    -2.03491  -0.81865  -0.85147
H    -3.19047   1.49591   0.89294
H    -4.75302  -2.32279   0.72144
H    -5.46334  -1.57295  -0.70953
H    -3.71662  -1.92851  -0.67405
H    -5.74093  -0.40079   2.17793
H    -5.31107   1.28793   1.77468
H    -6.42403   0.35025   0.73406
