23
Generated by autodE on: 2022-06-17. E = -351.521384 Ha
C     3.45305   1.20628   0.95913
C     2.47343   0.73869   0.15442
C     2.72465   0.46095  -1.30567
C     1.13902   0.49154   0.69708
C     0.07521   0.02266  -0.00240
C    -1.22850  -0.20682   0.58612
C    -2.33772  -0.67295  -0.04159
C    -3.62498  -0.86112   0.71029
C    -2.39860  -1.03801  -1.49770
H     4.46035   1.39934   0.57970
H     3.26740   1.40683   2.01884
H     2.52416  -0.59565  -1.54932
H     2.05761   1.06268  -1.94519
H     3.76425   0.68768  -1.58111
H     1.00807   0.70977   1.76385
H     0.19836  -0.19749  -1.06628
H    -1.31257   0.02434   1.65494
H    -3.96330  -1.91126   0.65049
H    -3.53150  -0.58559   1.77101
H    -4.43263  -0.25514   0.26156
H    -1.45227  -0.88361  -2.03189
H    -2.69046  -2.09678  -1.61417
H    -3.18107  -0.44798  -2.00681
