14
Generated by autodE on: 2022-06-17. E = -565.380575 Ha
C    -3.36043  -0.10509  -0.54821
N    -1.92030  -0.27328  -0.52592
C    -1.15125   0.42642   0.32674
O    -1.57498   1.23998   1.14977
C     0.29204   0.14196   0.20301
O     1.14234   0.77464   1.01062
N     2.39035   0.44667   0.79976
O     2.37898  -0.43397  -0.18011
C     1.04817  -0.70421  -0.64677
O     0.82311  -1.48145  -1.54122
H    -3.78430  -0.79507  -1.28685
H    -3.63603   0.92577  -0.82216
H    -3.79786  -0.32311   0.43839
H    -1.48278  -0.92090  -1.17723
