37
Generated by autodE on: 2022-06-17. E = -916.902282 Ha. Imaginary frequency = -248.0 cm-1
C     3.16812   2.06241   2.59989
N     2.36813   1.03730   1.96132
C     2.78244   0.42339   0.83281
O     3.85938   0.66710   0.27122
C     1.83304  -0.54474   0.28981
O     2.15381  -1.22865  -0.83719
N     1.05991  -1.83946  -1.32450
C     0.26028  -0.32564  -2.56021
C     0.17291   0.80600  -1.74888
C     1.28574   1.82135  -1.78728
C    -0.97580   1.09443  -0.93035
C    -2.08232   0.30395  -0.77974
C    -3.15060   0.62069   0.12546
C    -4.27016  -0.12360   0.34797
C    -4.57478  -1.42307  -0.33458
C    -5.30178   0.33172   1.33616
O     0.15990  -1.85172  -0.31286
C     0.55445  -0.94790   0.71138
O    -0.17328  -0.69649   1.65341
H     4.13740   1.66278   2.93918
H     3.37006   2.89719   1.91013
H     2.62134   2.44634   3.46938
H     1.46949   0.77617   2.36005
H    -0.62150  -0.93018  -2.77460
H     1.07527  -0.39621  -3.28284
H     2.26316   1.34243  -1.94321
H     1.32439   2.41742  -0.86473
H     1.12467   2.52002  -2.62774
H    -0.91988   2.01106  -0.33407
H    -2.15837  -0.61877  -1.35987
H    -3.03736   1.54998   0.69488
H    -4.69850  -2.22219   0.41716
H    -5.53963  -1.35256  -0.86655
H    -3.80764  -1.74082  -1.05141
H    -5.44074  -0.42735   2.12661
H    -5.03417   1.28727   1.80940
H    -6.28501   0.44304   0.84521
