18
Generated by autodE on: 2022-06-02. E = -2938.734763 Ha
N     3.15204  -1.00574  -0.17778
C     1.99093  -0.97418  -0.27703
C     0.58462  -0.96736  -0.41513
C    -0.26131   0.07718  -0.24294
Br    0.19391   1.83621   0.22087
C    -1.68016  -0.44066  -0.29435
C    -1.86555  -1.25985   1.02769
C    -0.92035  -2.47741   0.82412
C    -0.30086  -2.20734  -0.58204
C    -1.50247  -1.58182  -1.31989
H    -2.45160   0.31316  -0.48566
H    -2.91624  -1.57190   1.11232
H    -1.61788  -0.66080   1.91503
H    -0.14603  -2.55692   1.59950
H    -1.48231  -3.42240   0.80596
H     0.19633  -3.06592  -1.04733
H    -2.37404  -2.25121  -1.36401
H    -1.25189  -1.22010  -2.32716
