42
Generated by autodE on: 2022-06-02. E = -3644.067153 Ha. Imaginary frequency = -409.6 cm-1
C    -2.19428   3.45948   0.22888
C    -1.53506   2.41003   1.06271
O    -1.79511   2.19059   2.23579
C    -0.47394   1.57197   0.43054
N     0.62736   1.23491   1.17889
C     1.57758   0.74297   0.35343
C     2.77523   0.03012   0.75433
C     3.68111  -0.42722  -0.22588
C     4.80237  -1.16479   0.14886
C     5.04234  -1.45260   1.49675
C     4.14903  -1.00047   2.47450
C     3.02139  -0.26816   2.11031
C     1.25773   1.29629  -0.96593
O     1.86071   1.33294  -2.01359
O     0.00402   1.88595  -0.82170
C    -0.13254  -1.03306  -0.39883
C     0.30379  -1.25513  -1.72031
N     0.71140  -1.46239  -2.79519
C     0.00985  -2.14230   0.65106
C    -1.13758  -3.14547   0.31701
C    -2.41759  -2.34863   0.71022
C    -1.85495  -0.98192   1.20836
C    -0.57439  -1.47968   1.91003
C    -1.27936  -0.26792  -0.02087
Br   -2.56435   0.21766  -1.40224
H    -3.04261   3.89145   0.77423
H    -1.45135   4.24517   0.00790
H    -2.52016   3.04860  -0.73730
H     0.55096   1.07724   2.18124
H     3.49239  -0.20857  -1.27578
H     5.49464  -1.51853  -0.61819
H     5.92369  -2.02950   1.78560
H     4.33029  -1.22204   3.52833
H     2.33452   0.07262   2.88670
H     1.01170  -2.58155   0.72545
H    -1.02353  -4.05289   0.92853
H    -1.12528  -3.44715  -0.73998
H    -2.95340  -2.83464   1.53775
H    -3.12306  -2.22870  -0.12190
H    -2.55377  -0.38041   1.80044
H     0.05336  -0.71668   2.37108
H    -0.80855  -2.22300   2.68547
