11
Generated by autodE on: 2022-10-21. E = -529.128707 Ha
C    -3.55149   0.37968   0.27798
O    -2.40032   1.25005   0.07167
C    -1.24699   0.69759   0.03257
C    -0.13398   0.21805  -0.01115
C     1.19648  -0.35588  -0.06674
F     1.85849  -0.00929  -1.19105
F     1.97194   0.03657   0.96673
F     1.16221  -1.70373  -0.03494
H    -4.42410   1.04133   0.27982
H    -3.61221  -0.34413  -0.54642
H    -3.44958  -0.13512   1.24317
