16
Generated by autodE on: 2022-05-25. E = -438.205843 Ha
C     2.69908  -0.15020   0.17311
C     1.36024   0.37985   0.59757
O     1.22627   1.19443   1.49868
C     0.15595  -0.12119  -0.12131
N     0.27830  -0.98969  -1.10802
O    -0.99287  -1.23943  -1.54866
C    -1.87656  -0.51441  -0.81767
C    -1.21740   0.22810   0.11800
C    -1.78687   1.16326   1.13236
H     3.48800   0.30980   0.78135
H     2.86921   0.06413  -0.89358
H     2.72355  -1.24538   0.28749
H    -2.92653  -0.63238  -1.07943
H    -2.88224   1.19964   1.04944
H    -1.52243   0.84786   2.15318
H    -1.39079   2.18136   0.99826
