9
Generated by autodE on: 2022-05-25. E = -321.369904 Ha
C    -1.95432   0.98728   0.39327
C    -1.11535  -0.13259  -0.13442
O    -1.54274  -1.13473  -0.67500
C     0.33413   0.03118   0.03349
N     1.49664   0.08639   0.13276
O     2.69186   0.15353   0.23955
H    -3.01731   0.76629   0.23113
H    -1.67521   1.92524  -0.11482
H    -1.74877   1.12691   1.46738
