21
Generated by autodE on: 2022-06-03. E = -797.432691 Ha
C    -2.74560  -1.53398  -1.08911
C    -1.99170  -0.38149  -0.49116
O    -2.44199   0.75604  -0.44693
C    -0.64869  -0.68869   0.05072
C     0.37120   0.14314   0.32586
C     0.47650   1.62719   0.17638
F     0.11413   2.04960  -1.04763
F     1.74841   2.03165   0.36680
F    -0.28255   2.28639   1.06823
C     1.55456  -0.77560   0.71377
C     1.98727  -1.50590  -0.57931
C     0.98201  -2.34193  -0.85005
C    -0.04698  -2.10381   0.27842
O     0.82926  -1.81810   1.38044
H    -2.11812  -2.05517  -1.83116
H    -3.67373  -1.18030  -1.55567
H    -2.98106  -2.26805  -0.30037
H     2.33631  -0.33518   1.33978
H     2.90081  -1.29829  -1.13460
H     0.83912  -3.01954  -1.69062
H    -0.75275  -2.90840   0.50399
