24
Generated by autodE on: 2022-06-03. E = -610.171961 Ha
C     4.64705   0.31525   1.12319
C     3.24096   0.68344   0.73277
O     2.90277   1.87189   0.57618
C     2.28489  -0.38061   0.56236
N     1.04300  -0.00202   0.24512
C    -0.07640  -0.69787   0.00905
C     0.02116  -2.11088   0.08926
N     0.11741  -3.27120   0.15804
C    -1.35115  -0.05703  -0.31793
C    -1.49984   1.34564  -0.36710
C    -2.73153   1.91636  -0.68221
C    -3.84289   1.11047  -0.95425
C    -3.70755  -0.28036  -0.90728
C    -2.47912  -0.85923  -0.59354
H     5.35992   0.89525   0.51735
H     4.84813  -0.75901   1.01284
H     4.80928   0.59738   2.17764
H     2.51698  -1.43764   0.67888
H     0.98192   1.02545   0.17181
H    -0.66206   2.01359  -0.15627
H    -2.82303   3.00439  -0.71290
H    -4.80556   1.56418  -1.19930
H    -4.56526  -0.92336  -1.11722
H    -2.39061  -1.94703  -0.56262
