24
Generated by autodE on: 2022-07-27. E = -610.162401 Ha
C     1.59155   3.63762   2.39343
C     0.91864   2.56948   1.56321
O    -0.15394   2.80658   0.97943
C     1.54710   1.27936   1.53748
N     1.05740   0.21514   0.87212
C     0.22217   0.09415  -0.17595
C     0.02332   1.17917  -1.06456
N    -0.11793   1.97844  -1.90271
C    -0.36374  -1.21068  -0.49674
C    -0.45401  -2.22649   0.47856
C    -0.97693  -3.47750   0.15203
C    -1.44509  -3.73420  -1.14044
C    -1.38658  -2.72429  -2.10772
C    -0.85265  -1.47657  -1.79369
H     0.83768   4.14982   3.01094
H     2.39504   3.24568   3.03160
H     2.02187   4.39154   1.71210
H     2.36140   1.04723   2.22164
H     1.38564  -0.68438   1.23747
H    -0.14251  -2.03705   1.50785
H    -1.03656  -4.25102   0.92101
H    -1.86316  -4.71184  -1.39003
H    -1.75479  -2.91176  -3.11890
H    -0.80015  -0.70242  -2.56137
