64
Generated by autodE on: 2022-10-25. E = -2303.221050 Ha
C   -14.11395  -1.92723  12.05872
N   -13.26259  -0.87565  12.57659
C   -12.03119  -1.13603  13.05327
O   -11.63418  -2.27770  13.29855
C   -11.16226   0.10317  13.34990
N   -10.38058  -0.03854  14.56300
C    -8.97287  -0.32093  14.22476
C    -8.84075  -1.86913  14.15251
C    -9.14677  -2.66297  15.40339
O    -8.60895  -2.44348  13.10542
C    -8.06153   0.31861  15.27166
C    -8.23151   1.68433  15.54427
C    -7.41682   2.33471  16.47137
C    -6.42970   1.62043  17.16039
C    -6.26418   0.25758  16.90595
C    -7.07055  -0.38667  15.96375
C    -8.85710   0.27733  12.80669
C   -10.10392   0.43320  12.29319
C   -10.59180   0.83425  10.91300
Cl  -12.10008   1.89964  11.08414
Cl  -11.14314  -0.72830  10.09128
C    -9.70571   1.54080   9.89857
C    -9.18815   2.92370  10.29951
C    -8.67265   3.07399  11.72815
C    -7.45826   2.25097  12.15828
C    -7.51003   0.69630  12.18869
O    -7.47572   0.08415  10.88707
C    -6.42477   0.46961  10.01792
C    -6.25385   0.15750  12.92368
C    -5.93276  -1.20201  12.77646
C    -4.79074  -1.74592  13.36440
C    -3.91877  -0.93148  14.09382
C    -4.20368   0.42909  14.21416
C    -5.35607   0.96658  13.63397
H   -14.10480  -2.78767  12.74080
H   -15.14211  -1.55367  11.96954
H   -13.77293  -2.26894  11.06577
H   -13.45430   0.07582  12.27793
H   -11.84360   0.96151  13.44426
H   -10.77113  -0.71958  15.20932
H   -10.03600  -3.27824  15.20151
H    -8.30641  -3.34775  15.59336
H    -9.32087  -2.04999  16.29606
H    -9.00873   2.23986  15.01713
H    -7.55415   3.40220  16.66006
H    -5.79297   2.12592  17.89031
H    -5.49072  -0.30928  17.42883
H    -6.88528  -1.43910  15.75205
H    -8.88181   0.85634   9.69744
H   -10.29788   1.62698   8.97701
H    -9.99480   3.65954  10.15489
H    -8.39266   3.19168   9.58475
H    -8.38647   4.12972  11.86564
H    -9.50024   2.90935  12.43598
H    -7.24686   2.56274  13.18730
H    -6.57707   2.54271  11.56694
H    -6.59623   1.46525   9.57519
H    -6.40024  -0.27355   9.20818
H    -5.44483   0.46973  10.52281
H    -6.59153  -1.83844  12.19182
H    -4.57688  -2.81085  13.24375
H    -3.02216  -1.35282  14.55470
H    -3.53192   1.08407  14.77380
H    -5.54776   2.02758  13.77444
