30
Generated by autodE on: 2022-10-26. E = -726.013242 Ha
C    -4.30033  -0.77766  -2.98151
N    -3.27074  -0.21792  -2.13335
C    -2.20542  -0.91840  -1.68433
O    -2.00659  -2.12054  -1.94470
C    -1.26915  -0.16305  -0.84758
N    -0.21478  -0.82484  -0.42092
C     0.86210  -0.51178   0.33101
C     1.77940  -1.62641   0.47522
C     3.00970  -1.47888   1.33429
O     1.54708  -2.70920  -0.09969
C     1.01614   0.82820   0.92536
C    -0.02200   1.40487   1.68418
C     0.13009   2.66824   2.25723
C     1.32171   3.38125   2.08652
C     2.35918   2.82086   1.33528
C     2.20716   1.55915   0.75642
H    -4.08688  -1.84053  -3.14333
H    -5.29309  -0.68263  -2.51366
H    -4.33114  -0.27084  -3.95966
H    -3.33963   0.76102  -1.87265
H    -1.41042   0.88555  -0.59112
H    -0.17700  -1.81145  -0.74122
H     3.31389  -2.47385   1.68792
H     3.83589  -1.06698   0.73091
H     2.85334  -0.80511   2.18734
H    -0.95052   0.85156   1.84101
H    -0.68417   3.09535   2.84755
H     1.44001   4.36978   2.53639
H     3.29141   3.37226   1.19120
H     3.01567   1.13739   0.15685
