64
Generated by autodE on: 2022-10-25. E = -2303.143064 Ha. Imaginary frequency = -174.9 cm-1
C   -14.33691  -1.25484  11.79112
N   -13.31666  -0.66900  12.63505
C   -12.18791  -1.34085  12.94407
O   -12.02876  -2.55019  12.71092
C   -11.13664  -0.55403  13.62373
N   -10.18602  -1.28543  14.20056
C    -9.04382  -0.90431  14.79467
C    -8.14358  -2.05629  15.03628
C    -6.93378  -1.89871  15.91177
O    -8.42382  -3.15101  14.53607
C    -8.92492   0.40530  15.47063
C   -10.03113   0.97328  16.13280
C    -9.92385   2.20656  16.77845
C    -8.70852   2.89711  16.78535
C    -7.59731   2.33302  16.15043
C    -7.70360   1.10175  15.50503
C    -8.53054   0.16464  12.34283
C    -9.71389   0.39039  12.03990
C   -10.50761   1.18147  11.09923
Cl  -11.71049   2.27361  11.97794
Cl  -11.47922   0.07295  10.00352
C    -9.61544   2.04861  10.20620
C    -8.82292   3.17523  10.89350
C    -8.09298   2.93894  12.22673
C    -6.88771   1.99060  12.29451
C    -7.12247   0.48880  11.97846
O    -7.10025   0.28276  10.53511
C    -5.83781   0.33080   9.89387
C    -6.09608  -0.46318  12.59346
C    -6.33135  -1.84048  12.46466
C    -5.39911  -2.77218  12.91834
C    -4.20676  -2.33788  13.50923
C    -3.95988  -0.96939  13.63521
C    -4.89711  -0.03613  13.17458
H   -14.59266  -2.26184  12.14808
H   -15.23652  -0.62741  11.82512
H   -14.00139  -1.33588  10.74255
H   -13.28618   0.34397  12.70596
H   -11.32635   0.45859  13.96511
H   -10.17453  -2.27608  13.91019
H    -6.53274  -2.89388  16.14065
H    -6.15519  -1.31887  15.39621
H    -7.18092  -1.36326  16.84015
H   -10.98378   0.44238  16.16069
H   -10.79692   2.62617  17.28378
H    -8.62656   3.86497  17.28510
H    -6.63970   2.85884  16.14771
H    -6.83484   0.68616  15.00003
H    -8.92976   1.34194   9.72277
H   -10.25092   2.49289   9.42578
H    -9.51680   4.01392  11.06395
H    -8.09525   3.53272  10.14520
H    -7.71097   3.92558  12.53797
H    -8.81954   2.65783  13.00375
H    -6.48514   2.07320  13.31097
H    -6.09217   2.34609  11.62183
H    -5.26733   1.24227  10.14101
H    -6.04201   0.33446   8.81334
H    -5.21427  -0.54748  10.13303
H    -7.26404  -2.18105  12.01070
H    -5.60854  -3.83996  12.82327
H    -3.47640  -3.06448  13.87275
H    -3.03190  -0.61948  14.09352
H    -4.67674   1.02678  13.27267
