45
Generated by autodE on: 2022-05-31. E = -1217.480517 Ha
C     5.38849  -1.79475   0.75423
N     4.15573  -1.34947   0.14024
C     2.97196  -1.84787   0.52188
O     2.84923  -2.74212   1.37791
C     1.74960  -1.30479  -0.12651
C     1.44351  -0.16546  -0.79345
C     2.28572   0.98886  -1.18015
O     3.52383   0.91539  -1.29593
N     1.62806   2.13911  -1.41466
C     2.33181   3.35338  -1.78115
C    -0.08098  -0.18939  -0.91430
O    -0.34531  -1.58831  -1.02935
C     0.40963  -1.99135   0.11499
C    -0.31182  -1.18165   1.24557
C    -1.69738  -1.70208   1.48839
N    -2.67154  -0.94498   1.15498
C    -2.12693   0.34175   0.67446
C    -2.45496   1.39319   1.77616
C    -3.90725   1.69276   2.00172
O    -1.56840   1.92029   2.41609
C    -2.77872   0.84051  -0.61737
O    -2.42224   1.93279  -1.08014
N    -3.69526   0.03784  -1.16573
C    -4.41928   0.35159  -2.38049
C    -0.59972   0.16188   0.51930
H     5.42270  -1.54653   1.82850
H     5.50373  -2.88602   0.66153
H     6.23329  -1.30645   0.25299
H     4.14439  -0.54228  -0.49769
H     0.62099   2.18333  -1.29352
H     2.89152   3.21655  -2.71935
H     1.59947   4.15785  -1.91633
H     3.04841   3.64874  -0.99863
H    -0.52072   0.36639  -1.74701
H     0.42364  -3.07793   0.24103
H     0.29296  -1.12699   2.16062
H    -1.88110  -2.70370   1.89668
H    -4.50402   0.77055   1.99484
H    -4.03833   2.23720   2.94563
H    -4.26636   2.32389   1.17144
H    -3.91618  -0.81309  -0.65508
H    -5.47044   0.60242  -2.16519
H    -4.39944  -0.50616  -3.06838
H    -3.94420   1.21223  -2.86635
H    -0.06918   1.02225   0.93546
