45
Generated by autodE on: 2022-05-31. E = -1217.363975 Ha. Imaginary frequency = -296.5 cm-1
C     5.44050  -2.12426  -0.27858
N     4.18089  -1.46656  -0.55250
C     3.05047  -1.84947   0.05813
O     2.99081  -2.80738   0.84998
C     1.81092  -1.08880  -0.23931
C     1.52140   0.13443  -0.73947
C     2.40180   1.19856  -1.26365
O     3.57090   0.98842  -1.64198
N     1.86414   2.43055  -1.31692
C     2.62378   3.56942  -1.79420
C    -0.01204   0.28323  -0.51131
O    -0.42227  -1.07288  -0.72214
C     0.45569  -1.64170   0.25955
C     0.06090  -0.81697   1.50748
C    -2.03671  -1.81233   1.86274
N    -2.77039  -0.98044   1.43076
C    -2.95607   0.26672   0.99687
C    -2.91705   1.28698   2.05236
C    -3.06990   2.73924   1.68016
O    -2.74203   0.95250   3.22778
C    -3.21428   0.48479  -0.44198
O    -3.14494   1.61179  -0.95725
N    -3.51452  -0.61771  -1.17245
C    -3.46972  -0.58677  -2.62096
C    -0.21480   0.42087   1.00744
H     5.36707  -3.20767  -0.46171
H     6.21229  -1.70617  -0.93671
H     5.75621  -1.98490   0.76938
H     4.14532  -0.59864  -1.10447
H     0.91357   2.58057  -0.99643
H     1.98703   4.46090  -1.75384
H     2.95728   3.41414  -2.83208
H     3.51778   3.73932  -1.17365
H    -0.54698   0.98130  -1.16298
H     0.37199  -2.73038   0.31880
H     0.33904  -1.08028   2.52714
H    -2.04844  -2.78773   2.35322
H    -3.98895   2.90765   1.10122
H    -2.23218   3.06224   1.04485
H    -3.08572   3.33244   2.60417
H    -3.40407  -1.52480  -0.73220
H    -3.98580  -1.47057  -3.01812
H    -2.43181  -0.58650  -2.99832
H    -3.97322   0.31377  -2.99567
H    -0.28729   1.36898   1.53496
