31
Generated by autodE on: 2022-06-26. E = -817.566893 Ha
C    -3.06598  -1.99042  -1.58615
N    -1.93314  -1.16884  -1.20819
C    -1.99242  -0.32103  -0.15951
O    -3.07238  -0.10135   0.42747
C    -0.76293   0.41214   0.18737
N     0.49661  -0.05166   0.05775
C     1.06108  -1.25408   0.01554
C     0.31974  -2.52141   0.24592
C     2.51687  -1.28594  -0.15171
O     3.18263  -2.31062  -0.15007
O     3.05697  -0.06063  -0.30441
C     4.48206   0.00974  -0.42442
C    -0.77615   1.84779   0.54102
O     0.29887   2.48389   0.58458
N    -1.96640   2.41534   0.80226
C    -2.07774   3.80314   1.19649
H    -2.76682  -2.64249  -2.41579
H    -3.92107  -1.37523  -1.90915
H    -3.39876  -2.61721  -0.74346
H    -1.07083  -1.26492  -1.73130
H     1.15939   0.74453   0.08907
H     1.02049  -3.27615   0.62585
H    -0.48443  -2.36704   0.98352
H    -0.14804  -2.93216  -0.66455
H     4.96712  -0.40086   0.47333
H     4.72447   1.07331  -0.53204
H     4.82150  -0.54775  -1.30956
H    -2.77123   1.79015   0.83564
H    -3.13991   4.06423   1.28051
H    -1.61016   4.46576   0.45193
H    -1.59099   3.99454   2.16801
