51
Generated by autodE on: 2022-06-25. E = -1258.901603 Ha. Imaginary frequency = -340.1 cm-1
C     2.84939   3.41353   0.98236
O     2.00294   2.29962   1.30291
C     1.08589   1.96185   0.38473
O     0.93806   2.58023  -0.65239
C     0.34295   0.74496   0.80573
C     0.15248   0.58418   2.31785
C    -1.14412   1.12117   2.87482
O     1.03137   0.18181   3.06013
C     1.68197  -0.85262   0.42410
C     2.77236  -0.32586  -0.49105
C     2.26701  -0.24309  -1.91187
C     2.75222   0.73842  -2.89962
N     3.79601   1.51579  -2.52285
O     2.24382   0.85787  -4.03057
C     1.32682  -1.13731  -2.30928
N     0.75123  -2.05274  -1.45890
C    -0.26757  -2.94843  -1.99069
C     0.83688  -1.86590  -0.08482
N    -1.10060  -0.87571   0.56317
C    -2.38369  -1.36105   0.37716
C    -3.51763  -0.54652   0.14066
C    -4.79013  -1.11410   0.04906
C    -4.97480  -2.49289   0.18753
C    -3.85974  -3.30436   0.44331
C    -2.58711  -2.75229   0.54547
N    -0.78547   0.35602   0.12086
C    -1.10020   0.78012  -1.25239
H     3.38413   3.22548   0.04031
H     2.25496   4.33368   0.88921
H     3.55782   3.50075   1.81387
H    -1.27838   0.76046   3.90338
H    -2.01739   0.87379   2.26035
H    -1.05644   2.22190   2.89646
H     1.96472  -0.96359   1.46962
H     3.14208   0.64025  -0.12270
H     3.64825  -1.00476  -0.43692
H     4.12359   2.23152  -3.16263
H     4.21101   1.46539  -1.60102
H     0.97057  -1.15718  -3.33982
H     0.04290  -3.31862  -2.97633
H    -1.23600  -2.43211  -2.08940
H    -0.39463  -3.80362  -1.31535
H     0.50260  -2.70121   0.52290
H    -3.40287   0.53394   0.05299
H    -5.64982  -0.46276  -0.12944
H    -5.97250  -2.92997   0.10877
H    -3.98639  -4.38292   0.56790
H    -1.72493  -3.38810   0.75116
H    -0.18837   0.85213  -1.85456
H    -1.76904   0.03612  -1.69629
H    -1.59725   1.75912  -1.24911
