38
Generated by autodE on: 2022-07-02. E = -860.004675 Ha
C    -0.18289  -4.24138   0.08042
N    -0.25460  -2.79888  -0.05998
C     0.77773  -2.08413  -0.51784
O     1.84941  -2.60464  -0.86155
C     0.60036  -0.55539  -0.56904
C     0.82293   0.01167  -2.00127
O     0.16917   0.97760  -2.40568
N     1.79582  -0.56608  -2.71475
C     2.15749  -0.09086  -4.03534
C    -0.67816  -0.08008  -0.05315
C    -1.46659   0.58661   0.57876
C    -1.93116   1.65142   1.47783
C    -3.21052   2.36232   0.99475
C    -2.17513   1.06775   2.81203
N    -2.36396   0.63144   3.87068
C    -0.73121   2.65542   1.57443
C     0.65567   2.05022   1.86515
C     1.53570   1.58752   0.66943
C     1.67623   0.07693   0.39696
H     0.06141  -4.71750  -0.88136
H     0.58829  -4.53274   0.81089
H    -1.15582  -4.61171   0.42425
H    -1.09819  -2.31176   0.22787
H     2.25419  -1.37986  -2.30326
H     2.97560  -0.71002  -4.42311
H     1.30534  -0.15236  -4.73099
H     2.49117   0.95843  -4.00295
H    -4.05472   1.66008   0.94833
H    -3.46435   3.18406   1.67956
H    -3.03252   2.77384  -0.00864
H    -0.99242   3.38307   2.35860
H    -0.71120   3.20270   0.61919
H     0.55937   1.23236   2.60040
H     1.21801   2.83998   2.38625
H     1.22063   2.10645  -0.25025
H     2.55755   1.94384   0.87082
H     2.66048  -0.13570  -0.04320
H     1.62275  -0.47765   1.34720
