35
Generated by autodE on: 2022-07-02. E = -878.732477 Ha
C     0.54646   1.47252   2.76057
N    -0.26440   2.10397   1.73648
C    -0.63071   1.53914   0.57319
O    -1.53960   1.96589  -0.14371
C     0.24954   0.44533   0.00813
N    -0.27247  -0.66709  -0.43988
C    -1.50653  -1.29993  -0.31559
C    -2.31458  -1.04318   0.85043
C    -3.65152  -1.71780   1.05251
O    -1.90674  -0.26599   1.73393
C    -1.62899  -2.33279  -1.33329
C    -2.83869  -3.22281  -1.44915
O    -0.69116  -2.48896  -2.14297
C     1.66068   0.72434  -0.27860
C     2.58566  -0.33090  -0.42406
C     3.92220  -0.06221  -0.71307
C     4.36021   1.25878  -0.85534
C     3.45206   2.31249  -0.70636
C     2.11407   2.05254  -0.41638
H     1.29146   0.80625   2.30914
H     1.07970   2.24193   3.33560
H    -0.07413   0.87616   3.44925
H    -0.88541   2.85159   2.04052
H     0.30098  -1.21283  -1.10597
H    -4.32031  -1.56204   0.19465
H    -3.53822  -2.80236   1.19665
H    -4.10946  -1.28822   1.95288
H    -3.76146  -2.63677  -1.56365
H    -2.95668  -3.85618  -0.55787
H    -2.70524  -3.86547  -2.32871
H     2.26639  -1.36503  -0.27907
H     4.62900  -0.88870  -0.81326
H     5.40966   1.46701  -1.07510
H     3.78753   3.34548  -0.82046
H     1.41470   2.88339  -0.31898
