41
Generated by autodE on: 2022-06-29. E = -1532.185185 Ha
C     4.39027   1.96274  -0.71707
N     3.14691   1.23346  -0.88575
C     2.02733   1.62573  -0.27386
O     1.94263   2.61363   0.45513
C     0.79156   0.76399  -0.53443
O     1.13508  -0.35766  -1.44685
C    -0.02112  -0.66418  -2.07084
O    -0.14039  -1.45684  -2.95577
N    -1.06685   0.18864  -1.48528
N    -0.29357   1.38518  -1.23527
C    -0.01876   2.18505  -2.41666
C    -1.31060  -0.28601  -0.07140
C    -1.71642  -1.77623  -0.11373
F    -2.15660  -2.22045   1.06895
F    -2.70767  -1.94671  -1.00042
F    -0.71408  -2.59585  -0.47786
C    -2.42474   0.49086   0.70152
C    -2.40135   2.00774   0.43925
C    -1.11545   2.47009   1.17876
C    -0.54306   1.15829   1.76513
C    -1.86222   0.44897   2.13670
C     0.03538   0.15762   0.69138
C     0.92709  -0.86432   1.42414
F     1.94909  -0.20435   2.01272
F     1.48459  -1.79730   0.64419
F     0.27395  -1.51997   2.39764
H     4.66558   2.02208   0.34694
H     5.18261   1.43930  -1.26426
H     4.30220   2.98917  -1.10565
H     3.12027   0.40835  -1.47627
H    -0.97683   2.50175  -2.84897
H     0.53160   3.08055  -2.09725
H     0.57239   1.66000  -3.18901
H    -3.40997   0.03676   0.54263
H    -2.41472   2.27095  -0.62327
H    -3.30413   2.43491   0.90024
H    -0.41303   3.01337   0.54471
H    -1.36439   3.11593   2.03427
H     0.16754   1.32726   2.58074
H    -1.74800  -0.55043   2.56100
H    -2.46809   1.05457   2.82505
