18
Generated by autodE on: 2022-06-29. E = -584.947858 Ha
C     3.68405   0.39099  -0.11564
N     2.30697  -0.03891   0.02494
C     1.25990   0.75140  -0.25702
O     1.32635   1.91338  -0.66203
C    -0.05756   0.08379  -0.03332
O    -0.14475  -1.17050   0.38668
C    -1.55742  -1.46629   0.49136
O    -1.92172  -2.56298   0.86021
N    -2.22204  -0.36162   0.12428
N    -1.27292   0.55953  -0.18794
C    -1.69806   1.88228  -0.62683
H     4.22669  -0.27622  -0.80221
H     3.70170   1.41018  -0.51740
H     4.19571   0.38068   0.85909
H     2.12603  -0.98215   0.35769
H    -2.29043   2.33756   0.17765
H    -0.81263   2.48176  -0.84770
H    -2.32393   1.76167  -1.52061
