23
Generated by autodE on: 2022-06-29. E = -947.254359 Ha
F    -1.52486   1.67752  -0.15691
C    -0.18903   1.79799  -0.10826
F     0.21583   2.24386  -1.31843
F     0.08819   2.78082   0.77304
C     0.51437   0.53599   0.25549
C     0.04576  -0.72324   0.34525
C    -1.34403  -1.23156   0.10312
F    -2.23734  -0.72849   0.97460
F    -1.39489  -2.57163   0.21997
F    -1.79192  -0.93579  -1.13511
C     1.24765  -1.63634   0.52865
C     1.97563  -1.63745  -0.85735
C     2.51719  -0.18521  -0.96411
C     2.02837   0.47046   0.37044
C     2.17356  -0.71376   1.34613
H     1.02439  -2.62950   0.93210
H     1.28936  -1.90478  -1.67284
H     2.79184  -2.37389  -0.84347
H     3.61592  -0.16645  -0.99877
H     2.13934   0.35650  -1.84145
H     2.52020   1.41559   0.62808
H     1.78345  -0.49468   2.35049
H     3.20446  -1.09064   1.41531
