41
Generated by autodE on: 2022-06-29. E = -1532.135580 Ha. Imaginary frequency = -306.3 cm-1
C     4.46122   1.49314  -0.38877
N     3.18501   0.94335  -0.80920
C     2.03798   1.55758  -0.51219
O     1.94540   2.65837   0.03210
C     0.78387   0.78796  -0.87502
O     0.97323  -0.43715  -1.51399
C    -0.19355  -0.67925  -2.22322
O    -0.38505  -1.69239  -2.84602
N    -0.98918   0.45038  -2.12882
N    -0.19769   1.39589  -1.63106
C    -0.38441   2.78830  -2.01802
C    -1.31593  -0.45535   0.25640
C    -1.57548  -1.92599   0.08913
F    -2.04134  -2.45423   1.25047
F    -2.53022  -2.15788  -0.83146
F    -0.50287  -2.65361  -0.24786
C    -2.48532   0.31970   0.85240
C    -2.56554   1.77364   0.32767
C    -1.32051   2.44502   0.97001
C    -0.63350   1.28042   1.70162
C    -1.88291   0.56093   2.26701
C    -0.10118   0.17391   0.72252
C     1.00006  -0.63591   1.42292
F     1.95347   0.19095   1.90586
F     1.63655  -1.54588   0.68106
F     0.49637  -1.29501   2.48785
H     4.55216   1.47454   0.70943
H     5.26604   0.89115  -0.82615
H     4.56424   2.53388  -0.72751
H     3.15268   0.01433  -1.21867
H    -1.39573   3.12881  -1.76304
H     0.36451   3.40143  -1.51120
H    -0.24730   2.85389  -3.10655
H    -3.43688  -0.22041   0.79736
H    -2.59601   1.80903  -0.76635
H    -3.49578   2.22708   0.69681
H    -0.65973   2.97232   0.28305
H    -1.62505   3.17830   1.73022
H     0.12474   1.60580   2.42049
H    -1.66615  -0.36352   2.81385
H    -2.50983   1.21791   2.88927
