43
Generated by autodE on: 2022-05-29. E = -938.427787 Ha
C    -0.17758  -2.51239   1.33088
C    -1.00029  -1.25732   1.46418
O    -1.74208  -1.09990   2.41857
C    -0.87946  -0.18934   0.36871
C    -1.29149  -0.77194  -1.02126
C    -2.62915  -1.52653  -0.83010
C    -3.63921  -0.37908  -0.52752
C    -2.78154   0.89676  -0.69643
C    -1.79307   0.46592  -1.79235
C    -1.87864   1.01239   0.54386
N    -1.07197   2.23161   0.61988
N     0.17252   1.90642   0.00060
C     1.16508   2.94056   0.20591
C     0.53503   0.53316   0.41361
C     0.99022   0.57430   1.83176
N     1.30607   0.73852   2.93713
C     1.62692  -0.06172  -0.46991
C     1.69272   0.28237  -1.82824
C     2.66490  -0.28313  -2.65581
C     3.58656  -1.19904  -2.13992
C     3.53529  -1.53575  -0.78511
C     2.56529  -0.96696   0.04427
H     0.72918  -2.38747   1.94554
H    -0.74075  -3.36060   1.74446
H     0.13623  -2.71729   0.30044
H    -0.50504  -1.36754  -1.49814
H    -2.59943  -2.29381  -0.04393
H    -2.88266  -2.04258  -1.76737
H    -4.06709  -0.45401   0.48359
H    -4.47382  -0.38305  -1.24326
H    -3.35824   1.81280  -0.88108
H    -2.29023   0.18284  -2.73320
H    -1.02343   1.21428  -1.99978
H    -2.45817   0.92603   1.46868
H    -0.89004   2.41521   1.61685
H     0.80682   3.87132  -0.25574
H     1.36297   3.13880   1.27997
H     2.10791   2.64837  -0.27537
H     0.98742   1.00374  -2.23566
H     2.70239  -0.00191  -3.71076
H     4.34619  -1.64094  -2.78886
H     4.25646  -2.24051  -0.36510
H     2.54851  -1.23160   1.10227
