21
Generated by autodE on: 2022-05-29. E = -512.793953 Ha
C     3.27235   0.12561   0.40593
N     1.94196   0.43590  -0.16573
N     1.96324   1.31195  -1.10595
C     0.86435  -0.22616   0.33816
C     1.10302  -1.24686   1.28295
N     1.25399  -2.09885   2.06993
C    -0.52407   0.03235  -0.09117
C    -1.41247  -1.05081  -0.24249
C    -2.74282  -0.83754  -0.60343
C    -3.21471   0.46051  -0.82388
C    -2.34566   1.54459  -0.66732
C    -1.01485   1.33795  -0.30034
H     3.25418   0.29000   1.48992
H     3.99063   0.79476  -0.07433
H     3.52298  -0.92118   0.19245
H     1.00545   1.41665  -1.46149
H    -1.05148  -2.06831  -0.07714
H    -3.41366  -1.69207  -0.71844
H    -4.25518   0.62666  -1.11184
H    -2.70713   2.56404  -0.82066
H    -0.36622   2.20298  -0.15111
