43
Generated by autodE on: 2022-05-29. E = -938.365592 Ha. Imaginary frequency = -341.1 cm-1
C    -1.47443  -2.89183   1.67720
C    -1.64564  -1.39607   1.80718
O    -1.54257  -0.85203   2.92851
C    -1.85661  -0.62487   0.61914
C    -2.12563  -1.12094  -0.79227
C    -3.67861  -1.15046  -0.93916
C    -4.05438   0.36132  -0.87677
C    -2.67047   1.07582  -0.75554
C    -1.79739   0.13740  -1.61511
C    -2.19288   0.75043   0.64859
N    -0.65281   1.74706   1.18923
N     0.38480   1.61488   0.37807
C     0.47640   2.65964  -0.65143
C     1.25579   0.57408   0.42480
C     1.29819  -0.17352   1.63164
N     1.42121  -0.77067   2.62789
C     2.31728   0.30518  -0.56483
C     2.12755   0.43692  -1.95668
C     3.16133   0.14155  -2.84507
C     4.40085  -0.29907  -2.37228
C     4.59843  -0.44899  -0.99580
C     3.57054  -0.15354  -0.10290
H    -1.47913  -3.35639   2.67258
H    -2.25960  -3.34199   1.05046
H    -0.50683  -3.10575   1.19136
H    -1.62055  -2.04962  -1.08504
H    -4.15389  -1.74400  -0.14512
H    -3.96258  -1.59138  -1.90766
H    -4.71420   0.60557  -0.03133
H    -4.55935   0.68748  -1.79805
H    -2.68604   2.14206  -1.01370
H    -2.14030   0.07571  -2.65889
H    -0.73096   0.37665  -1.60483
H    -2.73238   1.17067   1.50004
H    -0.51956   1.11968   1.99165
H    -0.09337   2.38543  -1.54760
H     0.04880   3.56723  -0.21432
H     1.52536   2.82478  -0.91901
H     1.16527   0.74583  -2.35972
H     2.98935   0.24761  -3.91842
H     5.20641  -0.53052  -3.07261
H     5.56131  -0.79414  -0.61282
H     3.74232  -0.26865   0.96876
