56
Generated by autodE on: 2022-06-05. E = -1315.496655 Ha
C     0.81912  -1.84771   5.56771
N    -0.22289  -1.07601   4.91933
C    -1.50515  -1.46895   4.97978
O    -1.88027  -2.38234   5.72957
C    -2.53865  -0.71864   4.12549
C    -2.50452   0.81411   4.34206
C    -3.84066   1.52480   4.08739
C    -4.34427   1.55385   2.63061
C    -5.42431   0.54224   2.23300
C    -5.10859  -0.93940   2.40328
F    -5.33268  -1.30434   3.71865
F    -6.05789  -1.65546   1.70118
C    -3.72301  -1.33344   1.95617
C    -2.59518  -1.15215   2.66730
C    -1.37794  -1.41946   1.75743
C    -0.60799  -0.07277   1.63184
C    -0.89214   0.79553   0.44755
O     0.18453   0.28635   2.49182
C    -0.47293  -2.56131   2.23156
C     0.89319  -2.59680   1.91805
C     1.67251  -3.70816   2.25437
C     1.09698  -4.80216   2.90547
C    -0.26699  -4.77839   3.21359
C    -1.04456  -3.66991   2.87343
N    -1.98079  -1.77929   0.46342
C    -3.45910  -1.84080   0.54357
C    -4.08892  -0.96608  -0.55236
C    -3.93414  -3.29591   0.38006
H     0.66730  -1.87819   6.65725
H     1.78958  -1.37851   5.36211
H     0.84183  -2.88674   5.19979
H     0.04745  -0.48557   4.12781
H    -3.47093  -1.06919   4.57072
H    -2.22675   0.99141   5.39325
H    -1.71691   1.27894   3.73169
H    -3.70893   2.56541   4.42413
H    -4.61508   1.09300   4.74372
H    -3.48845   1.46866   1.94213
H    -4.78451   2.54329   2.43214
H    -6.35212   0.71688   2.80244
H    -5.66600   0.68849   1.17065
H    -0.40932   1.77112   0.58673
H    -1.97438   0.91439   0.30259
H    -0.50959   0.30910  -0.46221
H     1.36451  -1.75563   1.40824
H     2.73593  -3.71603   2.00358
H     1.70713  -5.66819   3.17231
H    -0.72996  -5.62641   3.72366
H    -2.10761  -3.66267   3.11763
H    -1.60880  -2.67197   0.15299
H    -3.80443   0.08909  -0.43513
H    -5.18560  -1.03614  -0.54194
H    -3.73443  -1.30920  -1.53631
H    -5.02842  -3.37049   0.42006
H    -3.50778  -3.93301   1.16898
H    -3.59892  -3.68169  -0.59683
