29
Generated by autodE on: 2022-06-05. E = -596.562077 Ha
C     0.92664   2.94106  -0.33445
C    -0.36785   2.19721  -0.08666
O    -1.42292   2.87388   0.09936
C    -0.39249   0.77692  -0.03190
N    -1.66058   0.30911   0.32374
C    -2.26953  -0.84465   0.25273
C    -1.65136  -2.04487  -0.37261
C    -3.64873  -0.94958   0.81100
C     0.77250  -0.11840  -0.09260
C     1.70900  -0.03644  -1.14382
C     2.83746  -0.85871  -1.17141
C     3.05412  -1.79852  -0.15828
C     2.13251  -1.89726   0.89048
C     1.01288  -1.06560   0.92722
H     1.81952   2.38518  -0.01997
H     1.03283   3.16924  -1.40846
H     0.87985   3.90071   0.20169
H    -2.22942   1.11275   0.63199
H    -1.03968  -2.60700   0.35458
H    -2.44369  -2.71789  -0.72938
H    -0.99331  -1.77308  -1.20934
H    -3.67205  -1.70984   1.61135
H    -4.00000   0.00646   1.22440
H    -4.35026  -1.29160   0.03181
H     1.53564   0.66983  -1.95776
H     3.54556  -0.77446  -1.99983
H     3.93191  -2.44843  -0.18526
H     2.29307  -2.62106   1.69366
H     0.31610  -1.13871   1.76525
