27
Generated by autodE on: 2022-06-05. E = -718.846247 Ha
C     0.86053  -1.87089  -3.42029
N     0.80328  -1.47131  -2.02700
C     1.85285  -0.90616  -1.41314
O     2.92855  -0.69562  -1.98197
C     1.69048  -0.50761   0.06318
C     0.39121  -0.80145   0.64128
C    -0.74625  -0.67780   1.04579
C    -1.88933   0.17371   1.38232
F    -3.08753  -0.41717   1.07324
F    -1.92513   0.38071   2.74348
C    -1.77035   1.50967   0.65788
C    -0.41649   2.23064   0.80711
C     0.71247   1.91605  -0.21556
C     1.89126   1.02957   0.23719
H    -0.08827  -2.34915  -3.69171
H     1.68075  -2.58492  -3.59212
H     1.02251  -1.00301  -4.07940
H    -0.06382  -1.59033  -1.51277
H     2.50202  -1.03088   0.59334
H    -2.58206   2.13748   1.05945
H    -1.99378   1.32061  -0.40360
H    -0.04446   2.09444   1.83668
H    -0.64100   3.30405   0.71940
H     0.27334   1.50878  -1.14252
H     1.15611   2.88102  -0.50446
H     2.79287   1.28815  -0.33778
H     2.11900   1.22553   1.29627
