56
Generated by autodE on: 2022-06-05. E = -1315.388589 Ha. Imaginary frequency = -186.0 cm-1
C     1.31183  -0.83850   4.86913
N    -0.03748  -0.58215   4.40631
C    -1.08399  -1.17460   4.99486
O    -0.96484  -1.89719   5.99621
C    -2.48621  -0.81972   4.48959
C    -2.78569   0.68078   4.74286
C    -4.26116   1.08219   4.57059
C    -4.73050   1.33712   3.11612
C    -5.76512   0.37351   2.52343
C    -5.41188  -1.11233   2.55890
F    -5.85799  -1.65043   3.76551
F    -6.16901  -1.77374   1.61164
C    -3.97193  -1.37647   2.44989
C    -2.95479  -1.20109   3.13670
C    -1.14783  -1.83267   1.33120
C    -0.47863  -0.60630   0.92321
C    -0.41879  -0.22965  -0.54222
O     0.18382   0.08889   1.71911
C    -0.45067  -2.83001   2.17722
C     0.95429  -2.84339   2.29085
C     1.60577  -3.82350   3.03812
C     0.87661  -4.82432   3.69004
C    -0.51670  -4.83056   3.58069
C    -1.17162  -3.84696   2.83751
N    -2.17756  -2.34513   0.56481
C    -3.27731  -1.75785   0.09212
C    -3.39891  -0.28980  -0.14791
C    -4.24656  -2.65049  -0.61576
H     1.49293  -1.91332   5.01461
H     1.50832  -0.32821   5.82678
H     2.01906  -0.45879   4.12087
H    -0.13219  -0.21365   3.44882
H    -3.13892  -1.39608   5.16505
H    -2.47376   0.89479   5.77811
H    -2.14953   1.29450   4.08472
H    -4.40853   2.00775   5.14821
H    -4.89965   0.32512   5.05452
H    -3.85481   1.36483   2.44974
H    -5.17832   2.34119   3.05427
H    -6.73528   0.46387   3.03855
H    -5.93331   0.63705   1.46875
H     0.64850  -0.26740  -0.81688
H    -0.75618   0.80601  -0.69639
H    -0.96879  -0.90521  -1.20482
H     1.54471  -2.07358   1.79307
H     2.69606  -3.80615   3.10968
H     1.38955  -5.58811   4.27891
H    -1.10392  -5.59877   4.08985
H    -2.26194  -3.84961   2.79355
H    -2.26446  -3.36136   0.62073
H    -2.82946   0.30953   0.57125
H    -4.45762  -0.00494  -0.09980
H    -3.04615  -0.04096  -1.16373
H    -5.27057  -2.28462  -0.47559
H    -4.17915  -3.68931  -0.25950
H    -4.03620  -2.64267  -1.70057
