40
Generated by autodE on: 2022-05-29. E = -824.113170 Ha
C     3.85060  -1.23419   1.12701
N     2.71052  -0.86729   0.31165
C     1.57020  -0.40127   0.86437
O     1.48667  -0.23464   2.08561
C     0.42022  -0.17894  -0.12188
C     0.91461   0.60638  -1.38407
C     1.62450   1.90248  -0.91751
C     0.45316   2.79885  -0.42361
C    -0.77987   1.91191  -0.67675
C    -0.37705   1.19678  -1.97439
C    -0.79495   0.73492   0.35061
C    -0.92395   1.20500   1.80163
C    -1.95526  -0.18225   0.01558
C    -3.31448   0.28086   0.15749
N    -4.39569   0.68744   0.28168
N    -1.71718  -1.35872  -0.41518
C    -0.26200  -1.59658  -0.42211
C    -0.01619  -2.62782   0.69367
C     0.13980  -2.21414  -1.76175
H     4.21820  -0.37445   1.70959
H     4.65722  -1.58698   0.47234
H     3.59256  -2.03716   1.83713
H     2.75664  -1.01543  -0.68953
H     1.52012   0.00333  -2.07072
H     2.37975   1.72707  -0.14081
H     2.14218   2.36052  -1.77303
H     0.37443   3.72058  -1.01862
H     0.55683   3.09757   0.62763
H    -1.73321   2.45903  -0.68884
H    -1.10355   0.45369  -2.32639
H    -0.17212   1.89804  -2.79696
H    -0.04857   1.77874   2.12351
H    -1.81258   1.85178   1.88745
H    -1.04344   0.36059   2.49243
H    -0.65310  -3.50740   0.52213
H     1.03102  -2.95931   0.69490
H    -0.25443  -2.21273   1.68205
H    -0.13400  -1.57882  -2.61384
H     1.22515  -2.38813  -1.79087
H    -0.36313  -3.18485  -1.88454
