40
Generated by autodE on: 2022-05-29. E = -824.020613 Ha. Imaginary frequency = -241.7 cm-1
C     3.67884  -1.58199   1.12506
N     2.74691  -0.76123   0.38240
C     1.56371  -0.35240   0.93131
O     1.32731  -0.60625   2.13448
C     0.65965   0.38003   0.05318
C     1.06686   0.96794  -1.30164
C     1.66148   2.37552  -0.98661
C     0.41211   3.16190  -0.48644
C    -0.74133   2.11758  -0.62618
C    -0.29612   1.37315  -1.89351
C    -0.49190   1.06751   0.45664
C    -0.95101   1.32979   1.86403
C    -2.10018  -0.38973  -0.02529
C    -3.46656  -0.06967   0.02644
N    -4.54073   0.38347   0.12356
N    -1.55364  -1.45926  -0.32072
C    -0.44045  -2.10308  -0.50669
C     0.03945  -3.03511   0.56359
C     0.12181  -2.25294  -1.88693
H     3.26010  -2.57274   1.37501
H     3.96507  -1.09609   2.07053
H     4.58438  -1.72970   0.52215
H     2.87064  -0.67958  -0.61931
H     1.70215   0.33931  -1.94010
H     2.46101   2.31678  -0.23441
H     2.08525   2.83269  -1.89470
H     0.20535   4.03543  -1.12300
H     0.51602   3.52205   0.54732
H    -1.75096   2.55073  -0.61772
H    -0.94365   0.52637  -2.15349
H    -0.19880   2.03342  -2.76898
H    -0.93048   0.42419   2.48030
H    -1.96989   1.74674   1.86971
H    -0.28464   2.06727   2.34602
H     1.12735  -3.15996   0.47600
H    -0.42128  -4.02887   0.42328
H    -0.20698  -2.66388   1.56587
H    -0.31860  -1.54268  -2.59602
H    -0.05065  -3.28092  -2.25124
H     1.21108  -2.10086  -1.84228
