42
Generated by autodE on: 2022-06-18. E = -920.472888 Ha
C    -1.05119  -1.38135   2.53009
C    -0.73916  -1.45011   1.22687
C    -1.04765  -2.66820   0.39979
C    -0.06851  -0.26447   0.56949
C     1.19780  -0.58844  -0.29981
C     2.49051  -0.16031   0.32001
C     3.39987  -0.95997   0.90740
C     4.64886  -0.38605   1.52154
C     3.27015  -2.45424   1.02880
C     0.83944   0.10875  -1.63114
C     1.70246  -0.14725  -2.82750
N    -0.56550  -0.16953  -1.74748
C    -0.96055   0.49341  -0.50131
C    -2.44850   0.51557  -0.20679
O    -3.20052  -0.35570  -0.65333
N    -2.85845   1.49689   0.61039
C    -4.24622   1.61824   1.01207
C    -0.22791   1.84173  -0.61503
O    -0.49419   2.92017  -0.12868
O     0.87334   1.59739  -1.32991
H    -1.54517  -2.21351   3.04058
H    -0.82124  -0.49277   3.12545
H    -1.65275  -2.40362  -0.47857
H    -1.59403  -3.41515   0.99337
H    -0.12564  -3.14222   0.02441
H     0.18862   0.45206   1.36021
H     1.21777  -1.65944  -0.52563
H     2.67702   0.91913   0.31753
H     4.70303  -0.62885   2.59758
H     5.54985  -0.82792   1.06045
H     4.70088   0.70698   1.40902
H     2.35711  -2.85530   0.56952
H     4.13946  -2.95569   0.56892
H     3.27145  -2.74894   2.09267
H     1.34415   0.42718  -3.69429
H     1.67770  -1.21897  -3.07024
H     2.74103   0.13919  -2.61096
H    -0.97056   0.30212  -2.56001
H    -2.20535   2.25313   0.80772
H    -4.89680   1.87950   0.16101
H    -4.60795   0.67015   1.43646
H    -4.32892   2.40315   1.77373
