23
Generated by autodE on: 2022-06-18. E = -351.521383 Ha
C     3.60576  -0.48123   1.03329
C     2.57217  -0.10631   0.24777
C     2.80242   0.54087  -1.09400
C     1.19822  -0.32694   0.69470
C     0.07905   0.00036   0.00099
C    -1.26262  -0.24116   0.49112
C    -2.42858   0.05362  -0.13772
C    -3.74956  -0.26012   0.50611
C    -2.52468   0.70112  -1.49008
H     4.64332  -0.32840   0.72348
H     3.43516  -0.95105   2.00688
H     2.34586  -0.05126  -1.90449
H     2.34049   1.54124  -1.13735
H     3.87569   0.64662  -1.30606
H     1.08425  -0.79959   1.67773
H     0.18543   0.47178  -0.97966
H    -1.32713  -0.71422   1.47851
H    -3.63036  -0.73343   1.49177
H    -4.34763  -0.93278  -0.13472
H    -4.35238   0.65760   0.62984
H    -1.55083   0.91801  -1.94744
H    -3.09356   0.05582  -2.18258
H    -3.09011   1.64731  -1.42097
