19
Generated by autodE on: 2022-06-18. E = -568.935243 Ha
C     3.75794   0.02464   0.02335
N     2.34671  -0.28069  -0.04965
C     1.36970   0.64319   0.12562
O     1.58843   1.84790   0.35643
C     0.01295   0.13748   0.02505
N    -1.09537   0.97295   0.18398
C    -2.20709   0.29305   0.05021
C    -3.59350   0.77993   0.14306
O    -1.92466  -0.98195  -0.19546
C    -0.48067  -1.14914  -0.22384
O    -0.00217  -2.25600  -0.43536
H     4.27542  -0.25559  -0.90828
H     4.24414  -0.50663   0.85824
H     3.87993   1.10299   0.17971
H     2.05832  -1.24004  -0.22451
H    -1.03296   1.97208   0.37849
H    -3.60227   1.85981   0.33689
H    -4.12038   0.25498   0.95568
H    -4.12750   0.56864  -0.79689
