39
Generated by autodE on: 2022-10-07. E = -1200.987192 Ha
C     4.12617   0.60707  -2.29795
N     2.93868   0.68896  -1.47423
C     2.96877   0.48508  -0.15004
O     4.00076   0.29000   0.50773
C     1.61614   0.44460   0.54044
O     0.61621   1.13346  -0.20416
C    -0.58820   0.37342  -0.31484
C    -0.71929  -0.09602  -1.78838
C    -2.06389  -0.56326  -2.26975
O     0.23092  -0.00499  -2.54789
C    -1.76636   1.28263   0.01785
C    -1.74373   2.60918  -0.44000
C    -2.81308   3.46807  -0.17819
C    -3.92330   3.00900   0.53897
C    -3.95418   1.68674   0.99010
C    -2.88225   0.82644   0.73141
C    -0.39768  -0.83393   0.65162
C    -1.12439  -2.13773   0.24398
O    -2.15134  -2.45879   0.89593
O    -0.63679  -2.77104  -0.72733
C     1.12425  -0.99866   0.69078
C     1.62781  -1.68736   1.97757
O     2.22625  -2.78375   1.84101
O     1.38619  -1.09861   3.06515
H     4.39961  -0.43700  -2.53049
H     4.97641   1.07136  -1.77941
H     3.95439   1.13930  -3.24302
H     2.01303   0.68103  -1.91027
H     1.73099   0.90966   1.53274
H    -1.93203  -1.29505  -3.07725
H    -2.69039  -0.97582  -1.47026
H    -2.58818   0.31732  -2.67900
H    -0.87866   2.96935  -0.99932
H    -2.77975   4.49998  -0.53601
H    -4.76090   3.67993   0.74422
H    -4.81733   1.31849   1.54997
H    -2.91850  -0.20762   1.07725
H    -0.74153  -0.51909   1.64541
H     1.43553  -1.59268  -0.17794
