39
Generated by autodE on: 2022-10-07. E = -1200.898953 Ha. Imaginary frequency = -229.1 cm-1
C     4.23361  -0.76642  -1.94957
N     2.90180  -0.37840  -1.53314
C     2.73614   0.58375  -0.60226
O     3.66173   1.24125  -0.09946
C     1.34398   0.81389  -0.16578
O     0.40776   0.62786  -1.05756
C    -0.91117   0.50301  -0.85974
C    -1.60851  -0.01337  -2.03536
C    -0.78680  -0.32587  -3.26341
O    -2.83158  -0.19086  -2.02431
C    -1.59310   1.16516   0.26031
C    -1.13328   2.39553   0.76933
C    -1.78273   3.01364   1.83911
C    -2.90844   2.42227   2.41809
C    -3.39034   1.21332   1.90386
C    -2.74446   0.59104   0.83771
C    -0.21331  -1.65505   0.43575
C    -0.11684  -2.46651  -0.82476
O    -1.15323  -3.07433  -1.19590
O     0.99225  -2.47137  -1.45216
C     0.87627  -1.16966   1.10232
C     0.79941  -0.47579   2.44970
O     1.89494  -0.05362   2.91320
O    -0.33050  -0.35145   2.99475
H     4.79815   0.10555  -2.31172
H     4.15467  -1.49766  -2.76452
H     4.81187  -1.22047  -1.12524
H     2.14759  -1.08642  -1.60204
H     1.17242   1.42698   0.71486
H    -0.01521  -1.07801  -3.04141
H    -1.45896  -0.70083  -4.04592
H    -0.26693   0.57665  -3.62128
H    -0.27352   2.89128   0.31707
H    -1.40539   3.96607   2.21878
H    -3.40986   2.90122   3.26222
H    -4.27187   0.74327   2.34632
H    -3.11564  -0.35828   0.45578
H    -1.20027  -1.57779   0.89127
H     1.87201  -1.47243   0.77473
