20
Generated by autodE on: 2022-10-21. E = -552.846216 Ha
C     2.99458  -0.70196  -0.37791
C     2.02865   0.43498  -0.16253
O     2.40323   1.60894  -0.08105
C     0.63321   0.05626  -0.05805
O     0.25744  -1.23712  -0.14662
C    -1.14215  -1.33191  -0.01430
O    -1.70902  -2.41552  -0.06263
C    -1.57885   0.01035   0.16158
C    -2.96410   0.50187   0.34524
N    -0.47142   0.80074   0.12741
C    -0.52595   2.25514   0.27521
H     2.74453  -1.25413  -1.29770
H     2.93957  -1.41896   0.45672
H     4.01114  -0.29568  -0.45214
H    -3.26688   1.18739  -0.46414
H    -3.64729  -0.35816   0.34416
H    -3.08505   1.04144   1.29947
H     0.48754   2.65414   0.20667
H    -0.97116   2.49514   1.24980
H    -1.15850   2.66788  -0.52172
