44
Generated by autodE on: 2022-10-21. E = -1277.439738 Ha. Imaginary frequency = -354.2 cm-1
C    -2.18753  -2.44808  -1.36136
O    -1.42348  -1.24629  -1.41615
C    -1.26740  -0.53025  -0.27349
C    -2.46960  -0.26223   0.64411
C    -2.06423   0.01000   2.11024
C    -1.29783   1.35978   2.03060
C    -1.34222   1.68727   0.52702
C    -2.77193   1.19058   0.17695
C    -0.49706   0.68574  -0.31242
C    -0.09661   1.27473  -1.63708
F     0.49424   0.43243  -2.49629
F    -1.16254   1.79167  -2.30708
F     0.75455   2.32264  -1.47176
C     1.34205   0.05964   0.51801
C     2.24214   1.23721   0.68816
C     3.38297   1.36735  -0.27607
O     2.03328   2.03588   1.58989
O     1.65326  -0.80154  -0.52813
C     0.97341  -1.98999  -0.30707
O     0.95835  -2.87921  -1.13923
C     0.36542  -1.85706   0.99409
C    -0.11959  -3.02290   1.78395
N     0.94378  -0.73340   1.56461
C     1.17316  -0.55526   2.99054
H    -1.95376  -3.00854  -2.27542
H    -3.26695  -2.23049  -1.33592
H    -1.91637  -3.05076  -0.48212
H    -3.27302  -0.99888   0.53832
H    -2.98150   0.11288   2.70772
H    -1.48872  -0.80463   2.55518
H    -1.83351   2.14885   2.57834
H    -0.27974   1.33287   2.42445
H    -1.10991   2.73450   0.29859
H    -3.01336   1.26074  -0.89109
H    -3.56511   1.67770   0.76766
H     3.85111   2.35279  -0.15901
H     3.05767   1.21246  -1.31322
H     4.11940   0.57751  -0.04817
H     0.66830  -3.39211   2.46311
H    -1.00349  -2.78791   2.39243
H    -0.37797  -3.83710   1.09382
H     1.72712   0.37191   3.15761
H     0.22863  -0.51470   3.54900
H     1.76519  -1.40290   3.36549
