31
Generated by autodE on: 2022-07-27. E = -801.229324 Ha
C     2.52999  -4.29054  -1.93108
N     1.74471  -3.07533  -1.93939
C     1.40875  -2.43769  -0.79173
O     1.75225  -2.86208   0.32937
C     0.61902  -1.22765  -0.96746
O     0.33047  -0.61696   0.14785
C    -0.25916   0.48670   0.52837
C    -0.19880   0.67537   1.99699
O    -0.77637   1.61999   2.56051
N     0.51984  -0.24057   2.68599
C     0.60198  -0.19583   4.13014
C    -0.91814   1.40315  -0.39247
C    -0.90803   2.79497  -0.14366
C    -1.54308   3.67528  -1.01656
C    -2.20701   3.19511  -2.15143
C    -2.23225   1.82039  -2.40527
C    -1.59247   0.93198  -1.54136
H     2.69007  -4.61784  -2.96554
H     2.01909  -5.09815  -1.38128
H     3.51188  -4.13259  -1.45548
H     1.43843  -2.68807  -2.82592
H     0.31898  -0.81041  -1.92771
H     0.94470  -1.01385   2.18384
H     1.25917  -1.00452   4.47247
H     1.01440   0.76498   4.47681
H    -0.38773  -0.32320   4.59996
H    -0.39153   3.17673   0.73516
H    -1.51521   4.74818  -0.81235
H    -2.70176   3.88954  -2.83423
H    -2.75699   1.43361  -3.28184
H    -1.65279  -0.13749  -1.74482
