49
Generated by autodE on: 2022-06-02. E = -1108.475170 Ha
C    -0.89011   3.90353   3.00692
N    -0.37533   2.81391   2.20738
C    -1.15133   1.86035   1.65235
O    -2.38359   1.79977   1.80085
C    -0.44960   0.85082   0.83168
N     0.81848   0.90838   0.60179
N     1.22022  -0.11836  -0.15450
C     2.53939  -0.15231  -0.62718
C     3.09593  -1.32796  -1.16718
C     4.41462  -1.33499  -1.62638
C     5.20999  -0.18870  -1.54995
C     4.66071   0.97793  -1.00633
C     3.34223   1.00493  -0.55503
C     0.09986  -1.04354  -0.52588
C     0.01524  -1.23053  -2.03839
C     0.18445  -2.36139   0.30415
C    -0.93208  -3.32295  -0.13629
C    -2.21687  -2.62124   0.38925
C    -1.67021  -1.38164   1.14676
C    -0.33842  -1.93160   1.68717
C    -1.15160  -0.30972   0.14669
C    -2.13988   0.34161  -0.83247
O    -1.72726   1.16293  -1.66150
N    -3.44559   0.04419  -0.72677
C    -4.44414   0.75810  -1.50006
H    -0.32021   4.00026   3.94346
H    -0.83393   4.86463   2.46872
H    -1.94027   3.70232   3.25002
H     0.61738   2.78168   1.99685
H     2.51462  -2.24501  -1.22289
H     4.82304  -2.25955  -2.04171
H     6.24147  -0.20307  -1.90811
H     5.26256   1.88782  -0.94022
H     2.91997   1.92163  -0.14655
H    -0.97603  -1.61097  -2.31796
H     0.76152  -1.94846  -2.40128
H     0.16100  -0.27355  -2.55281
H     1.18689  -2.80464   0.28382
H    -0.78286  -4.29633   0.35330
H    -0.95191  -3.50268  -1.21857
H    -2.76764  -3.26350   1.09169
H    -2.90479  -2.36367  -0.42388
H    -2.36090  -0.96034   1.88815
H    -0.47805  -2.78799   2.36299
H     0.28288  -1.18188   2.19555
H    -3.76019  -0.52631   0.04859
H    -4.19503   0.73127  -2.57053
H    -4.51199   1.81527  -1.19173
H    -5.42023   0.28062  -1.34903
