48
Generated by autodE on: 2022-06-21. E = -907.844626 Ha
C    -4.06887   1.77696   1.39438
N    -2.81714   1.32757   0.82630
C    -2.70249   0.75097  -0.36830
O    -3.63415   0.58561  -1.13580
C    -1.28167   0.30785  -0.76174
C    -0.97106   1.00019  -2.09445
O    -0.36360   0.78391   0.22163
C     0.55628  -0.20597   0.71347
C     0.22845  -0.40989   2.19995
C     1.97247   0.36287   0.60102
C     3.05130  -0.27426   1.23752
C     4.35124   0.22266   1.11755
C     4.59960   1.37473   0.36421
C     3.53318   2.02014  -0.26647
C     2.23289   1.51811  -0.14809
C     0.32875  -1.47530  -0.21085
C     0.50498  -2.79260   0.55561
C     1.34963  -1.51586  -1.36463
C    -1.15032  -1.26354  -0.74741
C    -2.19840  -1.90181   0.18819
C    -1.39612  -1.87486  -2.13242
H    -4.84960   1.71960   0.62598
H    -3.98700   2.81772   1.74294
H    -4.36976   1.14887   2.24882
H    -1.95612   1.39541   1.36197
H    -0.98964   2.08924  -1.93411
H    -1.72274   0.75520  -2.85436
H     0.02069   0.72535  -2.47088
H     0.91281  -1.11685   2.68485
H     0.32294   0.55932   2.71265
H    -0.79616  -0.77281   2.34080
H     2.88340  -1.17862   1.82445
H     5.17454  -0.29401   1.61711
H     5.61574   1.76576   0.27210
H     3.71097   2.92294  -0.85642
H     1.40742   2.02578  -0.64492
H     1.54820  -2.89490   0.89102
H    -0.14013  -2.88091   1.43660
H     0.28848  -3.64423  -0.10814
H     1.13809  -2.36404  -2.02967
H     2.36348  -1.65880  -0.96867
H     1.36157  -0.60040  -1.96821
H    -3.20945  -1.70898  -0.19379
H    -2.06788  -2.99160   0.22013
H    -2.15353  -1.52482   1.21633
H    -1.25072  -2.96567  -2.09473
H    -0.74135  -1.47405  -2.91391
H    -2.43655  -1.68609  -2.43669
