29
Generated by autodE on: 2022-05-31. E = -1025.872188 Ha
C     1.16810  -4.18260  -0.97973
C     0.12379  -3.09767  -1.25408
C     0.07834  -2.02728  -0.26174
C    -0.02967  -0.92869   0.23834
C    -0.17919   0.52556   0.25153
C     1.14195   1.18209   0.72109
F     1.51298   0.75271   1.93583
F     1.04117   2.51837   0.78022
F     2.14409   0.89429  -0.12158
C    -1.33272   0.93219   1.19998
F    -1.06899   0.62518   2.47841
F    -1.58938   2.24658   1.14390
F    -2.45962   0.28876   0.86261
C    -0.53667   0.98137  -1.20679
C     0.15351   0.23857  -2.36868
C    -0.46486  -1.10175  -2.86228
C     0.34994  -2.38974  -2.62007
H     2.17795  -3.74689  -0.92235
H     1.15988  -4.92602  -1.79146
H     0.96242  -4.70427  -0.03283
H    -0.87642  -3.56603  -1.27260
H    -0.32280   2.05792  -1.27522
H    -1.62465   0.87093  -1.31829
H     1.22112   0.09835  -2.14706
H     0.12230   0.94644  -3.21122
H    -0.59827  -1.01513  -3.95176
H    -1.48207  -1.22412  -2.45212
H     0.11659  -3.12684  -3.40544
H     1.42523  -2.16047  -2.71559
