17
Generated by autodE on: 2022-05-31. E = -251.967792 Ha
C     2.70439   0.31688   0.35344
C     1.28696   0.66562   0.03579
N     0.34530  -0.30219   0.01619
C    -0.98878  -0.24202  -0.04497
C    -1.76980  -1.49637  -0.26854
C    -1.61020   1.10708  -0.09966
H     2.97147   0.41034   1.42935
H     3.41280   0.96299  -0.19378
H     2.93106  -0.72582   0.06611
H     0.93739   1.69764   0.06322
H     0.72523  -1.25187   0.03466
H    -2.63759  -1.56701   0.41247
H    -1.14615  -2.39121  -0.10456
H    -2.18107  -1.57323  -1.29728
H    -2.70759   1.03982  -0.08856
H    -1.29269   1.74340   0.75195
H    -1.31381   1.66955  -1.01330
