46
Generated by autodE on: 2022-05-31. E = -1277.844220 Ha. Imaginary frequency = -55.7 cm-1
C    -0.15078  -1.96339   3.62320
C     0.56817  -0.86132   2.84728
C     0.31806   0.52321   3.48904
C     1.17727   1.69663   2.99661
C     0.84815   2.36639   1.64334
C     1.59787   1.84873   0.39809
C     0.83061   0.85711  -0.53675
C    -0.29740   1.61433  -1.29157
F     0.10410   2.83144  -1.69555
F    -0.72432   0.97258  -2.39074
F    -1.36947   1.79914  -0.50302
C     1.85100   0.30537  -1.56337
F     2.91148  -0.22927  -0.93844
F     1.34671  -0.65507  -2.34857
F     2.31074   1.27888  -2.37136
C     0.30361  -0.24034   0.29774
C     0.25998  -0.75793   1.40924
C    -2.32176  -2.26616   1.03928
C    -2.61754  -3.49426   1.84739
C    -3.05188  -0.99363   1.31132
N    -1.86794  -2.46763  -0.20942
C    -1.74607  -1.62838  -1.24672
C    -1.28626  -2.15939  -2.56589
H     0.25106  -2.02409   4.64695
H    -1.22774  -1.75443   3.68964
H    -0.02113  -2.94288   3.14164
H     1.65479  -1.06138   2.90559
H    -0.75211   0.77099   3.37532
H     0.49569   0.40756   4.57166
H     2.24109   1.39847   3.00430
H     1.08646   2.48092   3.76588
H    -0.24000   2.36535   1.48307
H     1.12704   3.42682   1.74014
H     1.93299   2.69471  -0.21744
H     2.50263   1.32096   0.72627
H    -3.64743  -3.87039   1.66631
H    -1.92559  -4.31688   1.60138
H    -2.54120  -3.30147   2.92686
H    -2.46177  -0.10862   1.02812
H    -3.30617  -0.91154   2.37806
H    -4.00265  -0.93668   0.73449
H    -1.47748  -3.39914  -0.36621
H    -2.27924  -0.68290  -1.18099
H    -2.10534  -2.62091  -3.15639
H    -0.86146  -1.35826  -3.18494
H    -0.50602  -2.93013  -2.44309
