57
Generated by autodE on: 2022-06-29. E = -1100.815096 Ha
C    -1.24346   2.66008  -1.63323
C    -0.13419   2.34444  -0.94823
C     1.01764   3.31006  -0.84717
C     0.04244   1.03053  -0.21790
C    -1.22090   0.16925  -0.08124
C    -2.16614   0.71011   0.95753
C    -3.50141   0.55670   0.99032
C    -4.32118   1.13022   2.11423
C    -4.28024  -0.22936  -0.02834
C    -0.67868  -1.29322   0.14744
C    -1.02494  -1.73724   1.57285
C    -0.07632  -1.38211   2.67571
O    -2.08011  -2.31904   1.77473
C    -1.33719  -2.28942  -0.86453
C    -1.25662  -3.77471  -0.60985
O    -1.84653  -1.89111  -1.89813
N     0.75539  -1.18053  -0.08719
C     1.54675  -2.36648  -0.33497
C     1.11360   0.05868  -0.80615
C     0.96541  -0.07669  -2.32812
C     2.53646   0.46187  -0.39560
C     3.53358   0.78095  -1.32736
C     4.81537   1.16089  -0.91122
C     5.12663   1.22286   0.44803
C     4.14421   0.89332   1.38902
C     2.86871   0.51489   0.96894
H    -2.09628   1.98401  -1.71967
H    -1.33246   3.62900  -2.13408
H     1.90065   2.93531  -1.38851
H     1.33306   3.43829   0.20160
H     0.75499   4.29460  -1.26114
H     0.38425   1.27635   0.80041
H    -1.73182   0.11695  -1.04821
H    -1.69481   1.26822   1.77489
H    -4.87003   0.32951   2.64144
H    -3.70127   1.66564   2.84864
H    -5.08673   1.82635   1.72834
H    -5.19893   0.30769  -0.31806
H    -4.60180  -1.19210   0.40790
H    -3.70390  -0.45577  -0.93385
H     0.87801  -1.91129   2.53160
H    -0.51546  -1.65054   3.64518
H     0.15059  -0.30590   2.64334
H    -0.66673  -4.05513   0.26845
H    -0.84376  -4.25679  -1.50898
H    -2.28393  -4.14911  -0.47595
H     1.36895  -3.11309   0.45355
H     2.61340  -2.10039  -0.29690
H     1.36138  -2.85289  -1.31301
H     1.64019  -0.85077  -2.72170
H     1.19495   0.86660  -2.84185
H    -0.06225  -0.35713  -2.58969
H     3.32116   0.74576  -2.39526
H     5.57257   1.40811  -1.65941
H     6.12648   1.51994   0.77352
H     4.37391   0.92875   2.45691
H     2.11734   0.24487   1.71073
