23
Generated by autodE on: 2022-06-29. E = -351.521383 Ha
C    -3.37899   0.49715   1.62193
C    -2.49606   0.14710   0.66083
C    -2.95725  -0.41560  -0.65935
C    -1.06237   0.31189   0.89231
C    -0.07725   0.00047   0.01289
C     1.33164   0.18432   0.29576
C     2.37384  -0.09857  -0.52606
C     2.23302  -0.66574  -1.91015
C     3.78909   0.14953  -0.08649
H    -3.04081   0.90518   2.57946
H    -4.45686   0.38432   1.47584
H    -4.05325  -0.48752  -0.70064
H    -2.53723  -1.42055  -0.83146
H    -2.61941   0.21396  -1.49930
H    -0.77958   0.72445   1.86834
H    -0.35010  -0.41120  -0.96269
H     1.56576   0.59720   1.28451
H     2.78242  -1.62041  -1.98958
H     1.19248  -0.84399  -2.21038
H     2.69259   0.01364  -2.64972
H     4.37762  -0.78514  -0.11523
H     3.84219   0.56326   0.93123
H     4.29572   0.84946  -0.77522
