34
Generated by autodE on: 2022-06-29. E = -749.277335 Ha
C    -1.63627   1.99105   2.32246
C    -1.09383   1.86941   0.91725
O    -0.51355   2.85457   0.39981
C    -1.22099   0.64187   0.20058
C    -1.81624  -0.57838   0.65038
C    -1.94678  -1.73760  -0.32743
O    -2.24072  -0.74532   1.81481
N    -0.71869   0.69734  -1.15665
C    -1.53302   1.45046  -2.12209
C     0.33700   0.03634  -1.55131
C     0.64807  -0.06689  -3.00562
C     1.25103  -0.58901  -0.57469
C     1.68885  -1.90955  -0.76949
C     2.56816  -2.49705   0.14241
C     3.04415  -1.76013   1.23000
C     2.63688  -0.43203   1.40809
C     1.73633   0.15114   0.51972
H    -2.69984   1.71733   2.37481
H    -1.10487   1.30729   3.00207
H    -1.49497   3.02749   2.66013
H    -2.11075  -1.42637  -1.36851
H    -1.03396  -2.35522  -0.30014
H    -2.78479  -2.36728   0.00197
H    -0.89747   2.04304  -2.79155
H    -2.19914   2.11382  -1.56409
H    -2.13647   0.74943  -2.71915
H     1.44834  -0.79176  -3.18641
H     0.99259   0.91660  -3.36969
H    -0.24455  -0.33832  -3.58850
H     1.32194  -2.48499  -1.62136
H     2.88693  -3.53131  -0.00315
H     3.74156  -2.21650   1.93615
H     3.02400   0.15284   2.24521
H     1.42945   1.18910   0.64858
