34
Generated by autodE on: 2022-07-27. E = -749.273511 Ha
C    -1.75809   0.47524   2.14399
C    -2.28806  -0.66291   1.27730
O    -3.45695  -1.05420   1.47274
C    -1.42186  -1.21132   0.27553
C    -1.77194  -2.24192  -0.65840
C    -0.77034  -2.55666  -1.76292
O    -2.85889  -2.85412  -0.64639
N    -0.09313  -0.63598   0.16670
C     0.97532  -1.37421   0.86153
C     0.11781   0.48975  -0.46486
C    -0.95126   1.13690  -1.26957
C     1.41198   1.19623  -0.36125
C     2.09731   1.58748  -1.52405
C     3.30095   2.28539  -1.42142
C     3.80823   2.62941  -0.16437
C     3.11414   2.26585   0.99443
C     1.92567   1.54244   0.90138
H    -0.72633   0.31706   2.48911
H    -1.77810   1.42645   1.58636
H    -2.41879   0.57921   3.01516
H     0.22026  -2.83327  -1.37069
H    -0.62553  -1.68071  -2.41698
H    -1.16089  -3.38884  -2.36357
H     0.77278  -2.44438   0.74136
H     1.95904  -1.12935   0.44703
H     0.95192  -1.13932   1.93462
H    -1.77370   0.45425  -1.50755
H    -1.35178   1.98835  -0.69238
H    -0.51136   1.56039  -2.18358
H     1.69949   1.32498  -2.50603
H     3.84109   2.56782  -2.32752
H     4.74436   3.18702  -0.08748
H     3.50032   2.54576   1.97679
H     1.38060   1.26706   1.80552
