57
Generated by autodE on: 2022-06-29. E = -1100.747103 Ha. Imaginary frequency = -307.3 cm-1
C     1.07609   3.07508  -1.11151
C     0.00952   2.25048  -1.10871
C    -1.09243   2.40993  -2.12734
C    -0.14015   1.21676  -0.05028
C    -1.41497   0.63342   0.19305
C    -2.03075   0.68923   1.48560
C    -3.32513   0.38125   1.78263
C    -3.83205   0.51654   3.18655
C    -4.33215  -0.08739   0.77519
C    -0.62677  -1.80198   0.16821
C    -1.20899  -2.03172   1.47888
C    -0.42773  -1.65138   2.72196
O    -2.34793  -2.50471   1.63034
C    -1.31047  -2.39557  -0.99384
C    -0.48673  -3.28456  -1.90913
O    -2.52771  -2.31731  -1.18596
N     0.72718  -1.43261   0.07230
C     1.74946  -2.22514   0.78066
C     1.09441  -0.37212  -0.75276
C     0.62520  -0.40743  -2.18823
C     2.46528   0.17776  -0.53763
C     3.33150   0.43351  -1.61444
C     4.58566   1.01561  -1.40543
C     4.99461   1.36396  -0.11742
C     4.13900   1.12401   0.96535
C     2.89263   0.54012   0.75637
H     1.18022   3.85811  -1.86794
H     1.86169   2.99892  -0.35557
H    -0.80635   3.13051  -2.90688
H    -2.01487   2.77345  -1.64300
H    -1.35288   1.45942  -2.61558
H     0.42243   1.44874   0.85788
H    -2.05985   0.42907  -0.66236
H    -1.39351   1.03552   2.30495
H    -4.74660   1.13488   3.22097
H    -3.08255   0.95376   3.86183
H    -4.11698  -0.47696   3.57747
H    -3.88085  -0.44938  -0.15508
H    -4.93668  -0.90612   1.19808
H    -5.03774   0.72926   0.53587
H     0.14065  -2.52438   3.08062
H     0.27471  -0.82524   2.56011
H    -1.14864  -1.37785   3.50407
H     0.59482  -3.19285  -1.76227
H    -0.74587  -3.09950  -2.96192
H    -0.77667  -4.32337  -1.67488
H     1.32723  -3.21546   0.98687
H     2.62238  -2.35931   0.12703
H     2.09228  -1.78761   1.72599
H     1.15667  -1.20828  -2.72583
H     0.84301   0.53878  -2.69282
H    -0.44886  -0.60204  -2.27139
H     3.03816   0.16832  -2.62960
H     5.24257   1.19956  -2.25867
H     5.97138   1.82553   0.04511
H     4.44238   1.40347   1.97687
H     2.22712   0.38812   1.60658
