29
Generated by autodE on: 2022-06-16. E = -687.822546 Ha
C     2.40174   1.11858  -0.66664
C     1.60772   0.01088   0.01574
C     2.53730  -1.00844   0.66158
O     0.81112   0.64697   1.07663
C    -0.53910   0.25789   0.98918
C    -0.77732  -0.96474   1.80698
N    -0.91626  -1.92060   2.44755
C    -1.37348   1.33382   1.55939
N    -2.02941   2.17871   2.00384
C    -0.82037   0.00569  -0.54381
C    -2.01517  -0.91209  -0.79269
C    -1.04302   1.36245  -1.23022
C     0.53308  -0.66259  -0.88651
C     0.91820  -0.78728  -2.33570
O     0.17031  -0.64126  -3.27953
H     1.75460   1.80705  -1.22593
H     3.13498   0.68572  -1.36270
H     2.95332   1.69217   0.09295
H     3.25022  -0.50629   1.33250
H     1.96718  -1.75157   1.23809
H     3.10658  -1.53733  -0.11805
H    -1.86312  -1.91174  -0.36097
H    -2.93128  -0.47748  -0.36363
H    -2.16374  -1.02761  -1.87516
H    -2.04371   1.74625  -0.98510
H    -0.98360   1.24048  -2.31791
H    -0.30396   2.11349  -0.92188
H     0.46670  -1.72149  -0.57148
H     1.97635  -1.10001  -2.49868
