14
Generated by autodE on: 2022-06-16. E = -270.687343 Ha
C    -1.76151  -0.69615  -0.47484
C    -0.89487   0.38512   0.09809
C    -1.63697   1.59033   0.59022
C     0.46000   0.33144   0.19116
C     1.29825  -0.77201  -0.24352
O     2.52211  -0.77618  -0.13443
H    -1.21088  -1.56889  -0.84422
H    -2.48122  -1.03301   0.29056
H    -2.36382  -0.28420  -1.30220
H    -2.22462   2.03480  -0.23168
H    -2.36659   1.29575   1.36434
H    -0.96578   2.35535   1.00413
H     1.00129   1.17685   0.62912
H     0.78565  -1.65039  -0.69583
