29
Generated by autodE on: 2022-06-16. E = -687.753064 Ha. Imaginary frequency = -331.5 cm-1
C     1.91930   1.25059  -0.17653
C     1.58257  -0.12042   0.31559
C     2.65913  -1.14729   0.32798
O     0.68921  -0.29702   1.26787
C    -0.52032   0.35447   1.35206
C    -1.44016  -0.30572   2.19738
N    -2.23332  -0.85583   2.85485
C    -0.66580   1.75355   1.21224
N    -0.88035   2.89532   1.08648
C    -1.09852  -0.46395  -0.99974
C    -2.07532  -1.48569  -0.50074
C    -1.69068   0.80025  -1.54698
C     0.20176  -0.89260  -1.31354
C     0.97036  -0.32900  -2.41625
O     1.93978  -0.88670  -2.92244
H     2.37032   1.79934   0.66993
H     1.05856   1.82151  -0.53624
H     2.66890   1.18007  -0.97383
H     2.31254  -2.07652   0.79741
H     3.52855  -0.75416   0.88382
H     2.99027  -1.34358  -0.70250
H    -1.58876  -2.26628   0.10064
H    -2.52489  -1.97777  -1.38364
H    -2.89828  -1.03762   0.07198
H    -2.12994   0.58457  -2.53809
H    -2.50690   1.15746  -0.90400
H    -0.96050   1.60893  -1.67037
H     0.45585  -1.92772  -1.06857
H     0.64102   0.66054  -2.80051
