36
Generated by autodE on: 2022-06-17. E = -692.437734 Ha
C     4.61171  -0.52282   1.00589
C     3.36352  -0.08172   1.26317
C     3.07634   0.86121   2.40180
C     2.24699  -0.52411   0.42065
C     0.96123  -0.15909   0.56792
C    -0.14480  -0.60731  -0.34676
C    -0.82716   0.60047  -0.96468
C    -0.21590   1.48737  -1.93733
C    -0.95093   2.74076  -2.34709
O     0.89896   1.22061  -2.40319
N    -2.01318   0.81491  -0.45243
N    -2.31063  -0.12177   0.42941
C    -3.68292  -0.25030   0.87113
C    -1.36980  -1.28676   0.35323
C    -1.96485  -2.35650  -0.56974
C    -1.08160  -1.86403   1.73328
H     5.46464  -0.21175   1.61571
H     4.81003  -1.20764   0.17562
H     2.35361   0.42058   3.10860
H     2.62506   1.79833   2.03542
H     3.99321   1.11098   2.95411
H     2.50599  -1.20714  -0.39714
H     0.67315   0.53186   1.36616
H     0.27322  -1.27530  -1.11277
H    -2.04047   2.63084  -2.28011
H    -0.65300   3.55905  -1.66885
H    -0.65289   3.02160  -3.36694
H    -4.09744   0.75233   1.04021
H    -4.31449  -0.77395   0.13199
H    -3.71353  -0.80751   1.81672
H    -1.24131  -3.17659  -0.69217
H    -2.89049  -2.77721  -0.14950
H    -2.18642  -1.94084  -1.56496
H    -0.29585  -2.62977   1.65618
H    -0.74172  -1.09195   2.43685
H    -1.98015  -2.34417   2.14937
