13
Generated by autodE on: 2022-06-17. E = -340.827214 Ha
C    -3.04682   0.26065  -0.01963
N    -1.86465   1.05610  -0.36544
N    -0.80710   0.43568  -0.39021
C     0.24686  -0.11630  -0.52696
C     1.44929  -0.49787   0.20001
C     2.53805   0.53983   0.22034
O     1.55215  -1.60944   0.70181
H    -3.07030  -0.68877  -0.57875
H    -3.05852   0.03256   1.05885
H    -3.93886   0.84941  -0.26168
H     2.87914   0.73802  -0.80871
H     3.37774   0.17729   0.82861
H     2.15148   1.48833   0.62653
