36
Generated by autodE on: 2022-06-17. E = -692.341481 Ha. Imaginary frequency = -291.6 cm-1
C     4.33372   1.27299   1.50461
C     3.14577   0.66844   1.72926
C     2.49840   0.67685   3.09008
C     2.45748  -0.00073   0.63139
C     1.26450  -0.64494   0.72971
C     0.62661  -1.27698  -0.39393
C    -1.30219   0.08678  -0.90378
C    -1.12144   0.39677  -2.30976
C    -1.99339   1.53432  -2.80711
O    -0.35436  -0.19465  -3.06678
N    -1.64275   0.82156   0.04209
N    -1.60429   1.08223   1.25888
C    -2.50338   2.15476   1.68212
C    -0.60382  -1.91519  -0.38354
C    -1.03159  -2.76754  -1.54845
C    -1.38411  -2.16099   0.88086
H     4.87144   1.78977   2.30430
H     4.79351   1.26388   0.51174
H     2.35972  -0.34889   3.47016
H     1.49627   1.13415   3.04659
H     3.10494   1.23569   3.81643
H     2.95310   0.03683  -0.34559
H     0.75784  -0.68895   1.69547
H     1.17035  -1.25351  -1.34168
H    -1.61624   2.48416  -2.39393
H    -1.94382   1.56907  -3.90365
H    -3.03511   1.41906  -2.47499
H    -1.93744   2.88662   2.27965
H    -2.98153   2.66858   0.83292
H    -3.28843   1.73965   2.33656
H    -0.92865  -3.82952  -1.26325
H    -2.09347  -2.60387  -1.78950
H    -0.43098  -2.58466  -2.44659
H    -1.08104  -3.13333   1.30669
H    -1.23389  -1.38735   1.64204
H    -2.46004  -2.22369   0.65991
