32
Generated by autodE on: 2022-10-22. E = -781.410605 Ha
C     5.25496  -1.63691  -0.28992
N     3.80927  -1.68659  -0.32546
C     3.05078  -0.59661  -0.06179
O     3.55861   0.50344   0.24875
C     1.61046  -0.77576  -0.15383
N     0.87937   0.30497   0.09072
C    -0.42890   0.58092   0.09287
C    -0.69345   1.99234   0.41834
O     0.25316   2.79491   0.57218
N    -1.97744   2.38136   0.57302
C    -2.32047   3.74584   0.91577
C    -1.44826  -0.44950  -0.16159
C    -2.48923  -0.22485  -1.08507
C    -3.46669  -1.19682  -1.30937
C    -3.41996  -2.41498  -0.62538
C    -2.38783  -2.65386   0.28887
C    -1.41282  -1.68339   0.51991
H     5.66193  -0.96465  -1.06423
H     5.65044  -2.64560  -0.46152
H     5.61769  -1.27871   0.68670
H     3.34867  -2.54776  -0.59902
H     1.13785  -1.71871  -0.41967
H     1.44652   1.14409   0.31412
H    -2.71772   1.69498   0.48352
H    -3.41252   3.84912   0.90696
H    -1.89256   4.45693   0.19188
H    -1.94878   4.02152   1.91684
H    -2.52333   0.71336  -1.64194
H    -4.26348  -1.00361  -2.03148
H    -4.18309  -3.17598  -0.80384
H    -2.34626  -3.60072   0.83253
H    -0.62406  -1.87600   1.24979
