32
Generated by autodE on: 2022-10-26. E = -781.400964 Ha
C     5.43721  -0.27806  -0.51683
N     4.23235   0.32885   0.00769
C     3.00195  -0.10736  -0.34305
O     2.83471  -1.03422  -1.16880
C     1.86880   0.55134   0.28638
N     0.68042   0.04665  -0.05638
C    -0.60705   0.27563   0.24375
C    -1.04231   1.41797   1.07734
O    -2.11342   1.38360   1.70561
N    -0.24180   2.51185   1.12617
C    -0.63599   3.69248   1.86942
C    -1.59014  -0.69766  -0.25282
C    -2.91054  -0.31056  -0.57260
C    -3.82134  -1.23190  -1.08630
C    -3.44472  -2.56284  -1.30303
C    -2.14265  -2.96275  -0.99019
C    -1.23027  -2.04701  -0.46322
H     5.55995  -1.31816  -0.16947
H     6.30416   0.30515  -0.18277
H     5.42532  -0.29206  -1.61779
H     4.30986   1.05277   0.71397
H     1.96956   1.33258   1.03338
H     0.83537  -0.73178  -0.71986
H     0.53062   2.59692   0.47416
H     0.19915   4.40409   1.87381
H    -0.88345   3.42888   2.90803
H    -1.51938   4.18406   1.42713
H    -3.21826   0.72425  -0.42484
H    -4.83496  -0.90456  -1.33061
H    -4.16166  -3.28125  -1.70692
H    -1.83556  -4.00064  -1.13998
H    -0.23207  -2.39861  -0.19036
