53
Generated by autodE on: 2022-10-22. E = -1628.465740 Ha. Imaginary frequency = -299.6 cm-1
C     5.08904  -0.45428  -1.60452
N     3.85368   0.20273  -1.22969
C     2.66510  -0.19018  -1.73325
O     2.56264  -1.00498  -2.66633
C     1.47174   0.37475  -1.07129
N     0.30732   0.09302  -1.69203
C    -0.96232   0.27608  -1.20991
C    -1.35827   1.55284  -0.58461
O    -2.36235   1.65724   0.14801
N    -0.59077   2.63833  -0.85315
C    -0.80854   3.90643  -0.18974
C    -1.97827  -0.65202  -1.72186
C    -3.32039  -0.26727  -1.93729
C    -4.26015  -1.17917  -2.41292
C    -3.89149  -2.50005  -2.69809
C    -2.56532  -2.89499  -2.50124
C    -1.62292  -1.98821  -2.01414
C    -0.19489  -0.79731   1.08072
O    -0.94213  -1.91126   0.90751
C    -2.32622  -1.81383   1.24205
C    -0.39842   0.14058   2.26106
C     0.14212  -0.66625   3.48902
C     1.67739  -0.71135   3.23177
C     1.83216   0.06075   1.88893
C     0.74889   1.14409   2.05884
C     1.18513  -0.79141   0.80220
Cl    1.94628  -2.33867   0.37142
H     5.13659  -1.48444  -1.21087
H     5.93644   0.11590  -1.20403
H     5.18105  -0.50363  -2.69881
H     3.84571   0.78198  -0.39581
H     1.57541   1.29634  -0.50718
H     0.42371  -0.66213  -2.37341
H     0.15638   2.56627  -1.53396
H     0.03341   4.57375  -0.41339
H    -0.87142   3.76815   0.90080
H    -1.74114   4.39320  -0.52143
H    -3.62754   0.75536  -1.72104
H    -5.29164  -0.85399  -2.57016
H    -4.63181  -3.21259  -3.06904
H    -2.26192  -3.92341  -2.71214
H    -0.60670  -2.33552  -1.82149
H    -2.82094  -2.68813   0.80027
H    -2.76562  -0.89487   0.83267
H    -2.46371  -1.82958   2.33539
H    -1.40510   0.55451   2.38130
H    -0.30996  -1.66613   3.54824
H    -0.09880  -0.13016   4.41910
H     2.06851  -1.73516   3.15112
H     2.23505  -0.19770   4.02887
H     2.85161   0.40079   1.66386
H     0.62165   1.79966   1.19177
H     0.91902   1.76409   2.95088
