30
Generated by autodE on: 2022-05-28. E = -920.363936 Ha
C     3.61509   1.82277  -0.39187
O     2.26559   1.35006  -0.54195
C     2.08003   0.03131  -0.51947
O     2.97543  -0.77652  -0.40322
C     0.60980  -0.30769  -0.66799
C    -0.03560   0.47901  -1.78491
N    -0.98508   1.26788  -1.46607
C    -1.18523   1.23267  -0.02203
C    -2.64343   1.10680   0.41791
C    -3.66004   0.69630  -0.59953
O    -2.91394   1.30538   1.59021
C    -0.28059   0.10938   0.55430
F     0.43550   0.57566   1.64043
C    -0.96029  -1.25771   0.89569
C     0.11453  -2.14493   1.49879
C     0.88586  -2.51778   0.46985
C     0.28658  -1.84183  -0.75337
O    -1.11286  -1.80432  -0.42063
H     4.02291   1.50264   0.57739
H     4.24657   1.43642  -1.20427
H     3.55710   2.91584  -0.43960
H     0.29906   0.36669  -2.82270
H    -0.82749   2.18020   0.41171
H    -3.34459  -0.25625  -1.05580
H    -4.64631   0.58979  -0.13015
H    -3.69850   1.43666  -1.41359
H    -1.91592  -1.18746   1.42331
H     0.23864  -2.35108   2.56103
H     1.79769  -3.11114   0.47552
H     0.45837  -2.29313  -1.73599
