11
Generated by autodE on: 2022-05-28. E = -285.463893 Ha
C     2.23980   1.07342   0.30159
N     1.44775   0.19172   0.12923
C     0.54013  -0.68727  -0.18029
C    -0.87589  -0.36018  -0.13580
C    -1.26419   1.04130   0.27203
O    -1.71887  -1.21509  -0.42441
H     2.74455   1.40817   1.21600
H     0.86338  -1.68696  -0.48150
H    -0.95173   1.23898   1.31045
H    -0.76232   1.78963  -0.36291
H    -2.35265   1.15585   0.19023
