19
Generated by autodE on: 2022-05-28. E = -634.779120 Ha
C     3.61465   0.48929  -0.61845
O     2.22807   0.15306  -0.75049
C     1.50052   0.13537   0.38041
O     1.96712   0.38342   1.48038
C     0.11092  -0.20754   0.11450
C    -0.94700  -0.14739   0.94100
F    -1.00915   0.20350   2.20619
C    -2.19676  -0.46380   0.10516
C    -2.39681   0.73526  -0.85241
C    -1.36832   0.66467  -1.70187
C    -0.54793  -0.56282  -1.24263
O    -1.61444  -1.42613  -0.78793
H     4.03365   0.44977  -1.63066
H     4.12764  -0.23347   0.03294
H     3.72955   1.49995  -0.19983
H    -3.06633  -0.84496   0.65077
H    -3.19390   1.47267  -0.76971
H    -1.09073   1.33084  -2.51779
H     0.09756  -1.05136  -1.97825
