30
Generated by autodE on: 2022-05-28. E = -920.246142 Ha. Imaginary frequency = -299.2 cm-1
C     3.73794   1.71818  -0.56255
O     2.43971   1.22399  -0.21521
C     2.14527  -0.02918  -0.61283
O     2.92859  -0.72883  -1.24066
C     0.81224  -0.45135  -0.22524
C    -0.11738   0.99809  -2.04072
N    -0.90116   1.49831  -1.29475
C    -1.45083   1.61487  -0.09497
C    -2.79450   1.11204   0.17515
C    -3.52726   0.40279  -0.93352
O    -3.27775   1.24474   1.30234
C     0.05899  -0.06999   0.86297
F     0.44773   0.74414   1.84897
C    -0.87149  -1.25844   1.16284
C     0.02754  -2.41183   1.66300
C     0.72922  -2.79020   0.58870
C     0.26305  -1.85535  -0.54828
O    -1.12271  -1.67852  -0.18616
H     4.52590   1.09528  -0.11412
H     3.86801   1.73567  -1.65479
H     3.79106   2.73739  -0.16180
H     0.24761   1.10431  -3.06461
H    -1.02612   2.36695   0.57331
H    -2.93166  -0.45433  -1.28175
H    -4.50031   0.05408  -0.56446
H    -3.67352   1.07765  -1.79196
H    -1.78791  -1.03827   1.71960
H     0.07728  -2.76593   2.69188
H     1.51413  -3.54035   0.49934
H     0.38014  -2.20292  -1.57937
