19
Generated by autodE on: 2022-10-21. E = -585.860090 Ha
C     4.18112  -0.66507  -0.02006
O     2.77436  -0.93566  -0.06641
C     1.95726   0.12556   0.02910
O     2.35536   1.27166   0.14723
C     0.57128  -0.34026  -0.03176
N    -0.49464   0.43391   0.03439
C    -0.35943   1.90313   0.17879
C    -1.77663  -0.08135  -0.02520
C    -1.96995  -1.47228  -0.15786
N    -2.13261  -2.62329  -0.26802
C    -2.91768   0.74276   0.04285
N    -3.90219   1.37020   0.09373
H     4.47419  -0.00546  -0.84998
H     4.67831  -1.63720  -0.11442
H     4.45054  -0.19032   0.93485
H     0.41211  -1.41229  -0.13927
H    -1.35331   2.35444   0.21026
H     0.18360   2.11784   1.10479
H     0.20625   2.29110  -0.67424
