51
Generated by autodE on: 2022-06-24. E = -1225.605491 Ha
C    -2.75515  -0.26514   2.51949
O    -2.10893  -1.33302   1.83779
C    -1.29934  -0.98987   0.75206
C    -2.14101  -0.27973  -0.32938
O    -3.27246  -0.68481  -0.54958
C    -1.59983   0.87453  -1.07288
C    -2.19935   1.20081  -2.40355
C    -0.72892   1.70866  -0.44435
C    -0.34596   3.04368  -0.99945
C    -0.21926   1.34265   0.89874
O     0.04847   2.19045   1.73221
C    -0.01039  -0.15080   1.16000
O     0.24183  -0.45848   2.49521
C     1.22740   0.22259   3.27574
C     1.12968  -0.73329   0.15494
C     2.19172  -1.38245   0.96329
N     3.05683  -1.94375   1.49601
C     1.82975   0.30228  -0.74379
C     1.59790   0.31628  -2.12431
C     2.22166   1.26735  -2.93516
C     3.08101   2.21721  -2.37550
C     3.32012   2.20362  -0.99839
C     2.70391   1.24717  -0.18869
N     0.40208  -1.71354  -0.62589
C    -0.69938  -2.30228   0.13361
C    -0.26776  -3.27509   1.24702
C    -1.62004  -3.05799  -0.82529
H    -3.41317   0.31393   1.85108
H    -3.37005  -0.72353   3.30583
H    -2.02614   0.41307   2.98939
H    -2.89063   2.05766  -2.32621
H    -1.41017   1.48966  -3.11482
H    -2.75993   0.34843  -2.80780
H    -1.23961   3.66742  -1.16512
H     0.33443   3.57521  -0.32383
H     0.14493   2.92070  -1.97757
H     2.00862   0.69402   2.66812
H     1.69426  -0.53621   3.91976
H     0.75582   0.99230   3.90234
H     0.91365  -0.41091  -2.55753
H     2.02867   1.26752  -4.01034
H     3.56329   2.96457  -3.00962
H     3.99223   2.93798  -0.54908
H     2.90909   1.24326   0.88270
H     1.00488  -2.39537  -1.08384
H     0.37268  -4.05278   0.80340
H     0.28304  -2.78237   2.05484
H    -1.14775  -3.76316   1.68775
H    -1.12872  -3.99658  -1.12482
H    -2.56806  -3.30971  -0.33078
H    -1.83627  -2.48220  -1.73417
