25
Generated by autodE on: 2022-06-24. E = -536.117137 Ha
C     3.32543   1.74790  -1.16436
C     2.59247   0.80025  -0.28106
C     3.28980   0.14375   0.85390
N     1.32852   0.55459  -0.53026
C     0.44659  -0.37161   0.03818
C     0.93966  -1.60929   0.46493
N     1.32245  -2.66714   0.80586
C    -0.97881  -0.08660   0.01763
C    -1.92487  -1.09101   0.34415
C    -3.29236  -0.83167   0.31628
C    -3.77702   0.43296  -0.04554
C    -2.85820   1.43657  -0.36701
C    -1.48401   1.19151  -0.32670
H     3.81156   2.52889  -0.55696
H     4.13230   1.21576  -1.69865
H     2.66556   2.21764  -1.90820
H     4.19908   0.70415   1.10957
H     3.58488  -0.89168   0.61067
H     2.62471   0.08768   1.73164
H     0.91470   1.12596  -1.27222
H    -1.57230  -2.08840   0.61709
H    -3.99178  -1.63122   0.57488
H    -4.85063   0.63208  -0.06860
H    -3.21152   2.43462  -0.63974
H    -0.80176   2.01580  -0.54686
