51
Generated by autodE on: 2022-06-24. E = -1225.581986 Ha. Imaginary frequency = -415.3 cm-1
C    -3.03701  -0.88148   2.78911
O    -2.17837  -1.59136   1.89685
C    -1.44654  -0.79980   1.02638
C    -2.23738  -0.20857  -0.09618
O    -3.37448  -0.61162  -0.33136
C    -1.60552   0.84807  -0.91321
C    -2.25849   1.17032  -2.22727
C    -0.58248   1.57362  -0.38024
C    -0.05349   2.81479  -1.02602
C     0.05304   1.22305   0.93024
O     0.92047   1.98256   1.41361
C    -0.42848   0.03566   1.60339
O    -0.01944  -0.34749   2.82364
C     0.51894   0.56399   3.78909
C     1.45267  -0.79907  -0.25786
C     2.11646  -1.12881   0.95144
N     2.72227  -1.31360   1.93123
C     2.10866   0.18465  -1.12566
C     1.71237   0.37272  -2.46775
C     2.31693   1.34878  -3.25490
C     3.32589   2.16332  -2.72739
C     3.73068   1.98330  -1.40231
C     3.13455   1.00385  -0.60829
N     0.43128  -1.55797  -0.73838
C    -0.51190  -2.25623  -0.00424
C    -0.02487  -3.13815   1.12805
C    -1.54230  -2.92904  -0.87710
H    -3.79678  -0.30441   2.23857
H    -3.53921  -1.63757   3.40789
H    -2.46530  -0.20332   3.44258
H    -2.87542   2.08270  -2.16102
H    -1.50570   1.34238  -3.01044
H    -2.91501   0.34928  -2.54302
H    -0.49648   3.69735  -0.53053
H     1.03276   2.89741  -0.89838
H    -0.30155   2.86811  -2.09176
H     1.54544   0.85352   3.54130
H     0.50361   0.01442   4.73970
H    -0.11322   1.45943   3.87381
H     0.93162  -0.23975  -2.92190
H     1.99520   1.47491  -4.29089
H     3.79451   2.93001  -3.34807
H     4.51785   2.61060  -0.97835
H     3.46030   0.87922   0.42428
H     0.11332  -1.28791  -1.66639
H     0.74999  -3.81415   0.73114
H     0.38949  -2.58847   1.97675
H    -0.85908  -3.74683   1.49381
H    -1.17366  -3.92521  -1.17223
H    -2.47512  -3.06582  -0.31542
H    -1.76135  -2.35143  -1.78669
