45
Generated by autodE on: 2022-06-20. E = -922.680501 Ha
C     5.16885   0.82651   0.81716
N     3.96377   0.02282   0.80921
C     2.81874   0.39103   0.20788
O     2.67174   1.47585  -0.37253
C     1.67687  -0.62860   0.27820
C     1.33649  -1.13997  -1.14190
C     2.08610  -2.40794  -1.52679
C    -0.20889  -1.20055  -1.15829
C    -0.77943  -2.52696  -0.66365
C    -0.58469   0.02247  -0.26808
C    -0.45691   1.34342  -1.08450
C    -0.57789   2.64662  -0.33729
O    -0.24375   1.33965  -2.28675
C    -2.00878  -0.07148   0.26928
C    -3.08043   0.35920  -0.52831
C    -4.40072   0.21641  -0.09353
C    -4.67172  -0.36099   1.15046
C    -3.61106  -0.79862   1.94928
C    -2.29156  -0.65663   1.51141
N     0.44176  -0.04676   0.77404
C     0.51461   0.82564   1.92159
H     5.95835   0.37506   0.19472
H     4.93194   1.82019   0.41897
H     5.55521   0.93477   1.84175
H     3.99017  -0.89093   1.25046
H     1.99188  -1.46349   0.93313
H     1.62257  -0.34517  -1.84453
H     1.80571  -2.74190  -2.53832
H     3.17219  -2.22363  -1.52605
H     1.88839  -3.23332  -0.82628
H    -0.57362  -1.01636  -2.17770
H    -1.87837  -2.52146  -0.68406
H    -0.46193  -2.75877   0.36460
H    -0.44336  -3.34894  -1.31268
H    -0.94653   3.42186  -1.02309
H     0.43023   2.93913  -0.00287
H    -1.22568   2.57647   0.54442
H    -2.88827   0.80377  -1.50762
H    -5.21989   0.55760  -0.73107
H    -5.70293  -0.47057   1.49437
H    -3.81061  -1.25730   2.92091
H    -1.47329  -1.01549   2.13502
H     1.07813   1.76214   1.74723
H    -0.49137   1.10187   2.26168
H     1.01373   0.29576   2.75176
