12
Generated by autodE on: 2022-06-20. E = -157.299005 Ha
C     1.62237  -0.36587   0.24001
C     0.61795   0.65687  -0.19984
C    -0.71793   0.52932  -0.24048
C    -1.53526  -0.66770   0.14360
H     2.22352   0.01332   1.08535
H     1.16251  -1.31493   0.55057
H     2.33953  -0.58475  -0.57078
H     1.04087   1.61669  -0.52280
H    -1.29458   1.39353  -0.59408
H    -2.14186  -1.01851  -0.71003
H    -2.25253  -0.41227   0.94357
H    -0.92405  -1.51167   0.49402
