33
Generated by autodE on: 2022-07-27. E = -765.318191 Ha
C     4.69316   0.21470  -1.46128
N     3.86345   0.39950  -0.29073
C     2.51990   0.20760  -0.32764
O     1.93098  -0.06342  -1.38953
C     1.88365   0.29486   0.98746
N     0.57665   0.11825   1.20938
C     0.20695  -0.38929   2.55026
C    -0.39779   0.40421   0.29557
C    -0.25188   1.51117  -0.63956
C     0.69581   2.66030  -0.35691
O    -0.99990   1.60374  -1.62492
C    -1.60318  -0.44108   0.26212
C    -2.88985   0.10883   0.08467
C    -4.01797  -0.70986   0.05835
C    -3.89207  -2.09630   0.20979
C    -2.62297  -2.65681   0.38136
C    -1.49140  -1.83953   0.40053
H     4.86390  -0.85203  -1.69006
H     4.21614   0.67426  -2.33847
H     5.66622   0.69372  -1.29268
H     4.31481   0.51412   0.61092
H     2.52041   0.31533   1.87214
H     0.79939   0.16244   3.29234
H    -0.85761  -0.21548   2.73107
H     0.43858  -1.45857   2.63151
H     0.12193   3.58560  -0.51965
H     1.12725   2.66390   0.65223
H     1.51919   2.65549  -1.08767
H    -3.00276   1.18815  -0.02263
H    -5.00616  -0.26234  -0.07345
H    -4.77846  -2.73472   0.19070
H    -2.51038  -3.73835   0.48951
H    -0.50294  -2.29110   0.50635
