45
Generated by autodE on: 2022-06-20. E = -922.586218 Ha. Imaginary frequency = -396.2 cm-1
C     4.90802   1.13171  -0.92500
N     3.95061   0.69409   0.06927
C     2.61449   0.73795  -0.17059
O     2.17780   1.26995  -1.20570
C     1.80932   0.05550   0.85741
C     1.56824  -1.73193  -0.54127
C     1.46528  -2.90401   0.39992
C     0.49768  -1.30906  -1.32559
C    -0.73942  -2.12334  -1.57115
C    -0.47118   0.39841   0.14904
C    -0.33892   1.54849  -0.80259
C     0.11950   2.86861  -0.23006
O    -0.81498   1.49836  -1.93449
C    -1.86816  -0.01761   0.42115
C    -2.97010   0.76400   0.00551
C    -4.28314   0.35403   0.23944
C    -4.54553  -0.84777   0.90372
C    -3.47099  -1.63774   1.32335
C    -2.15920  -1.23420   1.07922
N     0.48566   0.24031   1.13644
C     0.13255  -0.08434   2.53278
H     4.88868   0.49433  -1.82587
H     4.69834   2.16456  -1.24157
H     5.91490   1.09499  -0.49079
H     4.28829   0.19008   0.88175
H     2.38661  -0.25030   1.73209
H     2.57397  -1.51373  -0.90640
H     1.44226  -3.86124  -0.15420
H     2.32091  -2.94537   1.09008
H     0.54567  -2.86381   1.00304
H     0.72899  -0.58159  -2.10476
H    -1.57608  -1.49931  -1.91751
H    -1.07439  -2.68363  -0.68900
H    -0.53873  -2.86952  -2.36441
H     0.54078   3.50174  -1.02234
H     0.83096   2.76711   0.59700
H    -0.78713   3.36156   0.16643
H    -2.80723   1.71083  -0.50850
H    -5.10862   0.98760  -0.09433
H    -5.57402  -1.16685   1.08763
H    -3.65304  -2.58666   1.83382
H    -1.34609  -1.88770   1.38823
H     0.81917   0.46057   3.19352
H    -0.88744   0.24523   2.74795
H     0.22263  -1.15900   2.74189
