28
Generated by autodE on: 2022-10-06. E = -1060.854644 Ha
C     4.39650  -0.45541  -0.07564
O     3.17034  -0.09905   0.58455
C     2.04657  -0.47812  -0.00374
O     1.97545  -1.20179  -0.97185
C     0.77943   0.01377   0.72690
C     1.10400   0.85696   1.88859
N     1.30687   1.52653   2.81330
O     0.09165  -1.15577   1.17333
C    -1.21066  -1.25105   0.55477
C    -1.51177  -2.71192   0.25560
C    -2.18679  -0.72534   1.54391
N    -2.92737  -0.35663   2.35703
C    -1.12783  -0.35604  -0.69953
C    -2.51804   0.11520  -1.19608
O    -2.96816   1.18757  -0.72438
O    -3.09674  -0.65637  -2.00189
C    -0.17913   0.74606  -0.25192
C     0.55010   1.51197  -1.36987
O     1.72299   1.88761  -1.10174
O    -0.08371   1.71270  -2.43043
H     4.47400  -1.54664  -0.17932
H     4.43062   0.01731  -1.06777
H     5.20303  -0.07191   0.55898
H    -2.47158  -2.78103  -0.27496
H    -0.71270  -3.10143  -0.39052
H    -1.55877  -3.30505   1.17970
H    -0.66336  -0.96237  -1.48701
H    -0.76475   1.48510   0.31724
