28
Generated by autodE on: 2022-10-06. E = -1060.764196 Ha. Imaginary frequency = -232.5 cm-1
C     4.34560   0.60631   0.11412
O     3.02620   0.51359   0.66965
C     2.28029  -0.51780   0.25679
O     2.67524  -1.41382  -0.46505
C     0.90573  -0.40863   0.74981
C     0.54484   0.51781   1.75347
N     0.28759   1.31533   2.56545
O     0.12214  -1.41986   0.36685
C    -1.18547  -1.50285   0.41664
C    -1.80780  -2.58289  -0.39780
C    -1.89458  -0.99620   1.54710
N    -2.52554  -0.66547   2.46792
C    -1.52843   0.48652  -0.99626
C    -2.66017   1.14540  -0.23122
O    -2.37931   2.11386   0.52164
O    -3.80346   0.64360  -0.41206
C    -0.26020   0.99394  -1.06537
C     0.75817   0.49758  -2.07049
O     1.78311   1.21756  -2.22463
O     0.51587  -0.58762  -2.66340
H     4.93923  -0.28218   0.37283
H     4.28197   0.70683  -0.97865
H     4.79491   1.50390   0.55402
H    -2.84842  -2.30582  -0.61828
H    -1.24290  -2.69578  -1.33285
H    -1.81104  -3.53969   0.15248
H    -1.81265  -0.27836  -1.72087
H    -0.01066   1.90044  -0.50995
