61
Generated by autodE on: 2022-06-12. E = -1456.813873 Ha
C     3.45129  -2.78886  -0.33067
N     2.27637  -2.00165  -0.01540
C     2.31907  -0.72859   0.39895
O     3.38977  -0.13799   0.61495
C     1.01732   0.01106   0.73507
C     0.70037  -0.27715   2.25280
C     0.51948  -1.78015   2.52458
C    -0.80323  -2.10393   1.78151
C    -1.26510  -0.71932   1.25666
C    -0.75293   0.19722   2.37502
C    -0.40120  -0.30081   0.02049
C    -0.50939  -1.30078  -1.13472
C     0.43044  -1.35072  -2.17955
C     0.27200  -2.22375  -3.25762
C    -0.84325  -3.06138  -3.33181
C    -1.80248  -3.00574  -2.31840
C    -1.63654  -2.13705  -1.23691
C    -0.84438   1.15100  -0.51994
C    -0.71441   1.30347  -1.99649
N    -0.71492   1.53911  -3.13233
C    -2.30665   1.52003  -0.22854
C    -3.34194   0.86924  -0.91676
C    -4.67419   1.17826  -0.64041
C    -4.98723   2.15458   0.31160
C    -3.95754   2.82330   0.97700
C    -2.62128   2.51051   0.70708
O     0.00187   2.09811   0.09369
C     1.26393   1.55769   0.51106
C     1.68449   2.37072   1.72779
C     2.24162   1.78647  -0.66643
O     2.12346   1.23732  -1.74332
O     3.16723   2.70660  -0.42437
C     4.10247   2.97057  -1.48125
H     4.34724  -2.23941  -0.02039
H     3.50875  -2.98538  -1.41386
H     3.42026  -3.75359   0.19804
H     1.37612  -2.41688  -0.22477
H     1.43917   0.18705   2.91279
H     0.40888  -1.91896   3.60994
H     1.36550  -2.39870   2.20530
H    -0.66261  -2.84203   0.98265
H    -1.56462  -2.50616   2.46502
H    -2.33921  -0.66724   1.05992
H    -1.19041  -0.05892   3.35114
H    -0.90505   1.26410   2.19828
H     1.28679  -0.68258  -2.16095
H     1.02547  -2.23929  -4.04864
H    -0.96805  -3.74487  -4.17495
H    -2.68941  -3.64201  -2.36356
H    -2.40950  -2.11443  -0.47090
H    -3.11068   0.11691  -1.67219
H    -5.47072   0.65806  -1.17709
H    -6.03032   2.39939   0.52467
H    -4.19001   3.59887   1.71036
H    -1.82208   3.04215   1.22111
H     1.77138   3.42661   1.44250
H     0.94123   2.29370   2.52732
H     2.65698   2.02728   2.09939
H     4.66173   2.05573  -1.72486
H     4.78027   3.74175  -1.09817
H     3.57842   3.33137  -2.37752
