34
Generated by autodE on: 2022-06-12. E = -712.152114 Ha
C     1.44146   3.11848  -1.48924
N     0.74422   1.84969  -1.45693
C    -0.50825   1.72469  -0.96038
O    -1.23656   2.70365  -0.72590
C    -1.00458   0.34865  -0.74352
C    -0.39787  -0.70973  -0.14354
C     0.92595  -0.79685   0.49436
C     1.46758   0.28409   1.21924
C     2.72537   0.18400   1.81507
C     3.46621  -0.99778   1.70379
C     2.93421  -2.08356   1.00098
C     1.67350  -1.98722   0.40869
C    -1.46191  -1.79497  -0.01244
C    -2.41986  -1.28506   1.11622
C    -3.11795  -0.06382   0.45335
C    -2.46436  -0.02280  -0.96473
C    -2.32013  -1.52770  -1.26348
H     0.73511   3.92190  -1.73466
H     2.22766   3.08971  -2.25556
H     1.90864   3.35362  -0.51608
H     1.29988   1.00368  -1.53034
H     0.88653   1.20067   1.33627
H     3.12545   1.03040   2.37845
H     4.45062  -1.07499   2.17135
H     3.50374  -3.01200   0.91466
H     1.26577  -2.83818  -0.14109
H    -1.08299  -2.81208   0.14438
H    -1.86500  -1.02392   2.02871
H    -3.14397  -2.07157   1.37578
H    -2.95223   0.87919   0.99219
H    -4.20386  -0.22048   0.36705
H    -2.99817   0.59697  -1.69553
H    -3.27960  -2.06763  -1.25566
H    -1.78466  -1.73079  -2.20280
