27
Generated by autodE on: 2022-06-12. E = -744.592946 Ha
C     3.45367   2.30239  -0.30338
O     2.43077   1.30279  -0.21804
C     2.83909   0.02509  -0.28535
O     4.01181  -0.30105  -0.41194
C     1.75025  -0.94697  -0.19158
C     1.98355  -2.40445  -0.24855
O     0.56666  -0.41527  -0.05978
C    -0.66516  -0.86736   0.06341
C    -0.96681  -2.24977   0.10210
N    -1.32331  -3.36112   0.14941
C    -1.71033   0.14058   0.16935
C    -3.06415  -0.23698   0.29767
C    -4.06006   0.73321   0.39764
C    -3.73119   2.09275   0.37252
C    -2.38958   2.47498   0.24563
C    -1.38569   1.51541   0.14426
H     2.93877   3.26723  -0.23053
H     4.17222   2.19287   0.52222
H     3.98806   2.22891  -1.26197
H     3.05635  -2.58935  -0.37477
H     1.64168  -2.90380   0.67421
H     1.43989  -2.86194  -1.09310
H    -3.33517  -1.29431   0.31830
H    -5.10294   0.42324   0.49588
H    -4.51410   2.85020   0.45131
H    -2.12261   3.53422   0.22512
H    -0.34350   1.82043   0.04553
