19
Generated by autodE on: 2022-06-03. E = -634.779116 Ha
C     3.59132   0.57229   0.70129
O     2.19462   0.27565   0.82193
C     1.51792   0.07794  -0.32315
O     2.03620   0.14155  -1.42629
C     0.11438  -0.21386  -0.06984
C    -0.90048  -0.30978  -0.94562
F    -0.89851  -0.19202  -2.25466
C    -2.19105  -0.48448  -0.13021
C    -2.43898   0.86373   0.58743
C    -1.45464   0.95433   1.48589
C    -0.61261  -0.32816   1.29424
O    -1.65509  -1.26772   0.94765
H     3.74225   1.49955   0.12923
H     4.11973  -0.25248   0.20098
H     3.96440   0.69482   1.72474
H    -3.03147  -0.96435  -0.64243
H    -3.23046   1.56781   0.33520
H    -1.21807   1.75810   2.18194
H    -0.00560  -0.67272   2.13639
