53
Generated by autodE on: 2022-06-04. E = -1736.781575 Ha
C     1.20033  -4.19519   4.37426
N    -0.13823  -4.75692   4.40182
C    -1.14439  -4.18860   3.72711
O    -1.01561  -3.15511   3.07233
C    -2.54651  -4.86340   3.87751
Cl   -2.29618  -6.67271   3.48838
C    -2.99848  -4.82676   5.34896
C    -4.49806  -5.03891   5.61055
C    -5.22808  -3.75792   6.02293
C    -5.59231  -2.74113   4.94517
C    -4.42874  -2.15564   4.03769
C    -4.89253  -0.80769   3.63085
N    -5.25710   0.27724   3.44987
C    -3.22901  -1.81022   4.82949
N    -2.33359  -1.45184   5.47157
C    -4.15870  -3.09941   2.85181
C    -3.48787  -4.26563   2.84986
C    -3.61242  -4.90890   1.46537
C    -2.27817  -5.00010   0.80837
N    -1.26633  -5.00127   0.24189
C    -4.26150  -6.31603   1.45783
O    -3.99344  -7.17137   0.64350
O    -5.22487  -6.39989   2.36301
C    -5.94539  -7.64054   2.43447
N    -4.53977  -4.05104   0.75744
C    -4.50110  -4.07865  -0.69249
C    -4.70453  -2.76099   1.45687
C    -3.82195  -1.66045   0.83175
C    -6.19418  -2.39146   1.40971
H     1.64275  -4.26118   3.36709
H     1.83099  -4.75232   5.07720
H     1.17999  -3.13633   4.67125
H    -0.28560  -5.65194   4.85614
H    -2.67161  -3.87740   5.78730
H    -2.40780  -5.58729   5.87472
H    -4.59792  -5.75319   6.44069
H    -4.98733  -5.50784   4.74325
H    -6.18949  -4.03239   6.48609
H    -4.64633  -3.25571   6.81434
H    -6.32300  -3.16115   4.24081
H    -6.07026  -1.88410   5.43926
H    -6.68439  -7.51200   3.23293
H    -6.44485  -7.84823   1.47784
H    -5.25546  -8.46053   2.68026
H    -4.58302  -5.11893  -1.03971
H    -5.36256  -3.52868  -1.09458
H    -3.57870  -3.64708  -1.12364
H    -2.77389  -1.99111   0.79126
H    -4.16692  -1.43666  -0.18810
H    -3.86562  -0.72567   1.40413
H    -6.79508  -3.15525   1.92300
H    -6.51453  -2.34868   0.35837
H    -6.40619  -1.40980   1.84758
