24
Generated by autodE on: 2022-06-04. E = -572.272444 Ha
C     3.45900   0.80924   0.12142
O     2.36643  -0.05250  -0.19480
C     1.12979   0.36827   0.19891
O     0.96573   1.45122   0.76404
C     0.11104  -0.58208  -0.11974
C     0.40824  -1.85168  -0.63426
N     0.64427  -2.91758  -1.06293
N    -1.23990  -0.30088   0.24715
C    -1.88267  -1.25609   1.16623
C    -1.83961   0.80937  -0.10969
C    -3.13282   1.20832   0.51742
C    -1.27108   1.69036  -1.15822
H     3.55816   0.94458   1.20954
H     3.33638   1.79573  -0.35115
H     4.35754   0.31853  -0.27328
H    -2.96532  -1.28492   1.00563
H    -1.66013  -0.97458   2.20573
H    -1.46720  -2.25118   0.97099
H    -3.28761   2.28755   0.39053
H    -3.96450   0.69098   0.00651
H    -3.17996   0.95439   1.58461
H    -0.68678   2.49656  -0.68421
H    -0.59860   1.14015  -1.83053
H    -2.09349   2.15659  -1.71987
