24
Generated by autodE on: 2022-07-27. E = -572.270809 Ha
C    -1.59275  -2.99404   0.66600
O    -1.14920  -1.67584   0.34515
C     0.19055  -1.51567   0.15650
O     0.98286  -2.44822   0.31086
C     0.54659  -0.18256  -0.21015
C     1.89487   0.16543  -0.34971
N     3.01931   0.47989  -0.46559
N    -0.44785   0.82443  -0.43495
C    -1.42498   0.58492  -1.51482
C    -0.44026   1.96607   0.20974
C     0.48814   2.18782   1.34680
C    -1.36605   3.05901  -0.20028
H    -2.68322  -2.93136   0.76980
H    -1.14850  -3.34231   1.61064
H    -1.33516  -3.70538  -0.13350
H    -1.35140  -0.45923  -1.82546
H    -2.44313   0.79601  -1.16506
H    -1.19026   1.23496  -2.36996
H     0.70143   1.24860   1.87689
H     1.45210   2.57967   0.97457
H     0.06652   2.93712   2.02972
H    -2.40142   2.79162   0.07505
H    -1.10404   3.99418   0.30756
H    -1.35271   3.21630  -1.28926
