10
Generated by autodE on: 2022-10-06. E = -455.051699 Ha
O    -2.70748   0.96039   0.75997
C    -1.96235   0.10868   0.19945
O    -2.34962  -0.93558  -0.39372
C    -0.47498   0.39192   0.26416
C     0.47495  -0.39173  -0.26441
C     1.96233  -0.10854  -0.19968
O     2.70749  -0.96068  -0.75951
O     2.34965   0.93562   0.39364
H    -0.18150   1.30829   0.78740
H     0.18143  -1.30811  -0.78764
