40
Generated by autodE on: 2022-10-07. E = -1126.940418 Ha
C    -2.20339   2.00944   2.21726
N    -1.43067   0.86527   1.78141
C    -1.97685  -0.15681   1.11829
O    -3.17708  -0.21982   0.87385
C    -1.02454  -1.29478   0.70000
C    -1.53495  -2.59771   1.30253
O     0.29911  -1.04982   1.18911
C     1.17148  -0.47757   0.16857
C     2.32369  -1.46201  -0.04481
C     1.72105   0.84155   0.71032
C     2.00033   0.96472   2.08204
C     2.51037   2.15684   2.60403
C     2.76304   3.24236   1.75953
C     2.50457   3.12139   0.39106
C     1.98735   1.93127  -0.13065
C     0.25867  -0.33226  -1.08158
C     0.97153  -0.52620  -2.44061
O     1.54722   0.47859  -2.94076
O     0.93882  -1.67154  -2.95898
C    -0.83940  -1.35448  -0.83063
C    -2.11400  -1.18004  -1.67972
O    -2.87678  -2.18021  -1.75352
O    -2.29970  -0.06950  -2.24048
H    -2.53987   2.62127   1.36387
H    -1.57990   2.63193   2.87108
H    -3.09647   1.68910   2.77507
H    -0.42889   0.84208   1.94068
H    -1.60833  -2.52126   2.39835
H    -2.52540  -2.83185   0.89210
H    -0.84213  -3.41231   1.04640
H     1.95519  -2.41025  -0.46036
H     3.06351  -1.03679  -0.73875
H     2.82511  -1.66090   0.91417
H     1.80394   0.12331   2.74858
H     2.71127   2.23636   3.67535
H     3.15983   4.17582   2.16597
H     2.70177   3.96235  -0.27878
H     1.79466   1.83414  -1.20062
H    -0.18800   0.67014  -1.08317
H    -0.44866  -2.35598  -1.05713
