30
Generated by autodE on: 2022-10-07. E = -671.782269 Ha
C    -3.46772   2.15252   0.40633
N    -2.44671   1.13943   0.26504
C    -2.76627  -0.15206  -0.04658
O    -3.95644  -0.47710  -0.26858
C    -1.68662  -1.11914  -0.09856
C    -1.90309  -2.51899  -0.55810
O    -0.47144  -0.56771   0.01633
C     0.73138  -1.05624   0.16973
C     0.92111  -2.47664   0.57164
C     1.78826  -0.07179   0.04276
C     3.14293  -0.40218   0.28800
C     4.14638   0.55764   0.16592
C     3.83604   1.87091  -0.20283
C     2.50119   2.21230  -0.45965
C     1.49344   1.26014  -0.35028
H    -2.98459   3.12410   0.57205
H    -4.08908   2.22302  -0.50028
H    -4.14489   1.95177   1.25581
H    -1.50194   1.35042   0.56158
H    -2.95885  -2.60792  -0.84517
H    -1.69468  -3.30058   0.18990
H    -1.28384  -2.73878  -1.44604
H     0.74829  -3.19343  -0.24606
H     0.21184  -2.71919   1.37995
H     1.93656  -2.64020   0.94802
H     3.41661  -1.41657   0.57831
H     5.18341   0.27535   0.36259
H     4.62566   2.61952  -0.29799
H     2.24594   3.23160  -0.75958
H     0.46391   1.53564  -0.57876
