10
Generated by autodE on: 2022-10-07. E = -455.051684 Ha
O    -2.34443   1.01887   0.07663
C    -1.96315  -0.16443  -0.13903
O    -2.71279  -1.14911  -0.38986
C    -0.47685  -0.45926  -0.10395
C     0.47684   0.45926   0.10396
C     1.96314   0.16443   0.13903
O     2.34444  -1.01887  -0.07659
O     2.71279   1.14911   0.38982
H    -0.18730  -1.50228  -0.27117
H     0.18731   1.50228   0.27117
