40
Generated by autodE on: 2022-10-07. E = -1126.824040 Ha. Imaginary frequency = -228.7 cm-1
C    -3.58661   1.10184   1.89017
N    -2.76391  -0.08984   1.80571
C    -1.48425  -0.00185   1.32294
O    -0.92424   1.10217   1.21418
C    -0.87961  -1.27439   0.93319
C    -1.58401  -2.58388   1.12420
O     0.42938  -1.42429   0.72851
C     1.45561  -0.73208   0.27720
C     2.58423  -1.62019  -0.15330
C     1.82218   0.61155   0.75683
C     1.64984   0.96105   2.10959
C     2.12673   2.17998   2.59186
C     2.77510   3.07422   1.73275
C     2.95564   2.73197   0.38757
C     2.49539   1.50626  -0.09564
C     0.01125  -0.27001  -1.87705
C     1.11082  -0.96449  -2.63477
O     1.02115  -2.21095  -2.82379
O     2.05811  -0.23739  -3.06390
C    -1.16639  -0.88328  -1.55099
C    -2.48704  -0.18301  -1.36205
O    -3.50318  -0.92604  -1.21777
O    -2.50772   1.08069  -1.37471
H    -4.53603   0.84689   2.37908
H    -3.79937   1.52725   0.89470
H    -3.08242   1.87357   2.48877
H    -3.25890  -0.96049   1.65154
H    -0.96149  -3.39371   0.72068
H    -2.54262  -2.59105   0.58137
H    -1.79474  -2.80609   2.18631
H     2.20406  -2.54221  -0.60869
H     3.21347  -1.10083  -0.88790
H     3.22466  -1.87303   0.71194
H     1.15257   0.26244   2.78406
H     1.98905   2.43491   3.64566
H     3.14071   4.03206   2.11059
H     3.45791   3.42568  -0.29126
H     2.62250   1.24247  -1.14712
H     0.06673   0.82075  -1.82768
H    -1.22972  -1.96635  -1.68535
