50
Generated by autodE on: 2022-06-01. E = -1146.471308 Ha
C     0.85938  -3.27358  -2.87311
C     0.21310  -1.93875  -2.65273
O     0.11634  -1.12265  -3.54867
C    -0.40514  -1.61936  -1.24336
C    -1.91450  -1.90030  -1.54055
C    -2.70870  -0.85811  -2.27884
O    -2.39293  -2.97180  -1.22261
C     0.13537  -2.58455  -0.15591
C    -0.46433  -2.54767   1.26100
C    -0.11079  -1.34667   2.16218
C    -1.21400  -0.29706   2.32908
C    -1.80649   0.21967   1.00104
C    -2.86875   1.30003   1.21210
C    -0.72629   0.61306   0.03819
C    -0.15863  -0.17162  -0.89650
N     0.93917   0.57630  -1.48635
C     2.17896   0.08143  -1.47011
N     3.24949  -0.38033  -1.54287
N     0.76656   1.94358  -1.08431
N    -0.08256   1.89639   0.07661
C     0.60124   2.25283   1.30054
C     0.04740   3.24993   2.10730
C     0.66415   3.60033   3.31235
C     1.84867   2.96938   3.70167
C     2.41834   1.99066   2.87900
C     1.79651   1.62797   1.68297
H     0.15953  -4.08571  -2.62408
H     1.73783  -3.38595  -2.21994
H     1.16472  -3.35048  -3.92403
H    -2.08130  -0.28364  -2.97094
H    -3.53589  -1.34931  -2.80888
H    -3.13735  -0.14936  -1.55296
H    -0.00207  -3.60577  -0.53048
H     1.22208  -2.41702  -0.08559
H    -0.08768  -3.46108   1.74762
H    -1.55687  -2.67961   1.21103
H     0.14067  -1.71828   3.16857
H     0.80649  -0.86746   1.78719
H    -0.82941   0.54813   2.92175
H    -2.04950  -0.72946   2.90581
H    -2.31373  -0.64173   0.54471
H    -3.28646   1.64112   0.25214
H    -2.46055   2.17453   1.73743
H    -3.69349   0.89804   1.82045
H     0.18587   2.34722  -1.82417
H    -0.86742   3.74793   1.78356
H     0.22109   4.37508   3.94227
H     2.33382   3.24450   4.64101
H     3.34916   1.50047   3.17350
H     2.24358   0.85879   1.05178
