17
Generated by autodE on: 2022-07-27. E = -489.491245 Ha
N    -2.82048  -1.90097  -2.46194
C    -1.86196  -2.10370  -1.81822
N    -0.79302  -2.49477  -1.14203
N    -0.17054  -1.55983  -0.46382
N    -0.50844  -0.34574  -0.38030
C     0.31174   0.52285   0.34988
C    -0.27428   1.75427   0.69631
C     0.44954   2.69319   1.42834
C     1.76761   2.42066   1.80897
C     2.36071   1.20437   1.44711
C     1.64641   0.25675   0.71763
H     0.66041  -1.92803   0.02943
H    -1.30314   1.94863   0.38880
H    -0.01575   3.64321   1.69964
H     2.33826   3.15833   2.37717
H     3.39620   0.99678   1.72529
H     2.14576  -0.66791   0.42022
