17
Generated by autodE on: 2022-06-01. E = -489.488420 Ha
N     4.44569   0.59464  -0.08972
C     3.29202   0.38384  -0.05795
N     1.97678   0.27928  -0.03974
N     1.51329  -0.94745   0.12814
N     0.31419  -1.33665   0.18264
C    -0.78585  -0.49010   0.06925
C    -2.01794  -1.18094   0.15636
C    -3.22477  -0.49947   0.06320
C    -3.22846   0.88960  -0.11847
C    -2.01762   1.58324  -0.20491
C    -0.79728   0.91337  -0.11386
H     2.19698  -1.71487   0.23110
H    -1.99234  -2.26259   0.29819
H    -4.16633  -1.04829   0.13179
H    -4.17485   1.42995  -0.19238
H    -2.01934   2.66632  -0.34645
H     0.13351   1.46568  -0.18281
