50
Generated by autodE on: 2022-06-01. E = -1146.387239 Ha. Imaginary frequency = -391.6 cm-1
C     2.15371  -1.99709  -0.60896
C     0.91677  -2.50894  -1.29467
O     0.96429  -3.30181  -2.21470
C    -0.45730  -2.02416  -0.74521
C    -1.53901  -2.38351  -1.80482
C    -1.94729  -1.36685  -2.82693
O    -2.01393  -3.50343  -1.80064
C    -0.72112  -2.88334   0.53365
C    -2.08110  -2.63873   1.22109
C    -2.08248  -1.81711   2.51996
C    -2.12074  -0.28818   2.41524
C    -0.83400   0.46062   2.00192
C     0.36863   0.11272   2.89410
C    -0.50039   0.24094   0.57361
C    -0.40570  -0.60221  -0.35448
N     0.20686   0.66804  -1.96861
C     0.95427   0.15521  -2.93305
N     1.51269  -0.35084  -3.83031
N     0.78495   1.61790  -1.23208
N     0.01515   2.03358  -0.25723
C     0.65408   2.85377   0.70776
C    -0.16127   3.80059   1.34629
C     0.37023   4.64164   2.32542
C     1.72050   4.54513   2.67235
C     2.53532   3.59578   2.04340
C     2.00828   2.74430   1.07355
H     2.39546  -0.99384  -0.99424
H     2.01108  -1.89671   0.47541
H     2.99486  -2.66588  -0.83352
H    -1.11942  -1.23791  -3.54321
H    -2.13810  -0.38695  -2.37098
H    -2.82982  -1.73112  -3.36835
H    -0.65538  -3.93238   0.21516
H     0.09820  -2.70849   1.24460
H    -2.79894  -2.19585   0.51124
H    -2.49135  -3.63032   1.46772
H    -1.23808  -2.13396   3.15550
H    -2.98996  -2.10545   3.07616
H    -2.39681   0.10713   3.40763
H    -2.93253   0.00693   1.72890
H    -1.04978   1.53060   2.14734
H     0.67887  -0.93363   2.75683
H     1.22954   0.75448   2.66153
H     0.10631   0.25984   3.95380
H     1.80260   1.53411  -1.07727
H    -1.21035   3.86953   1.05441
H    -0.27255   5.37623   2.81525
H     2.13870   5.20245   3.43785
H     3.58683   3.50480   2.32426
H     2.65347   1.98059   0.63476
