23
Generated by autodE on: 2022-06-16. E = -530.334889 Ha
C     3.74711  -0.22566   0.31587
N     2.36394   0.17177   0.48541
C     1.40597  -0.27769  -0.34767
O     1.60577  -1.07668  -1.26691
N     0.12335   0.23357  -0.13298
N    -0.14230   1.07254   0.91179
N    -1.34664   1.37363   0.97854
C    -2.09810   0.75637  -0.14995
C    -3.47247   0.28295   0.28206
C    -1.12187  -0.29826  -0.71990
C    -1.37574  -1.74205  -0.30015
H     4.33800   0.20737   1.13215
H     4.16073   0.12849  -0.64272
H     3.85468  -1.32093   0.34795
H     2.10984   0.84615   1.19928
H    -2.21765   1.57098  -0.88454
H    -4.05435   1.13197   0.67041
H    -3.41172  -0.48132   1.07012
H    -4.01786  -0.14106  -0.57396
H    -1.06706  -0.22568  -1.81311
H    -2.33029  -2.09602  -0.71610
H    -1.41483  -1.83879   0.79530
H    -0.57513  -2.39044  -0.68099
