12
Generated by autodE on: 2022-06-16. E = -157.299004 Ha
C     1.59551  -0.52141   0.07992
C     0.66085   0.63263  -0.12774
C    -0.68139   0.61425  -0.10802
C    -1.57762  -0.56507   0.12545
H     1.07288  -1.47191   0.25898
H     2.26453  -0.33421   0.93853
H     2.25381  -0.65514  -0.79666
H     1.14746   1.59822  -0.31572
H    -1.19942   1.56598  -0.28214
H    -2.23382  -0.39201   0.99673
H    -2.24979  -0.72330  -0.73647
H    -1.02405  -1.49898   0.29890
