11
Generated by autodE on: 2022-06-16. E = -372.989607 Ha
C    -2.80460   0.31752  -0.22184
N    -1.56520  -0.41603  -0.38934
C    -0.39289   0.10385  -0.00240
O    -0.23750   1.20156   0.52048
N     0.68702  -0.79637  -0.27664
N     1.80835  -0.40398   0.04905
N     2.87311  -0.13049   0.31241
H    -3.63252  -0.30679  -0.57789
H    -2.79568   1.25644  -0.79791
H    -2.97866   0.56702   0.83644
H    -1.57346  -1.33535  -0.81876
