23
Generated by autodE on: 2022-06-16. E = -530.260722 Ha. Imaginary frequency = -366.2 cm-1
C     3.59751  -1.07533  -0.28759
N     2.21277  -0.71837  -0.51739
C     1.66319   0.36798   0.06509
O     2.29322   1.16651   0.76053
N     0.29154   0.46784  -0.22620
N    -0.38360   1.44105   0.22331
N    -1.52461   1.70485   0.27808
C    -2.50965   0.00852  -0.47194
C    -3.45723  -0.18195   0.68391
C    -1.48123  -0.88718  -0.75541
C    -1.15426  -2.06630   0.10896
H     3.78982  -1.30879   0.77283
H     3.83820  -1.95974  -0.88991
H     4.27174  -0.25607  -0.58145
H     1.60910  -1.34892  -1.03442
H    -2.88886   0.58919  -1.31831
H    -4.02937   0.73665   0.87977
H    -2.92917  -0.45719   1.60910
H    -4.18098  -0.98696   0.46508
H    -1.09271  -0.90326  -1.77545
H    -1.18469  -1.81751   1.17975
H    -1.90150  -2.86396  -0.05891
H    -0.16660  -2.48584  -0.12598
