34
Generated by autodE on: 2022-10-21. E = -986.030688 Ha
C    -3.99106  -1.02596   1.71986
N    -2.72558  -0.31460   1.69020
C    -2.36168   0.43350   0.64313
O    -3.05793   0.57800  -0.36545
C    -0.99893   1.18806   0.74925
C    -1.14074   2.34871   1.73911
N    -0.59405   1.65479  -0.57755
C     0.30529   0.66460  -1.17224
C     1.34437   1.35947  -1.97285
N     2.14211   1.94138  -2.57901
C    -0.39449  -0.30104  -2.06534
N    -0.98668  -1.04039  -2.73401
C     0.89838  -0.06357   0.04142
C     2.09838  -0.89350  -0.10917
O     2.88775  -1.20503   0.76272
O     2.25614  -1.24511  -1.39685
C     3.44479  -1.97096  -1.73694
C     0.11686   0.23019   1.11817
O     0.10103  -0.18094   2.36761
C     0.79032  -1.36570   2.80426
H    -4.06510  -1.73698   0.88226
H    -4.06272  -1.57965   2.66352
H    -4.83962  -0.32766   1.65098
H    -2.08291  -0.40532   2.47148
H    -1.94203   3.02137   1.39979
H    -1.39343   1.98145   2.74283
H    -0.19788   2.91150   1.78696
H    -1.42158   1.80121  -1.15819
H     3.39300  -2.14172  -2.81820
H     4.33794  -1.38099  -1.48561
H     3.47475  -2.92993  -1.20054
H     0.37802  -1.59297   3.79404
H     0.58513  -2.19008   2.10688
H     1.86800  -1.18029   2.86192
