52
Generated by autodE on: 2022-06-06. E = -3725.158123 Ha
C    -2.96887   2.78878   1.66514
N    -2.28851   1.84241   0.80821
C    -2.84913   0.68578   0.42924
O    -4.03045   0.40102   0.65446
C    -1.90676  -0.31758  -0.30111
C    -2.75566  -0.99605  -1.38709
N    -0.72859   0.39372  -0.81784
C    -0.93808   1.22517  -1.99456
C     0.50930  -0.39189  -0.74217
C     0.63959  -1.12355  -2.12681
C     1.49355  -0.51339  -3.21186
O    -0.02727  -2.11098  -2.37780
C     1.73356   0.49135  -0.49095
C     1.61332   1.82578  -0.08551
C     2.74542   2.59026   0.21421
C     4.02084   2.02957   0.11802
C     4.15360   0.69633  -0.28396
C     3.02141  -0.06147  -0.58682
C     0.27330  -1.38131   0.47615
C     0.88834  -2.76366   0.26942
C     0.80039  -0.75341   1.83523
C     0.58740  -1.76831   2.94640
C    -0.72733  -1.75613   3.18786
C    -1.29465  -0.72008   2.22984
O    -0.21770   0.21677   2.12919
C    -1.28257  -1.30078   0.76514
Br   -2.20693  -3.04897   0.80217
H    -2.44669   3.75378   1.62929
H    -4.00409   2.93051   1.32485
H    -2.99775   2.44302   2.71364
H    -1.27936   1.88911   0.69587
H    -2.18996  -1.78054  -1.89735
H    -3.07619  -0.24613  -2.12380
H    -3.65674  -1.42757  -0.94175
H    -1.13094   0.65834  -2.92380
H    -0.06015   1.86319  -2.16165
H    -1.79814   1.88736  -1.82578
H     1.03664  -0.74759  -4.18343
H     2.48917  -0.98553  -3.18128
H     1.64094   0.56675  -3.10029
H     0.62583   2.27508   0.00482
H     2.62512   3.63021   0.52717
H     4.90574   2.62538   0.35380
H     5.14423   0.24216  -0.36215
H     3.14885  -1.10142  -0.89190
H     0.76779  -3.37721   1.16970
H     1.96615  -2.66185   0.07152
H     0.43089  -3.29460  -0.56790
H     1.78745  -0.29187   1.77936
H     1.35744  -2.40888   3.37464
H    -1.31148  -2.37758   3.86425
H    -2.23227  -0.24343   2.52797
