16
Generated by autodE on: 2022-06-06. E = -2920.439890 Ha
C     2.12210  -1.43307  -0.29099
C     0.71519  -1.03286  -0.52984
C     0.01502   0.06255  -0.21142
Br    0.56408   1.59785   0.72278
C    -1.45624  -0.22461  -0.59162
C    -1.96573  -1.31452   0.38263
C    -1.28268  -2.41321   0.04781
C    -0.37268  -1.97260  -1.12227
O    -1.23422  -1.01428  -1.77176
H     2.61625  -1.73299  -1.23047
H     2.15801  -2.31059   0.37925
H     2.70163  -0.62051   0.17025
H    -2.10202   0.64017  -0.77764
H    -2.68210  -1.15284   1.18729
H    -1.28525  -3.40306   0.50292
H    -0.01887  -2.74755  -1.81160
