36
Generated by autodE on: 2022-06-06. E = -804.657180 Ha
C     3.36972   0.21364  -2.11102
N     2.80118   0.42627  -0.79300
C     2.17969  -0.55747  -0.14525
O     2.11685  -1.74177  -0.49461
C     1.60471  -0.24618   1.22244
C     2.46948  -0.52125   2.40174
N     0.34650   0.05775   1.32487
C    -0.32368   0.06091   2.63371
C    -0.38097   0.59783   0.20575
C     0.11284   1.80733  -0.31146
C    -0.59676   2.48114  -1.47023
O     1.17046   2.37740   0.12350
C    -1.60335  -0.13964  -0.13966
C    -1.59012  -1.55236  -0.07477
C    -2.72840  -2.30266  -0.37041
C    -3.91612  -1.66731  -0.74922
C    -3.95027  -0.27017  -0.81188
C    -2.81769   0.48436  -0.49956
H     3.99472   1.07578  -2.37579
H     2.58657   0.09519  -2.87881
H     3.99173  -0.69224  -2.11401
H     2.49890   1.37302  -0.50643
H     2.20305  -1.49847   2.84090
H     3.52432  -0.55341   2.10211
H     2.33150   0.24402   3.17995
H    -0.03947  -0.82179   3.21960
H    -1.40536   0.06030   2.46653
H    -0.04344   0.97488   3.17908
H    -1.19697   1.79364  -2.07955
H     0.17006   2.95315  -2.10266
H    -1.25891   3.28298  -1.10294
H    -0.66127  -2.06326   0.18884
H    -2.68404  -3.39346  -0.31515
H    -4.80695  -2.25374  -0.98593
H    -4.87584   0.24188  -1.08764
H    -2.88511   1.57219  -0.50909
