67
Generated by autodE on: 2022-06-10. E = -1555.901375 Ha
C     3.45441 -12.53205   0.99294
N     3.00657 -11.15475   1.00650
C     1.74490 -10.83229   0.69922
O     0.90387 -11.71468   0.46444
C     1.35945  -9.31502   0.80117
C     0.10592  -8.90422  -0.01657
O    -0.11407  -7.70305  -0.22454
N    -0.76327  -9.85747  -0.36517
C    -1.93190  -9.55562  -1.16180
C     0.88471  -9.15976   2.28602
C     0.53036  -7.74054   2.76691
C     1.50358  -7.17474   3.79760
C     2.86898  -6.74583   3.26920
C     3.78002  -7.82017   2.64268
F     5.09765  -7.33332   2.82657
C     3.81577  -9.06550   3.44518
N     3.91375  -9.99625   4.12872
C     3.59700  -8.02551   1.13204
C     2.58067  -8.49945   0.38279
C     2.95915  -8.36380  -1.12566
C     2.34153  -7.09445  -1.75853
C     2.59623  -9.61664  -1.94295
C     3.46333 -10.72111  -1.95500
C     3.12498 -11.89476  -2.62921
C     1.90738 -11.98855  -3.31273
C     1.05003 -10.88738  -3.33495
C     1.39758  -9.71009  -2.66468
N     4.41995  -8.23569  -1.03409
C     5.14236  -7.82339  -2.21672
C     4.81548  -7.68877   0.26575
C     5.17807  -6.19404   0.23132
C     5.97537  -8.61636   0.74806
C     7.38738  -8.12330   0.70076
O     5.70388  -9.75259   1.11161
H     3.31441 -12.98909   0.00006
H     4.52147 -12.55021   1.24730
H     2.90080 -13.13555   1.72877
H     3.72987 -10.43730   1.05496
H    -0.45067 -10.82074  -0.21131
H    -2.53606 -10.46550  -1.26770
H    -1.65407  -9.19793  -2.16847
H    -2.54521  -8.77585  -0.68536
H     1.63364  -9.61163   2.94539
H     0.00805  -9.81547   2.37587
H     0.45250  -7.05522   1.91227
H    -0.47074  -7.77084   3.22269
H     1.63853  -7.89888   4.61932
H     1.05717  -6.27711   4.25375
H     3.45494  -6.34087   4.10779
H     2.76504  -5.95032   2.51641
H     2.70535  -6.98349  -2.79004
H     2.64233  -6.20915  -1.18288
H     1.25111  -7.12078  -1.77480
H     4.40742 -10.64981  -1.41610
H     3.81471 -12.74219  -2.61951
H     1.63704 -12.90993  -3.83416
H     0.10138 -10.93800  -3.87483
H     0.71173  -8.86559  -2.70458
H     6.21928  -8.00622  -2.08493
H     5.01172  -6.76150  -2.49830
H     4.81509  -8.43787  -3.06888
H     5.99844  -6.00676  -0.47439
H     4.30960  -5.60775  -0.09705
H     5.48724  -5.82806   1.21592
H     8.07772  -8.93092   0.97611
H     7.62651  -7.74280  -0.30425
H     7.50529  -7.27751   1.39583
