32
Generated by autodE on: 2022-07-27. E = -635.865934 Ha
C     3.59574   1.74016   2.21505
C     2.69484   0.65522   1.63400
O     2.96598  -0.55126   1.91155
C     1.60547   1.09076   0.84911
C     1.29413   2.54569   0.61184
N     0.75035   0.13746   0.23615
C     1.40002  -0.91771  -0.56523
C    -0.56738   0.23792   0.30635
C    -1.18669   1.08477   1.36447
C    -1.44749  -0.46092  -0.65146
C    -2.55747  -1.19655  -0.19337
C    -3.40306  -1.83909  -1.09773
C    -3.17047  -1.73860  -2.47350
C    -2.08284  -0.99312  -2.94003
C    -1.22507  -0.36228  -2.03905
H     4.09742   2.31912   1.42176
H     3.03191   2.46068   2.82933
H     4.36129   1.26147   2.84124
H     0.65440   2.66218  -0.27676
H     2.21837   3.11175   0.41610
H     0.78149   3.06037   1.44620
H     2.27566  -1.24754   0.00091
H     1.71246  -0.51235  -1.53667
H     0.71964  -1.76307  -0.71190
H    -1.35577   2.11763   1.01652
H    -0.53138   1.13430   2.24718
H    -2.16877   0.67786   1.64059
H    -2.74540  -1.28501   0.87830
H    -4.24953  -2.42076  -0.72572
H    -3.83861  -2.23566  -3.18052
H    -1.90296  -0.89778  -4.01329
H    -0.38816   0.22922  -2.41309
