35
Generated by autodE on: 2022-06-10. E = -919.941572 Ha
C     1.35656  -4.61160   0.56566
N     1.42255  -3.21110   0.19656
C     0.39181  -2.38222   0.39363
O    -0.67734  -2.72847   0.90248
C     0.63031  -0.89810   0.01112
C     1.40767  -0.77957  -1.32275
O     2.56039  -1.22443  -1.39851
N     0.78785  -0.19974  -2.35383
C     1.43588  -0.04618  -3.64379
C    -0.62527  -0.16092   0.00586
C    -1.42106   0.73949   0.15336
C    -1.86254   2.04038   0.65352
F    -2.62852   1.86386   1.80996
C    -2.71676   2.76620  -0.31203
N    -3.37346   3.35445  -1.06400
C    -0.60467   2.86675   1.00484
C     0.43959   2.11829   1.85457
C     1.54921   1.31336   1.12142
C     1.48270  -0.22602   1.15031
H     2.31892  -5.08437   0.33532
H     1.15203  -4.72770   1.64146
H     0.56156  -5.13600   0.01159
H     2.24278  -2.83390  -0.27732
H    -0.14888   0.16985  -2.22477
H     1.76109  -1.02152  -4.03636
H     2.32090   0.60498  -3.56937
H     0.72248   0.40172  -4.34547
H    -0.97311   3.75504   1.54125
H    -0.15844   3.21589   0.06069
H     0.94113   2.89604   2.44937
H    -0.07780   1.47800   2.58765
H     1.64454   1.66456   0.07997
H     2.50395   1.57332   1.60309
H     2.49597  -0.64095   1.06051
H     1.07079  -0.56531   2.11301
