67
Generated by autodE on: 2022-06-10. E = -1555.802725 Ha. Imaginary frequency = -292.1 cm-1
C     4.11969 -12.46203   0.94477
N     3.45127 -11.17926   1.04283
C     2.12815 -11.07465   0.87723
O     1.40921 -12.07831   0.73631
C     1.51964  -9.65208   0.99855
C     0.29867  -9.38419   0.08393
O    -0.00196  -8.21847  -0.20784
N    -0.43682 -10.43444  -0.28977
C    -1.57632 -10.29654  -1.17326
C     1.02053  -9.59469   2.48997
C     0.47147  -8.24319   2.97730
C     1.39556  -7.42197   3.88962
C     2.44080  -6.50849   3.24659
C     3.67894  -7.14712   2.58888
F     4.58086  -6.08110   2.38693
C     4.35724  -8.08440   3.51404
N     4.86422  -8.82349   4.24988
C     3.37495  -7.84434   1.32424
C     2.55976  -8.61948   0.77781
C     3.16480  -8.23042  -1.44608
C     2.62131  -6.82260  -1.39854
C     2.41014  -9.16188  -2.33507
C     2.43588 -10.56189  -2.17504
C     1.63213 -11.39799  -2.94767
C     0.78646 -10.86180  -3.92105
C     0.75534  -9.47701  -4.10868
C     1.54656  -8.63996  -3.32257
N     4.48392  -8.44533  -1.16982
C     5.18495  -9.63388  -1.69887
C     5.15759  -7.64659  -0.23589
C     5.48573  -6.21016  -0.58741
C     6.03019  -8.35332   0.69919
C     7.12193  -7.57307   1.39151
O     5.87974  -9.55884   0.97334
H     3.99975 -12.90194  -0.05953
H     5.18787 -12.31123   1.14197
H     3.71652 -13.17621   1.67852
H     4.04749 -10.34654   1.05188
H    -0.06627 -11.35342  -0.03506
H    -2.46821  -9.93128  -0.63658
H    -1.80913 -11.27573  -1.61040
H    -1.35475  -9.58888  -1.98481
H     1.86960  -9.90014   3.12078
H     0.25517 -10.37792   2.59060
H     0.14692  -7.62976   2.12349
H    -0.44015  -8.45550   3.55671
H     1.88458  -8.08983   4.61985
H     0.75802  -6.75012   4.48589
H     2.84360  -5.83848   4.02205
H     1.98011  -5.87969   2.46929
H     2.89680  -6.29382  -2.32747
H     3.00750  -6.25394  -0.55212
H     1.53105  -6.85300  -1.32127
H     3.06711 -11.01359  -1.41877
H     1.66113 -12.47541  -2.77224
H     0.15286 -11.51539  -4.52473
H     0.10231  -9.04035  -4.86765
H     1.49062  -7.56549  -3.48934
H     4.98280 -10.55051  -1.13994
H     6.26079  -9.43649  -1.66853
H     4.89138  -9.77183  -2.74609
H     6.54802  -6.13664  -0.88012
H     4.90535  -5.85684  -1.44433
H     5.32467  -5.51974   0.25008
H     7.55944  -8.19454   2.18346
H     7.90549  -7.31102   0.66037
H     6.75171  -6.63372   1.82045
