28
Generated by autodE on: 2022-06-11. E = -741.039552 Ha
C     0.12504  -3.79447  -0.29419
N     0.53581  -2.40958  -0.35851
C    -0.25264  -1.41836   0.11453
O    -1.40442  -1.65415   0.53716
C     0.32506  -0.06258   0.12862
C     1.66748   0.24414  -0.27895
O     2.51664  -0.57232  -0.65545
O     1.93942   1.57247  -0.26535
C     3.27200   1.96003  -0.60646
N    -0.46199   0.94326   0.70952
C     0.05188   1.71643   1.85619
C    -1.73394   1.07935   0.38735
C    -2.70419   1.85708   1.21181
C    -2.18738   0.51704  -0.84451
N    -2.61857   0.16667  -1.86723
H     0.82004  -4.40051  -0.88979
H    -0.88935  -3.91898  -0.70156
H     0.12024  -4.18609   0.73847
H     1.49843  -2.15915  -0.58294
H     4.00262   1.50915   0.08176
H     3.30028   3.05287  -0.51778
H     3.51602   1.66154  -1.63679
H    -0.51700   1.42994   2.75218
H    -0.06994   2.79184   1.67499
H     1.10455   1.47269   2.00530
H    -2.40362   2.91642   1.26174
H    -3.70915   1.79542   0.77907
H    -2.73015   1.46857   2.24272
