30
Generated by autodE on: 2022-06-22. E = -742.268235 Ha
C    -2.14613   1.68568  -3.07442
N    -1.94200   0.90455  -1.87451
C    -0.71039   0.79960  -1.31557
O     0.25866   1.41518  -1.79895
C    -0.62503  -0.07299  -0.12415
C    -1.91117  -0.46207   0.54281
O    -2.80942  -1.05145  -0.08481
N    -2.09667  -0.06925   1.81827
C    -1.21126   0.71636   2.65776
N     0.55953  -0.50979   0.37637
C     0.52140  -1.66189   1.31145
C     1.76713  -0.00482   0.05433
C     3.05777  -0.52466   0.44631
C     4.21978   0.27885  -0.10463
O     3.26996  -1.51844   1.15792
H    -3.22164   1.73532  -3.28667
H    -1.63525   1.24809  -3.94994
H    -1.76342   2.70893  -2.94361
H    -2.65220   0.23899  -1.57820
H    -2.97218  -0.38693   2.23045
H    -0.61478   0.08656   3.33726
H    -1.81318   1.40318   3.26904
H    -0.53029   1.31652   2.04176
H    -0.50123  -2.02557   1.41864
H     0.93343  -1.36298   2.28062
H     1.14714  -2.45776   0.89803
H     1.73866   0.86841  -0.58690
H     4.12362   1.34300   0.16397
H     4.23221   0.22369  -1.20581
H     5.16377  -0.11895   0.29048
