30
Generated by autodE on: 2022-07-27. E = -742.270410 Ha
C    -2.56252  -3.42315  -0.71040
N    -1.49750  -2.44305  -0.72216
C    -1.58257  -1.30485   0.00073
O    -2.57493  -1.04442   0.69695
C    -0.37417  -0.43849  -0.06742
C     0.93847  -1.12551  -0.34585
O     1.15824  -1.63835  -1.45230
N     1.79458  -1.20648   0.68216
C     3.11795  -1.78516   0.53441
N    -0.41026   0.88730   0.10266
C    -1.72081   1.55368   0.32194
C     0.70633   1.67007   0.02118
C     0.83404   3.07675   0.26129
C     2.23787   3.62009   0.05959
O    -0.05911   3.87560   0.61235
H    -2.23078  -4.31403  -1.25764
H    -3.47959  -3.03708  -1.18634
H    -2.81668  -3.71193   0.32089
H    -0.70604  -2.55772  -1.35069
H     1.56881  -0.71057   1.54021
H     3.56663  -1.90315   1.52802
H     3.77175  -1.14346  -0.07925
H     3.05076  -2.76998   0.05085
H    -2.05195   1.35727   1.34708
H    -2.45237   1.13883  -0.37607
H    -1.58405   2.62375   0.17275
H     1.61668   1.14484  -0.25055
H     2.97961   2.85256  -0.19842
H     2.55411   4.13721   0.97985
H     2.21070   4.37755  -0.74127
