34
Generated by autodE on: 2022-10-07. E = -674.978329 Ha
C    -2.09969  -2.31792   0.40628
C    -2.44725  -0.93313   0.80021
C    -3.71546  -0.64920   1.53032
N    -1.63695   0.07993   0.53702
C    -0.34210   0.12656   0.03608
C    -0.02444   1.32219  -0.72305
C     1.30374   1.81429  -0.86176
C     1.57568   2.99625  -1.54325
C     0.54398   3.75653  -2.11547
C    -0.77028   3.29591  -1.99245
C    -1.05119   2.10196  -1.32570
C     0.62908  -0.88993   0.42318
C     1.68566  -1.27553  -0.44194
C     2.63843  -2.21620  -0.05697
C     2.57808  -2.82338   1.20493
C     1.54067  -2.46472   2.07279
C     0.58667  -1.51979   1.69382
H    -1.46245  -2.82248   1.15846
H    -1.52480  -2.32183  -0.53425
H    -3.01608  -2.91454   0.29011
H    -3.92023   0.43150   1.58611
H    -3.66774  -1.03509   2.56596
H    -4.56531  -1.15569   1.04435
H    -2.05848   0.99909   0.70270
H     2.12876   1.26837  -0.40305
H     2.61101   3.34062  -1.61816
H     0.76421   4.68384  -2.64904
H    -1.59217   3.86170  -2.44011
H    -2.08489   1.75043  -1.29875
H     1.74166  -0.83921  -1.44078
H     3.43259  -2.49032  -0.75695
H     3.32298  -3.56462   1.50305
H     1.47589  -2.92018   3.06478
H    -0.19531  -1.24211   2.40372
