10
Generated by autodE on: 2022-10-07. E = -455.051692 Ha
O    -1.99988   1.54821  -0.40324
C    -1.94152   0.30357  -0.20367
O    -2.92669  -0.48472  -0.15314
C    -0.58127  -0.33324  -0.00102
C     0.58127   0.33325   0.00106
C     1.94154  -0.30357   0.20366
O     1.99985  -1.54819   0.40336
O     2.92672   0.48469   0.15299
H    -0.57540  -1.41719   0.15642
H     0.57531   1.41721  -0.15638
