51
Generated by autodE on: 2022-06-06. E = -1349.171643 Ha
C    -4.37706  -3.35875  -1.28888
O    -2.99923  -3.44805  -0.88802
C    -2.14158  -3.91783  -1.78286
O    -2.45501  -4.30655  -2.88867
C    -0.68586  -3.96492  -1.28552
C    -0.40418  -3.31504   0.09657
C    -1.17821  -3.74900   1.31070
O     0.51592  -2.52172   0.19843
C     0.20785  -3.34549  -2.35460
C     1.07732  -4.25136  -2.83060
C     0.81569  -5.61014  -2.20023
C     2.02080  -6.35940  -1.63550
N    -0.18836  -5.34287  -1.16193
C    -1.15374  -6.41791  -0.99553
C     2.15320  -4.15685  -3.91412
C     3.47730  -4.34986  -3.30603
N     4.54270  -4.43587  -2.85501
C     1.85688  -5.24939  -5.00115
C     3.00591  -6.03062  -5.55358
O     0.71258  -5.37057  -5.38158
C     2.21757  -2.83900  -4.75647
C     2.89751  -1.63891  -4.09085
C     2.48013  -1.30286  -2.66012
C     1.03356  -0.86905  -2.45783
C    -0.05098  -1.89948  -2.73050
F    -0.45432  -1.84075  -4.05203
F    -1.18120  -1.48851  -2.04009
H    -4.75807  -4.35121  -1.56703
H    -4.47554  -2.67169  -2.14134
H    -4.91816  -2.97000  -0.41918
H    -1.96008  -2.99579   1.49731
H    -1.67111  -4.72031   1.19576
H    -0.50137  -3.75881   2.17683
H     0.36477  -6.24610  -2.98743
H     2.57051  -5.74099  -0.91157
H     1.66952  -7.26882  -1.12533
H     2.70837  -6.67761  -2.43120
H    -1.87141  -6.18075  -0.19916
H    -0.62667  -7.33638  -0.69898
H    -1.72251  -6.63232  -1.92051
H     3.84362  -5.36603  -5.81379
H     2.68042  -6.60407  -6.43034
H     3.37186  -6.71888  -4.77360
H     2.77969  -3.07181  -5.67340
H     1.19264  -2.62227  -5.06694
H     3.98590  -1.80736  -4.09385
H     2.72004  -0.76525  -4.73988
H     2.70196  -2.14409  -1.98409
H     3.11481  -0.47323  -2.31158
H     0.78955   0.00482  -3.08315
H     0.90062  -0.57567  -1.40894
