51
Generated by autodE on: 2022-06-06. E = -1349.072662 Ha. Imaginary frequency = -294.7 cm-1
C    -3.38477  -3.14613  -2.86228
O    -2.24415  -3.88125  -2.41277
C    -2.05238  -3.94496  -1.08451
O    -2.80864  -3.39041  -0.30042
C    -0.84323  -4.69569  -0.69028
C    -0.46889  -4.67466   0.73409
C    -0.64121  -3.40881   1.54295
O    -0.02149  -5.68336   1.28817
C     0.66007  -3.25965  -2.05196
C     1.23867  -4.08496  -2.77670
C     0.88586  -6.02531  -1.63457
C     1.98221  -5.74330  -0.66590
N    -0.41987  -5.77814  -1.45973
C    -1.33786  -6.45376  -2.39929
C     2.08358  -4.30641  -3.98115
C     3.44885  -4.65273  -3.56730
N     4.53509  -4.89882  -3.24268
C     1.46779  -5.39888  -4.91354
C     2.40466  -6.30567  -5.64492
O     0.26321  -5.42668  -5.04258
C     2.10517  -3.00197  -4.85973
C     2.94770  -1.83166  -4.34605
C     2.68467  -1.27643  -2.93836
C     1.22472  -0.89893  -2.62286
C     0.55946  -1.85166  -1.64127
F     1.15834  -1.71245  -0.40249
F    -0.74803  -1.46243  -1.45345
H    -4.31141  -3.55605  -2.43466
H    -3.39616  -3.24630  -3.95413
H    -3.29161  -2.08682  -2.58161
H    -0.80098  -2.51125   0.94083
H    -1.49798  -3.53754   2.22336
H     0.25918  -3.29024   2.16479
H     1.08154  -6.84709  -2.32958
H     1.92947  -4.74399  -0.22131
H     1.92205  -6.48089   0.15330
H     2.94780  -5.86480  -1.17307
H    -1.34555  -5.94733  -3.36973
H    -0.99441  -7.48722  -2.52525
H    -2.34728  -6.46732  -1.97594
H     3.22960  -5.73314  -6.09618
H     1.85959  -6.87134  -6.41066
H     2.85692  -7.00314  -4.91964
H     2.47988  -3.27637  -5.85831
H     1.04927  -2.72022  -4.97744
H     4.01363  -2.10543  -4.40886
H     2.80170  -1.01869  -5.07722
H     3.31237  -0.37956  -2.82738
H     3.05457  -1.98381  -2.17971
H     0.60478  -0.88193  -3.53190
H     1.15908   0.09984  -2.16479
