34
Generated by autodE on: 2022-10-21. E = -986.022641 Ha
C     3.16651  -0.98856   2.62134
N     2.16670  -1.15589   1.58510
C     2.11442  -0.41226   0.47454
O     2.91665   0.48906   0.19967
C     0.97650  -0.75865  -0.53806
C     1.26539  -2.12159  -1.17766
N     0.95513   0.28153  -1.58208
C    -0.05241   1.28509  -1.26758
C    -0.69352   1.73476  -2.52661
N    -1.15361   2.05072  -3.54165
C     0.48378   2.47510  -0.55440
N     0.93379   3.38036   0.01285
C    -1.01034   0.51671  -0.32422
O    -2.17020   0.98121   0.09247
C    -2.79380   2.15579  -0.45261
C    -0.41168  -0.63609   0.07174
C    -0.98170  -1.64734   0.96955
O    -0.32664  -2.54714   1.48534
O    -2.29129  -1.51249   1.17357
C    -2.91091  -2.45686   2.05911
H     3.77511  -1.89985   2.73292
H     3.82562  -0.15404   2.35536
H     2.68981  -0.77097   3.58975
H     1.43205  -1.85473   1.71432
H     2.24703  -2.09319  -1.67413
H     0.49443  -2.34541  -1.92875
H     1.27609  -2.92268  -0.42849
H     1.88103   0.70810  -1.65155
H    -3.62870   2.37991   0.22100
H    -3.17681   1.95145  -1.46146
H    -2.10173   3.00991  -0.46199
H    -2.45051  -2.40876   3.05630
H    -2.81586  -3.47716   1.66063
H    -3.96642  -2.16690   2.11281
