20
Generated by autodE on: 2022-10-26. E = -566.021965 Ha
C     1.76004  -2.84481   2.71025
N     1.18576  -2.38760   1.45843
C     0.77280  -1.12432   1.30364
O     0.84851  -0.26644   2.19895
C     0.19310  -0.75073  -0.02927
C     0.05404  -1.71327  -1.14964
N    -0.15857   0.50818  -0.04180
C    -0.72019   1.36862  -0.95868
C    -1.07051   1.00894  -2.27410
N    -1.38125   0.77186  -3.37633
C    -0.95117   2.69570  -0.54037
N    -1.14868   3.79893  -0.20695
H     2.66025  -2.26449   2.96573
H     1.04018  -2.73846   3.53679
H     2.03313  -3.90139   2.60830
H     1.09793  -3.04638   0.69183
H    -0.56891  -2.56662  -0.83352
H     1.04353  -2.11614  -1.42457
H    -0.39673  -1.26924  -2.04139
H     0.05024   0.93623   0.87985
