14
Generated by autodE on: 2022-10-21. E = -419.920920 Ha
C     3.66138   0.15322   0.49548
O     2.60112  -0.84711   0.44462
C     1.41076  -0.43052   0.23580
C     0.26049  -0.08260   0.04037
C    -1.07251   0.39321  -0.19084
O    -1.37117   1.56389  -0.35498
O    -1.96840  -0.60782  -0.20697
C    -3.33588  -0.23417  -0.43063
H     3.45717   0.85622   1.31451
H     3.71050   0.67870  -0.46791
H     4.58481  -0.40504   0.68250
H    -3.90919  -1.16833  -0.41268
H    -3.68721   0.44159   0.36279
H    -3.44778   0.26076  -1.40634
