34
Generated by autodE on: 2022-10-21. E = -985.929766 Ha. Imaginary frequency = -318.6 cm-1
C     2.26981  -2.59662   2.65760
N     1.93970  -2.08271   1.34068
C     1.79817  -0.77092   1.12806
O     2.00573   0.09033   1.99314
C     1.32180  -0.34397  -0.24159
C     1.30280  -1.27651  -1.40184
N     1.29503   0.97798  -0.32607
C     0.51884   1.74062  -1.18206
C     0.49727   1.50872  -2.59554
N     0.43421   1.36618  -3.74880
C     0.35204   3.11150  -0.80343
N     0.17240   4.21578  -0.48384
C    -1.36986   0.80285  -0.68241
O    -2.17284   1.67712  -1.24443
C    -3.57313   1.32399  -1.20261
C    -1.14905  -0.24997  -0.04630
C    -1.26119  -1.49057   0.65194
O    -1.32470  -2.59391   0.12376
O    -1.25552  -1.33138   1.99262
C    -1.37738  -2.52621   2.77634
H     3.29164  -2.30632   2.94807
H     1.57365  -2.20273   3.41327
H     2.20144  -3.69023   2.63725
H     1.69549  -2.73953   0.60703
H     2.34329  -1.55451  -1.64661
H     0.84296  -0.83358  -2.28947
H     0.75169  -2.19592  -1.16295
H     1.48247   1.40491   0.59473
H    -4.10715   2.13379  -1.71352
H    -3.90629   1.24310  -0.15716
H    -3.73174   0.36838  -1.72445
H    -0.58730  -3.24556   2.52186
H    -2.35935  -2.99475   2.61319
H    -1.27999  -2.21140   3.82186
