50
Generated by autodE on: 2022-06-08. E = -4041.895605 Ha
C     3.83962  -3.81161   0.98663
O     2.99743  -3.11991   0.04824
C     2.44295  -1.99244   0.46457
O     2.67366  -1.45641   1.52330
C     1.57889  -1.32833  -0.65280
C     1.26118  -2.30262  -1.71942
N     1.02432  -3.05579  -2.56721
O     2.37400  -0.31371  -1.22765
C     1.99228   0.96476  -0.68808
C     3.06430   1.41060   0.30825
C     0.57465   0.71337  -0.15152
C     0.32480  -0.61169  -0.11715
C    -0.93080  -1.40855   0.22984
C    -1.90968  -1.31457  -0.98028
C    -3.38819  -1.56285  -0.79206
O    -1.46335  -1.10045  -2.09057
C    -0.59276  -2.91575   0.46329
C    -1.54289  -3.97488  -0.00746
O     0.40958  -3.20965   1.08702
C    -1.60194  -1.04183   1.60503
C    -0.70137  -0.38291   2.66427
C    -0.88012   1.13687   2.80059
C    -0.13447   2.08330   1.85540
C    -0.26878   1.88604   0.33416
Br   -2.20589   1.70110  -0.18613
C     0.08207   3.22280  -0.38635
F     1.29938   3.67573  -0.04929
F    -0.77292   4.19950  -0.05878
F     0.05959   3.09054  -1.72044
H     4.68764  -3.17644   1.27800
H     3.25582  -4.08623   1.87660
H     4.19272  -4.70951   0.46774
H     1.96483   1.65834  -1.54067
H     4.03940   1.33996  -0.19656
H     2.92607   2.44545   0.63342
H     3.07479   0.75529   1.18594
H    -3.93108  -0.64928  -1.07825
H    -3.69413  -2.34759  -1.49899
H    -3.68109  -1.84746   0.22335
H    -2.55029  -3.81363   0.40118
H    -1.61752  -3.94493  -1.10577
H    -1.16713  -4.95521   0.31010
H    -2.02679  -1.96551   2.02435
H    -2.46565  -0.39654   1.41835
H     0.35609  -0.64706   2.51493
H    -0.98314  -0.81665   3.63529
H    -0.54951   1.42998   3.80956
H    -1.95701   1.36877   2.76318
H    -0.45211   3.10826   2.09678
H     0.94473   2.02760   2.06688
