17
Generated by autodE on: 2022-07-27. E = -513.427075 Ha
C     0.31434   2.04420   1.51009
C     0.34500   2.21389   0.06271
O    -0.08418   1.38313  -0.79986
C    -0.56482   0.08946  -0.54971
C    -1.58737  -0.29812  -1.42571
N    -2.46059  -0.61996  -2.13671
C     0.15933  -0.88747   0.21186
O    -0.23329  -2.03970   0.38529
O     1.34481  -0.43996   0.67640
C     2.11007  -1.35015   1.47225
H     1.27410   1.62416   1.86217
H    -0.47995   1.34024   1.80724
H     0.18869   3.03338   1.97437
H     0.70670   3.13791  -0.40290
H     1.54228  -1.66426   2.36038
H     3.00951  -0.80180   1.77687
H     2.39092  -2.23866   0.88809
