37
Generated by autodE on: 2022-05-29. E = -1067.110343 Ha
C     2.88476  -1.14955  -2.18967
O     1.84950  -0.52742  -1.40302
C     2.06376  -0.42377  -0.10406
O     3.05493  -0.79896   0.47712
C     0.88055   0.29296   0.59618
C     1.07048   0.05800   2.13845
C     1.84477   1.09823   2.88039
O     0.61435  -0.93598   2.65054
N     1.02918   1.70089   0.25240
C    -0.04339   2.06048  -0.36788
C    -0.24199   3.45726  -0.88543
C     0.86764   4.43996  -0.67555
O    -1.28678   3.73123  -1.45068
C    -1.02557   0.97543  -0.50861
C    -2.26302   1.07264  -1.19776
N    -3.27820   1.11588  -1.76604
C    -0.48108  -0.14543   0.07670
C    -1.03233  -1.49104   0.17723
C    -2.42813  -1.70326   0.14885
C    -2.95415  -2.99093   0.21992
C    -2.10170  -4.09600   0.31259
C    -0.71718  -3.90236   0.35139
C    -0.18661  -2.61609   0.29424
H     3.82173  -0.58387  -2.09434
H     3.03568  -2.18516  -1.85459
H     2.52427  -1.12833  -3.22359
H     2.78798   1.31491   2.35870
H     1.26334   2.03388   2.89755
H     2.03371   0.75322   3.90486
H     1.07927   4.54454   0.40011
H     0.58614   5.41059  -1.10229
H     1.79072   4.06973  -1.14827
H    -3.10961  -0.85500   0.10189
H    -4.03694  -3.13219   0.20881
H    -2.51547  -5.10563   0.36332
H    -0.04445  -4.75864   0.43201
H     0.89486  -2.50002   0.34369
