22
Generated by autodE on: 2022-05-29. E = -666.179256 Ha
C    -3.16605   1.83852  -0.49643
O    -1.89213   1.20817  -0.31442
C    -1.90431  -0.11816  -0.09148
O    -2.92970  -0.77656  -0.04355
C    -0.55137  -0.65004   0.08268
N     0.46947   0.18918   0.00188
C     1.47515   0.78431  -0.03721
C     2.72167   1.51701  -0.11350
C     3.94176   0.68378   0.14511
O     2.71316   2.71254  -0.35909
C    -0.17117  -2.04848   0.34505
C    -1.25252  -3.08725   0.45738
O     1.01901  -2.34127   0.46612
H    -3.79236   1.71245   0.39884
H    -3.68724   1.41544  -1.36763
H    -2.95502   2.90135  -0.66259
H     3.71684  -0.39178   0.13911
H     4.34179   0.96151   1.13491
H     4.70342   0.92462  -0.61173
H    -1.84303  -3.13268  -0.46982
H    -0.78436  -4.06014   0.65584
H    -1.95343  -2.83109   1.26574
