15
Generated by autodE on: 2022-05-29. E = -400.824239 Ha
N     4.60202  -0.96931  -0.35814
C     3.46128  -0.72912  -0.26993
C     2.12634  -0.44794  -0.16663
C     0.93412  -0.19709  -0.07351
C    -0.45233   0.09531   0.03475
C    -0.87526   1.38785   0.41386
C    -2.23603   1.66632   0.51828
C    -3.18163   0.67017   0.24890
C    -2.76672  -0.61246  -0.12740
C    -1.40951  -0.90636  -0.23622
H    -0.13107   2.15829   0.62174
H    -2.56209   2.66635   0.81170
H    -4.24733   0.89466   0.33263
H    -3.50616  -1.38821  -0.33678
H    -1.07697  -1.90361  -0.52881
