50
Generated by autodE on: 2022-06-04. E = -1261.844303 Ha
C    -1.28632  -0.96181  -3.87631
N    -1.47590  -0.28009  -2.60982
C    -0.72845  -0.57821  -1.53974
O     0.14170  -1.46098  -1.56837
C    -1.00560   0.13829  -0.21588
C    -1.19932  -0.97331   0.81622
C    -2.39994  -1.87719   0.78206
C    -2.60413  -2.81559   1.93182
O    -3.15052  -1.82791  -0.18006
N    -0.29289  -1.11560   1.69994
C     0.81488  -0.19406   1.43030
C     1.37839   0.36977   2.73648
C     1.94503  -1.01976   0.77151
O     2.87325  -0.53011   0.16327
O     1.83032  -2.32272   0.99658
C     2.82786  -3.16824   0.40179
C     0.23249   0.88307   0.42625
C     1.28345   1.41906  -0.53418
O     1.29609   1.27353  -1.73841
O     2.16926   2.18040   0.11670
C     3.23404   2.73821  -0.66185
C    -0.47138   2.13300   1.08975
C    -0.75467   3.17724  -0.01460
C    -1.80956   2.46110  -0.90301
C    -2.14945   1.18327  -0.09295
C    -1.91579   1.66840   1.35219
H    -1.49778  -2.03949  -3.78585
H    -1.96691  -0.52709  -4.61830
H    -0.25030  -0.84667  -4.23072
H    -2.21149   0.41159  -2.53195
H    -3.50454  -3.41902   1.76168
H    -1.72400  -3.46664   2.04529
H    -2.70105  -2.24449   2.86867
H     2.17221   1.09763   2.52568
H     1.79453  -0.44752   3.34317
H     0.58285   0.85878   3.31411
H     2.80024  -3.06559  -0.69240
H     2.56723  -4.19128   0.69556
H     3.82856  -2.90621   0.77329
H     2.83503   3.38282  -1.45819
H     3.84162   3.32757   0.03443
H     3.83828   1.93462  -1.10728
H     0.08482   2.53420   1.94266
H     0.13113   3.50478  -0.57276
H    -1.17957   4.07419   0.45801
H    -2.71375   3.07191  -1.03480
H    -1.41337   2.23951  -1.90173
H    -3.13518   0.75637  -0.31068
H    -2.56699   2.51241   1.62096
H    -2.02511   0.89258   2.11888
