30
Generated by autodE on: 2022-06-04. E = -708.974396 Ha
C     3.86705  -0.17958   0.53824
N     2.50093  -0.09542   0.06673
C     1.61002  -1.05937   0.34898
O     1.91647  -2.09104   0.97188
C     0.20747  -0.89282  -0.13272
C    -0.55692   0.19211  -0.44670
C    -0.19987   1.61924  -0.45698
O     0.92639   2.08413  -0.58850
O    -1.27783   2.39836  -0.32518
C    -1.06156   3.81660  -0.33343
C    -1.99164  -0.29813  -0.59681
C    -2.46722  -0.65720   0.84852
C    -1.59214  -1.89111   1.19998
C    -0.72933  -2.08646  -0.09199
C    -1.74434  -1.69986  -1.18263
H     4.34339  -1.11240   0.19881
H     3.92225  -0.15973   1.63992
H     4.43413   0.67173   0.14177
H     2.15005   0.77553  -0.34071
H    -0.40354   4.10970   0.49726
H    -2.05108   4.27211  -0.21351
H    -0.60956   4.12997  -1.28551
H    -2.65880   0.37715  -1.14280
H    -3.53710  -0.91196   0.83491
H    -2.32824   0.18680   1.53831
H    -2.20652  -2.78728   1.37044
H    -0.95804  -1.74127   2.08468
H    -0.23360  -3.06028  -0.16089
H    -2.64299  -2.33464  -1.18188
H    -1.30555  -1.67413  -2.19104
