20
Generated by autodE on: 2022-06-04. E = -552.790950 Ha
C     3.48013   1.79487   0.38375
O     2.77831   0.54640   0.32219
C     1.47531   0.60378   0.01621
O     0.87574   1.64305  -0.21176
C     0.86824  -0.73945  -0.00550
C     1.63482  -1.98964   0.30402
N    -0.38528  -0.75952  -0.31178
C    -1.52561  -0.66355  -0.67905
C    -2.85313  -0.45527  -0.13326
C    -3.26400   0.99233  -0.06952
O    -3.57958  -1.39622   0.16387
H     3.44953   2.30315  -0.59106
H     3.03757   2.44862   1.14952
H     4.51448   1.54734   0.64898
H     2.05302  -1.94843   1.32234
H     2.47842  -2.10951  -0.39447
H     0.98213  -2.86902   0.22536
H    -2.39338   1.65986   0.00879
H    -3.81376   1.24436  -0.99225
H    -3.94055   1.13196   0.78612
