50
Generated by autodE on: 2022-06-04. E = -1261.772049 Ha. Imaginary frequency = -312.2 cm-1
C    -0.28627  -1.98701  -3.27535
N    -0.16266  -1.02645  -2.20025
C    -1.23634  -0.39468  -1.70671
O    -2.37744  -0.56851  -2.16822
C    -1.06243   0.49676  -0.50354
C    -1.21542  -1.14607   0.86327
C    -2.34995  -2.08117   0.70367
C    -3.53578  -1.81563   1.57584
O    -2.27990  -2.95108  -0.14826
N    -0.24840  -1.07811   1.59309
C     0.87650  -0.45296   1.86526
C     1.01279   0.45708   3.04207
C     2.11461  -0.98762   1.24863
O     3.21679  -0.52186   1.47994
O     1.88553  -1.99473   0.40628
C     3.01243  -2.50448  -0.32090
C     0.06121   1.22351  -0.03368
C     1.43102   1.22803  -0.52124
O     1.95669   0.43219  -1.30362
O     2.14339   2.25141  -0.00824
C     3.51207   2.35736  -0.41610
C    -0.49541   2.43577   0.71454
C    -0.99828   3.39985  -0.40466
C    -2.21036   2.62339  -0.99816
C    -2.27760   1.34425  -0.10904
C    -1.83686   1.90555   1.24859
H     0.70671  -2.39673  -3.50005
H    -0.69642  -1.53030  -4.19132
H    -0.95303  -2.81464  -2.98446
H     0.76039  -0.74093  -1.85636
H    -4.31195  -2.56895   1.38703
H    -3.92432  -0.80694   1.35878
H    -3.23182  -1.82572   2.63478
H     1.46424  -0.07397   3.89739
H     1.68449   1.28496   2.77411
H     0.03947   0.85960   3.34582
H     3.47288  -1.70418  -0.91536
H     3.75426  -2.92881   0.37097
H     2.61468  -3.28611  -0.97810
H     3.58469   2.48171  -1.50631
H     3.90721   3.24591   0.09050
H     4.07701   1.46630  -0.11023
H     0.18979   2.89222   1.43582
H    -0.21290   3.60867  -1.14473
H    -1.31160   4.35874   0.03560
H    -3.14437   3.19552  -0.89689
H    -2.08618   2.37184  -2.06091
H    -3.23057   0.80819  -0.15863
H    -2.49371   2.71062   1.60928
H    -1.74381   1.14445   2.03331
