20
Generated by autodE on: 2022-06-20. E = -457.715319 Ha
C    -3.03899  -0.89557  -0.24924
N    -1.82192  -0.10870  -0.13772
C    -1.91130   1.27215   0.07862
C    -0.83151   2.04850   0.26087
C     0.57922   1.51347   0.25418
C     0.57620   0.01027   0.02852
C     1.82985  -0.75892  -0.01823
N     2.97301  -0.04884   0.15652
O     1.87425  -1.99162  -0.20786
C    -0.58582  -0.68139  -0.14287
H    -3.60227  -0.90266   0.69913
H    -3.69343  -0.48924  -1.03622
H    -2.78026  -1.92930  -0.51036
H    -2.92744   1.67070   0.08443
H    -0.98168   3.11905   0.41814
H     1.08733   1.77045   1.20641
H     1.17772   2.02933  -0.52467
H     3.85810  -0.54376   0.14379
H     2.97834   0.94756   0.33347
H    -0.55864  -1.76086  -0.30033
