24
Generated by autodE on: 2022-07-27. E = -572.272429 Ha
C     3.55281   0.16977   0.04269
O     2.31152  -0.36266  -0.41747
C     1.18142   0.23466   0.05990
O     1.23356   1.15462   0.87843
C    -0.00414  -0.33060  -0.50317
C     0.03784  -1.27913  -1.53458
N     0.05909  -2.07123  -2.39923
N    -1.27439   0.20610  -0.13267
C    -2.09128   0.76863  -1.22191
C    -1.64756   0.31287   1.11997
C    -2.84257   1.12783   1.48502
C    -0.91488  -0.38280   2.20504
H     4.33713  -0.42657  -0.44019
H     3.64142   0.08370   1.13646
H     3.66311   1.22744  -0.24242
H    -1.83406   1.82815  -1.36573
H    -3.15921   0.66632  -1.00283
H    -1.86161   0.21910  -2.14162
H    -2.81276   1.37340   2.55401
H    -2.91107   2.05429   0.89868
H    -3.76093   0.54225   1.30104
H    -1.62941  -0.68674   2.98350
H    -0.35410  -1.24838   1.82651
H    -0.19115   0.31177   2.66331
