44
Generated by autodE on: 2022-06-20. E = -1029.937632 Ha. Imaginary frequency = -552.0 cm-1
C     4.11280   0.71095  -0.23261
O     2.79116   0.50355  -0.74177
C     1.82296   1.29846  -0.26217
O     2.04302   2.23743   0.47859
C     0.50039   0.89590  -0.80582
C     0.56604   0.46162  -2.15774
N     0.62232   0.06341  -3.25318
N    -0.68233   1.49882  -0.39108
C    -1.66174   1.79067  -1.44961
C    -1.14971   1.27633   0.91481
C    -2.57194   1.72354   1.15903
C    -0.25175   1.63217   2.08259
C    -1.13179  -0.74904   1.05021
N    -2.43945  -1.20075   0.74491
C    -3.47822  -1.22952   1.75528
C    -2.74856  -1.53636  -0.56261
C    -1.79621  -1.89385  -1.44258
C    -0.38314  -2.09456  -0.96107
C    -0.04650  -1.21062   0.22984
C     1.27422  -1.40930   0.87529
N     2.13646  -2.23825   0.23672
O     1.59051  -0.89425   1.96371
H     4.74603  -0.03575  -0.72541
H     4.12380   0.55769   0.85630
H     4.46790   1.72499  -0.46628
H    -2.34205   2.58151  -1.11941
H    -2.24280   0.89910  -1.73182
H    -1.12936   2.16326  -2.33110
H    -2.86187   1.46297   2.18318
H    -2.64669   2.82068   1.06761
H    -3.29197   1.26912   0.46868
H    -0.78484   1.39200   3.01287
H     0.69220   1.08656   2.08876
H    -0.04398   2.71385   2.07116
H    -0.92872  -0.75151   2.12230
H    -3.10110  -0.79624   2.68950
H    -3.80345  -2.26368   1.96913
H    -4.36606  -0.65392   1.44424
H    -3.80855  -1.47262  -0.82817
H    -2.05030  -2.09633  -2.48374
H    -0.24336  -3.14985  -0.64197
H     0.32849  -1.95163  -1.78802
H     3.09029  -2.26005   0.58401
H     1.99468  -2.49874  -0.73164
