50
Generated by autodE on: 2022-06-20. E = -1038.956866 Ha
C     1.63162  -3.21222   0.78339
C     1.13684  -1.96956   0.87861
C     1.26369  -1.15719   2.13926
C     0.40585  -1.36350  -0.29910
C    -1.00649  -0.84040   0.08788
C    -2.05232  -1.06915  -0.97435
C    -3.19251  -1.77359  -0.85134
C    -3.64090  -2.47534   0.40110
C    -4.14169  -1.89955  -2.01313
C    -0.74015   0.64939   0.26356
C    -1.69777   1.55176   0.92970
C    -1.50451   2.94633   0.89290
C    -2.40224   3.80301   1.52563
C    -3.50950   3.28208   2.20696
C    -3.71163   1.90000   2.24991
C    -2.81422   1.03884   1.61500
N     0.35884   1.07675  -0.25012
C     1.08218  -0.04712  -0.86922
C     0.82620   0.02486  -2.32369
N     0.61802   0.08827  -3.46417
C     2.59710   0.03158  -0.67958
C     3.40885  -0.96761  -1.23613
C     4.79313  -0.92849  -1.06350
C     5.38042   0.11099  -0.33339
C     4.57462   1.11138   0.21560
C     3.18700   1.07467   0.04086
H     1.53711  -3.79378  -0.13831
H     2.14784  -3.68420   1.62488
H     1.83716  -0.23369   1.96547
H     0.27806  -0.84649   2.52305
H     1.77165  -1.73107   2.92744
H     0.34160  -2.11696  -1.09198
H    -1.33450  -1.28850   1.03237
H    -1.84200  -0.60099  -1.94226
H    -3.87374  -3.53157   0.18293
H    -2.89993  -2.45169   1.21062
H    -4.57554  -2.02379   0.77750
H    -5.13747  -1.50399  -1.74527
H    -3.78185  -1.36157  -2.90244
H    -4.29279  -2.95975  -2.28218
H    -0.64397   3.34800   0.35729
H    -2.24139   4.88282   1.48734
H    -4.21399   3.95468   2.70189
H    -4.57302   1.48747   2.77980
H    -2.98864  -0.03532   1.65957
H     2.95529  -1.78113  -1.80652
H     5.41562  -1.71335  -1.49935
H     6.46391   0.14119  -0.19651
H     5.02529   1.92942   0.78252
H     2.55702   1.85554   0.46516
