23
Generated by autodE on: 2022-06-20. E = -351.521380 Ha
C     3.47641   0.59587   1.36328
C     2.41172   0.75529   0.54669
C     2.43075   1.75778  -0.57878
C     1.20961  -0.05113   0.74852
C     0.07533   0.02134   0.00765
C    -1.09208  -0.80086   0.25195
C    -2.26320  -0.77976  -0.43345
C    -2.55121   0.13132  -1.59280
C    -3.38999  -1.70092  -0.05996
H     4.38769   1.18677   1.23553
H     3.45904  -0.13230   2.18009
H     3.38969   2.29340  -0.61883
H     1.62398   2.50058  -0.46307
H     2.26742   1.26584  -1.55207
H     1.24800  -0.76908   1.57669
H     0.02916   0.73577  -0.81878
H    -1.00549  -1.51119   1.08311
H    -2.80664  -0.46014  -2.48979
H    -1.71757   0.79799  -1.84833
H    -3.43640   0.75533  -1.37644
H    -4.29720  -1.12538   0.19808
H    -3.13409  -2.34742   0.79231
H    -3.66977  -2.34331  -0.91433
