27
Generated by autodE on: 2022-06-20. E = -687.361288 Ha
N    -1.24731  -3.37697  -1.86338
C    -1.14843  -2.35668  -1.29679
C    -1.05840  -1.12872  -0.61448
N     0.17254  -0.66053  -0.36294
C     1.21550  -0.19572  -0.11203
C     2.47700   0.36079   0.18493
C     3.65444  -0.35045  -0.13982
C     4.89188   0.21379   0.15730
C     4.97290   1.46828   0.77356
C     3.80368   2.16818   1.09500
C     2.55368   1.62856   0.80546
C    -2.23230  -0.36754  -0.18545
C    -3.53202  -0.84821  -0.45546
C    -4.65487  -0.12731  -0.05146
C    -4.51646   1.08767   0.63015
C    -3.23218   1.57132   0.90248
C    -2.10179   0.85738   0.50308
H     3.58293  -1.32823  -0.61806
H     5.80317  -0.33305  -0.09392
H     5.94858   1.90137   1.00349
H     3.86544   3.14682   1.57551
H     1.63826   2.16916   1.05048
H    -3.65875  -1.79416  -0.98693
H    -5.65027  -0.52068  -0.27268
H    -5.39846   1.64981   0.94462
H    -3.10507   2.51786   1.43390
H    -1.11024   1.25567   0.72809
