50
Generated by autodE on: 2022-06-20. E = -1038.884982 Ha. Imaginary frequency = -352.2 cm-1
C     2.68326  -2.60705   0.55589
C     1.55588  -1.96528   0.94537
C     1.47465  -1.26767   2.27945
C     0.40809  -1.89779   0.06057
C    -0.83631  -1.37386   0.42363
C    -1.99562  -1.55009  -0.45987
C    -3.30270  -1.41980  -0.13781
C    -3.81265  -1.11616   1.24275
C    -4.37064  -1.56607  -1.18597
C    -0.63836   0.74351   0.10974
C    -1.71935   1.50160   0.69506
C    -1.81361   1.60596   2.09419
C    -2.88923   2.28539   2.66368
C    -3.89176   2.82294   1.84830
C    -3.81011   2.69776   0.45642
C    -2.72387   2.04653  -0.12650
N     0.27070   0.92292  -0.68246
C     1.20071   0.21074  -1.35583
C     0.77770  -0.38921  -2.56819
N     0.42896  -0.90390  -3.55862
C     2.61172   0.30134  -1.00701
C     3.57643  -0.44437  -1.71420
C     4.91775  -0.41536  -1.32944
C     5.32530   0.35093  -0.23313
C     4.37152   1.08766   0.48034
C     3.03065   1.06591   0.10165
H     2.74121  -3.10644  -0.41464
H     3.56727  -2.64956   1.19730
H     1.21409  -0.20454   2.15376
H     0.69110  -1.71151   2.91615
H     2.43039  -1.32692   2.81867
H     0.49987  -2.40665  -0.90157
H    -1.02823  -1.20647   1.48557
H    -1.74805  -1.77476  -1.50357
H    -4.55548  -1.87423   1.54770
H    -3.02407  -1.08305   2.00430
H    -4.33738  -0.14535   1.25442
H    -4.96591  -0.63797  -1.26060
H    -3.95109  -1.78750  -2.17848
H    -5.08298  -2.36724  -0.91974
H    -1.04272   1.15372   2.72095
H    -2.95584   2.38162   3.74942
H    -4.74297   3.33767   2.29955
H    -4.59555   3.11354  -0.17849
H    -2.64835   1.94335  -1.21018
H     3.27041  -1.05335  -2.56749
H     5.64966  -0.99995  -1.89201
H     6.37564   0.37266   0.06556
H     4.67652   1.68925   1.34013
H     2.29733   1.64835   0.66211
