33
Generated by autodE on: 2022-05-29. E = -843.429837 Ha
C    -4.13345  -0.05526   0.44926
O    -2.72469   0.00571   0.72863
C    -1.91817  -0.60506  -0.13504
O    -2.29611  -1.27131  -1.07771
C    -0.48337  -0.43092   0.21510
C     0.23414   0.69923   0.13243
C    -0.31236   2.02192  -0.26898
C     0.42007   3.24732   0.19436
O    -1.34961   2.08070  -0.91860
C     1.66091   0.38860   0.51906
C     2.63023   0.50278  -0.67121
C     3.79796  -0.43485  -0.68555
O     2.44021   1.34705  -1.52966
O     1.61473  -0.92508   1.05621
C     0.38631  -1.58937   0.66944
C    -0.17897  -2.29060   1.89918
C     0.65429  -2.56730  -0.47784
H    -4.62691   0.46619   1.27696
H    -4.47169  -1.09961   0.39781
H    -4.34814   0.45076  -0.50321
H    -0.12610   4.15001  -0.10757
H     1.43350   3.25643  -0.23357
H     0.53199   3.21993   1.29101
H     2.05020   1.07933   1.29079
H     4.49293  -0.15943  -1.48936
H     3.43442  -1.46313  -0.83935
H     4.30764  -0.42372   0.29089
H    -1.11880  -2.80526   1.64890
H    -0.37300  -1.56429   2.70179
H     0.54095  -3.03954   2.26216
H     1.07475  -2.03909  -1.34605
H     1.36953  -3.33406  -0.14378
H    -0.27663  -3.06233  -0.78785
