18
Generated by autodE on: 2022-07-26. E = -385.221968 Ha
C     1.69899  -0.35755  -0.85013
C     1.19007   1.00924  -0.42462
O     1.81727   2.03211  -0.82467
C     0.10594   1.13491   0.45676
O    -0.59319   0.06951   1.03026
C    -1.17735  -0.89831   0.42337
C    -1.74265  -1.94752   1.29898
C    -1.34469  -0.93490  -1.04051
H     2.79822  -0.30775  -0.85313
H     1.37962  -0.58881  -1.87988
H     1.38327  -1.18379  -0.19664
H    -0.05167   2.04410   1.03585
H    -2.80754  -2.10011   1.05800
H    -1.61653  -1.69104   2.35830
H    -1.23361  -2.90515   1.08929
H    -1.26031   0.08309  -1.45475
H    -0.57393  -1.55637  -1.52540
H    -2.31811  -1.39158  -1.27275
