15
Generated by autodE on: 2022-05-29. E = -458.066949 Ha
C    -3.69725   0.22235   0.19957
O    -2.29099   0.09826   0.48414
C    -1.47039   0.12994  -0.56111
O    -1.81196   0.25698  -1.71847
C    -0.08323  -0.00796  -0.15670
C     1.09544  -0.12174   0.11634
C     2.51027  -0.26537   0.44955
C     3.26438   1.00838   0.67749
O     3.00211  -1.37944   0.52476
H    -4.20214   0.17571   1.17058
H    -4.02800  -0.60362  -0.44583
H    -3.90162   1.18282  -0.29431
H     2.79215   1.57596   1.49620
H     4.31073   0.78314   0.92208
H     3.20826   1.63739  -0.22619
