61
Generated by autodE on: 2022-10-23. E = -1418.910223 Ha
C    -3.64169  -1.39215  -2.03041
N    -2.76108  -1.34455  -0.87993
C    -1.43164  -1.40083  -1.01812
O    -0.88611  -1.68097  -2.08815
C    -0.54414  -1.13431   0.25216
C    -1.19312  -1.95863   1.38729
C    -0.53108  -3.24286   1.78974
O    -2.25425  -1.60105   1.87357
N     0.80536  -1.58848   0.00302
C     1.65974  -0.55719  -0.55667
C     1.60271  -0.58639  -2.12245
C     2.10223  -1.86673  -2.75507
O     1.24852   0.33746  -2.82562
C     3.14856  -0.84358  -0.23167
C     3.48445  -1.93580   0.73922
O     4.01357  -0.21199  -0.81573
C     1.13523   0.75433   0.16990
O     1.17287   1.92086  -0.60562
C     2.43259   2.44913  -0.98276
C     1.83093   0.97806   1.56138
C     1.43134   2.36838   2.09266
C    -0.07672   2.18876   2.40716
C    -0.32694   0.68567   2.13236
C     1.02968   0.08133   2.51638
C    -0.39025   0.42820   0.59197
C    -1.48899   1.23078  -0.09746
C    -2.64791   1.57976   0.61690
C    -3.73335   2.19425  -0.01302
C    -3.68412   2.48227  -1.37885
C    -2.53794   2.14265  -2.10234
C    -1.45692   1.52181  -1.47159
H    -3.40951  -0.58132  -2.73972
H    -3.54431  -2.35101  -2.56200
H    -4.67741  -1.27932  -1.68819
H    -3.13333  -1.03636   0.01343
H     0.48912  -3.06317   2.15622
H    -0.43657  -3.89570   0.90593
H    -1.13556  -3.74153   2.55775
H     0.83274  -2.46164  -0.51702
H     3.12825  -1.67720  -3.11016
H     2.13618  -2.72506  -2.07197
H     1.47823  -2.10539  -3.62603
H     3.16276  -2.90237   0.31828
H     2.94567  -1.81412   1.68796
H     4.56908  -1.95014   0.90680
H     2.90096   1.85656  -1.78034
H     3.13468   2.51343  -0.13650
H     2.24070   3.46473  -1.35805
H     2.91587   0.82033   1.54259
H     1.62346   3.18220   1.38553
H     2.01011   2.57647   3.00447
H    -0.30080   2.40861   3.46128
H    -0.70945   2.84267   1.79519
H    -1.19062   0.29222   2.67144
H     1.12243  -0.98902   2.31536
H     1.28852   0.26691   3.56935
H    -2.72635   1.34837   1.67824
H    -4.62256   2.44512   0.57054
H    -4.53144   2.96183  -1.87471
H    -2.48384   2.35309  -3.17342
H    -0.58844   1.24257  -2.06066
