30
Generated by autodE on: 2022-10-26. E = -800.287031 Ha
C    -3.40372   0.53776  -2.22466
N    -2.72316  -0.12039  -1.12950
C    -1.48426   0.23723  -0.75984
O    -0.82395   1.09451  -1.37359
C    -0.94040  -0.40387   0.46896
N     0.34166  -0.18103   0.80690
C     1.42148   0.26941   0.17048
C     1.56624   0.33323  -1.31038
C     1.10665  -0.85981  -2.11027
O     2.21354   1.23161  -1.83087
C     2.55025   0.51298   1.10269
C     3.86684   0.99496   0.57542
O     2.37163   0.29643   2.30404
C    -1.76967  -1.10018   1.46096
C    -1.15365  -1.49352   2.78303
O    -2.94946  -1.38651   1.22570
H    -4.31285  -0.02578  -2.46842
H    -2.75669   0.57412  -3.11306
H    -3.68787   1.57341  -1.97146
H    -3.22962  -0.72194  -0.47570
H     0.58971  -0.33778   1.80190
H     2.00962  -1.45317  -2.33502
H     0.39393  -1.50814  -1.58506
H     0.67383  -0.52157  -3.06156
H     4.58830   1.04347   1.40065
H     3.74453   1.98868   0.11957
H     4.23929   0.32720  -0.21659
H    -0.33642  -2.21838   2.64171
H    -0.74364  -0.61922   3.31542
H    -1.93272  -1.95205   3.40389
