30
Generated by autodE on: 2022-10-23. E = -800.285268 Ha
C     3.09499  -0.66896   2.54991
N     2.58823  -0.04753   1.34471
C     1.36966  -0.34309   0.86505
O     0.57870  -1.09256   1.46899
C     1.01299   0.22604  -0.45795
N    -0.25983   0.10995  -0.88530
C    -1.41459  -0.13086  -0.27778
C    -2.53617  -0.27789  -1.23212
C    -3.93213  -0.44927  -0.71469
O    -2.28963  -0.24009  -2.44041
C    -1.57590   0.05514   1.20604
C    -2.29329  -0.98883   2.01250
O    -1.20243   1.11368   1.69083
C     1.98810   0.74973  -1.41366
C     1.52701   1.09208  -2.81229
O     3.17034   0.93732  -1.09468
H     2.36217  -0.58058   3.36506
H     3.30951  -1.74165   2.40425
H     4.02183  -0.16343   2.84845
H     3.21271   0.44209   0.69993
H    -0.42010   0.19655  -1.90473
H    -4.17768   0.32724   0.02600
H    -4.02760  -1.42534  -0.21262
H    -4.63731  -0.40432  -1.55397
H    -1.84639  -1.02327   3.01538
H    -2.25207  -1.97840   1.53975
H    -3.34890  -0.69321   2.12570
H     1.07252   0.22152  -3.31346
H     2.39710   1.42027  -3.39371
H     0.77945   1.90139  -2.79673
