31
Generated by autodE on: 2022-10-23. E = -618.602866 Ha
C    -2.33032   2.69671   0.03378
O    -1.16101   1.88769   0.13973
C    -1.18690   0.64242  -0.38381
C    -0.13336  -0.22459  -0.42149
C     1.22697  -0.05974   0.08276
C     1.76596   1.20891   0.40661
C     3.06984   1.33771   0.88396
C     3.88150   0.21047   1.05988
C     3.36658  -1.05132   0.74683
C     2.06337  -1.18540   0.26435
C    -0.73517  -1.55661  -0.87600
C    -1.58878  -2.09702   0.31431
C    -2.76478  -1.07831   0.37992
C    -2.44492  -0.10000  -0.80064
C    -1.84487  -1.07497  -1.82862
H    -2.07964   3.66084   0.49478
H    -2.60922   2.86085  -1.01930
H    -3.17954   2.24929   0.57347
H     1.15146   2.09845   0.27475
H     3.45816   2.33184   1.12098
H     4.90202   0.31536   1.43562
H     3.98493  -1.94301   0.87936
H     1.68477  -2.18160   0.03052
H    -0.01948  -2.28009  -1.28530
H    -1.00304  -2.13793   1.24381
H    -1.95426  -3.11342   0.10126
H    -2.82376  -0.54540   1.33974
H    -3.73483  -1.56828   0.20696
H    -3.29156   0.51665  -1.12145
H    -2.54562  -1.87225  -2.12209
H    -1.45601  -0.57011  -2.72502
