61
Generated by autodE on: 2022-10-23. E = -1418.866700 Ha. Imaginary frequency = -288.1 cm-1
C    -3.33155  -0.52922  -2.80408
N    -2.61197  -1.00952  -1.64467
C    -1.27690  -0.96549  -1.54052
O    -0.54898  -0.57038  -2.46592
C    -0.66919  -1.40971  -0.23785
C    -1.51007  -2.09123   0.78502
C    -0.87981  -3.08171   1.72961
O    -2.71400  -1.84322   0.88259
N     0.65453  -1.77775  -0.26144
C     1.68519  -0.95249  -0.69408
C     1.85993  -0.73938  -2.18266
C     1.73730  -1.98329  -3.03472
O     2.31622   0.29001  -2.65634
C     2.95445  -1.28378   0.01229
C     4.25875  -0.64631  -0.38262
O     2.93041  -2.08529   0.95260
C     0.93500   1.02141   0.24875
O     1.14841   1.93826  -0.71574
C     2.43309   2.54724  -0.81925
C     1.69517   1.12798   1.57347
C     1.12289   2.39566   2.28640
C    -0.29197   1.93594   2.73637
C    -0.39342   0.50127   2.13769
C     1.03914   0.01516   2.39594
C    -0.44833   0.67956   0.60556
C    -1.62814   1.36878   0.04244
C    -2.84734   1.33522   0.75915
C    -3.99687   1.95448   0.27122
C    -3.96913   2.63602  -0.94976
C    -2.77651   2.67546  -1.67638
C    -1.62625   2.04921  -1.19566
H    -2.68664   0.12801  -3.39873
H    -3.66573  -1.36245  -3.44560
H    -4.21628   0.03617  -2.48116
H    -3.11884  -1.25306  -0.79331
H    -0.38171  -3.89229   1.17487
H    -0.12611  -2.60553   2.37487
H    -1.66920  -3.50412   2.36302
H     0.97006  -2.30655   0.55437
H     2.73267  -2.46351  -3.03259
H     1.01002  -2.70400  -2.64740
H     1.49206  -1.70226  -4.06791
H     5.05760  -1.39126  -0.25884
H     4.26526  -0.24321  -1.40009
H     4.47088   0.17880   0.31659
H     2.42373   3.12519  -1.75146
H     2.61436   3.22609   0.02742
H     3.22583   1.79375  -0.87124
H     2.78635   1.11501   1.49104
H     1.08924   3.26709   1.61882
H     1.76315   2.65454   3.14210
H    -0.36320   1.87630   3.83265
H    -1.09064   2.60031   2.38378
H    -1.19758  -0.10380   2.57057
H     1.26592  -0.99013   2.04373
H     1.30766   0.07471   3.46055
H    -2.90003   0.81090   1.71171
H    -4.92100   1.90647   0.85247
H    -4.86793   3.12601  -1.33140
H    -2.73938   3.19269  -2.63835
H    -0.72266   2.06946  -1.79481
