25
Generated by autodE on: 2022-10-22. E = -685.426502 Ha
C     3.28789  -0.78317   2.01361
O     1.98899  -0.71489   1.41228
C     1.79314   0.25621   0.51389
O     2.66759   1.05356   0.18357
C     0.44567   0.26652  -0.05447
N     0.29930   1.20842  -0.99442
C    -0.75366   1.58784  -1.72503
C    -0.62709   2.64094  -2.64185
N    -0.54653   3.51575  -3.41576
C    -0.63966  -0.64852   0.33232
C    -1.36970  -1.35430  -0.64364
C    -2.39437  -2.22566  -0.27148
C    -2.70948  -2.40600   1.07901
C    -1.98951  -1.71134   2.05661
C    -0.96370  -0.83994   1.68914
H     3.25128  -1.62592   2.71360
H     4.05909  -0.95783   1.24931
H     3.51402   0.14825   2.55294
H     1.17650   1.73033  -1.14119
H    -1.71164   1.08663  -1.59703
H    -1.12208  -1.23540  -1.70034
H    -2.94553  -2.77069  -1.04131
H    -3.51334  -3.08659   1.36887
H    -2.23128  -1.84516   3.11358
H    -0.40820  -0.29709   2.45507
