14
Generated by autodE on: 2022-10-22. E = -5454.941788 Ha
C    -0.74129  -2.92414  -0.26247
O     0.01376  -2.06424  -1.13263
C     0.64841  -0.99384  -0.61752
O     1.98189  -0.98635  -0.77905
C     2.66162  -2.24734  -0.70019
C     0.02379   0.06150  -0.04166
Br   -1.86085   0.25761  -0.08426
Br    0.99875   1.48682   0.73849
H    -0.60222  -3.94898  -0.63268
H    -0.37308  -2.85170   0.77129
H    -1.80906  -2.66461  -0.29327
H     3.73083  -2.01546  -0.77932
H     2.36482  -2.91192  -1.52383
H     2.46119  -2.73951   0.26470
