60
Generated by autodE on: 2022-06-08. E = -1422.886870 Ha
C   -11.33014  -8.21355  12.97267
N   -10.84074  -7.42169  14.08337
C    -9.54017  -7.17094  14.24693
O    -8.67541  -7.58949  13.46476
C    -9.10465  -6.38209  15.52241
C   -10.20194  -5.42164  16.04978
O   -11.38352  -5.78754  16.14707
N    -9.81141  -4.21171  16.47280
C   -10.73396  -3.30084  17.12569
C    -8.93630  -7.45960  16.63093
C    -8.69160  -6.95767  18.05568
C    -7.37787  -6.20341  18.28813
C    -6.18862  -6.92572  17.64854
C    -5.62781  -6.31580  16.35444
F    -4.71056  -5.31808  16.79035
C    -4.83251  -7.37640  15.59191
C    -5.50798  -8.35663  14.85138
C    -4.79330  -9.34459  14.17250
C    -3.39529  -9.36123  14.22021
C    -2.72035  -8.38546  14.95788
C    -3.43540  -7.40039  15.64664
C    -6.55321  -5.56663  15.41447
C    -7.87224  -5.60945  15.09661
C    -8.05568  -4.60870  14.02022
N    -7.00043  -3.95227  13.69859
C    -5.92791  -4.47905  14.54027
C    -4.74036  -4.92349  13.70898
C    -4.90428  -5.91819  12.73448
C    -3.81006  -6.37048  11.99746
C    -2.53873  -5.82698  12.22188
C    -2.37244  -4.82710  13.18295
C    -3.47116  -4.37802  13.92346
H   -10.91971  -9.23572  12.99888
H   -11.05002  -7.76327  12.00718
H   -12.42391  -8.27054  13.03232
H   -11.47308  -7.02155  14.78011
H    -8.82283  -3.98137  16.46699
H   -11.08544  -3.70848  18.08769
H   -11.61261  -3.11739  16.49024
H   -10.22002  -2.34939  17.30824
H    -8.13951  -8.14553  16.31452
H    -9.86487  -8.04723  16.63656
H    -9.54489  -6.34823  18.39459
H    -8.68979  -7.85360  18.69951
H    -7.44096  -5.17146  17.91044
H    -7.21842  -6.11532  19.37357
H    -6.44067  -7.97783  17.46273
H    -5.32172  -6.94780  18.32499
H    -6.59511  -8.32781  14.77040
H    -5.33186 -10.09705  13.59152
H    -2.83511 -10.12763  13.67943
H    -1.62839  -8.38448  14.99647
H    -2.90547  -6.63431  16.21158
H    -9.02424  -4.41983  13.54291
H    -5.59075  -3.66553  15.20271
H    -5.89216  -6.35666  12.57583
H    -3.94515  -7.15741  11.25182
H    -1.68056  -6.18616  11.64887
H    -1.38375  -4.39812  13.36312
H    -3.33909  -3.60874  14.68785
