60
Generated by autodE on: 2022-06-08. E = -1422.748573 Ha. Imaginary frequency = -102.7 cm-1
C   -11.46067  -7.67284  12.71655
N   -10.96014  -7.09229  13.94645
C    -9.65348  -7.04926  14.22364
O    -8.78656  -7.48424  13.45562
C    -9.24470  -6.48617  15.61152
C   -10.24915  -5.46225  16.17250
O   -11.44647  -5.76513  16.30164
N    -9.77028  -4.27559  16.55599
C   -10.62205  -3.25883  17.14305
C    -9.18633  -7.70160  16.60617
C    -8.84498  -7.39287  18.07359
C    -7.53177  -6.67785  18.46240
C    -6.22553  -7.23758  17.86524
C    -5.60817  -6.37790  16.73390
F    -5.04605  -5.22720  17.33952
C    -4.49869  -7.13662  16.02532
C    -4.80359  -8.01442  14.97579
C    -3.79451  -8.76985  14.37670
C    -2.47133  -8.65226  14.81614
C    -2.16400  -7.77147  15.85609
C    -3.17441  -7.01716  16.46149
C    -6.69265  -5.94612  15.84504
C    -7.87152  -5.98658  15.52742
C    -8.14335  -4.09861  13.75556
N    -6.94232  -3.89252  13.77193
C    -5.69065  -4.08940  14.02243
C    -4.87086  -4.96367  13.18856
C    -5.43824  -5.80479  12.21009
C    -4.62596  -6.63947  11.44413
C    -3.23927  -6.65243  11.63714
C    -2.67007  -5.82810  12.61412
C    -3.47654  -4.99104  13.38431
H   -10.99958  -7.19389  11.83904
H   -12.54668  -7.52614  12.67024
H   -11.24601  -8.75270  12.66279
H   -11.59709  -6.74690  14.66539
H    -8.78673  -4.07921  16.39467
H   -10.00884  -2.38402  17.39048
H   -11.10210  -3.62995  18.06189
H   -11.41594  -2.95286  16.44354
H    -8.46261  -8.41312  16.18182
H   -10.17121  -8.19232  16.58717
H    -9.67861  -6.82186  18.51649
H    -8.85850  -8.37181  18.58326
H    -7.60370  -5.60402  18.23656
H    -7.46635  -6.73998  19.56034
H    -6.39003  -8.24484  17.45301
H    -5.44480  -7.33977  18.63564
H    -5.83247  -8.09079  14.61716
H    -4.04020  -9.44162  13.55130
H    -1.68128  -9.23777  14.34022
H    -1.13183  -7.66703  16.19919
H    -2.93440  -6.32773  17.27184
H    -8.85406  -3.52418  13.14106
H    -5.21880  -3.47064  14.79061
H    -6.52097  -5.81627  12.06702
H    -5.07849  -7.29060  10.69227
H    -2.60686  -7.30972  11.03623
H    -1.59080  -5.84339  12.78216
H    -3.03289  -4.35402  14.15303
