39
Generated by autodE on: 2022-05-30. E = -1101.597234 Ha
C     3.89550   1.45660  -0.89936
N     2.97123   0.62074  -0.16508
C     2.05427  -0.16720  -0.73394
O     1.95971  -0.36881  -1.95016
C     1.13357  -0.93636   0.24596
C     1.60312  -2.39198   0.14098
N     1.29756  -0.46366   1.62483
C     0.29150   0.54253   1.91082
C     0.77190   1.90641   1.61608
N     1.15124   2.98242   1.40951
C    -0.96974   0.17234   1.06183
C    -1.76713   1.34151   0.71949
N    -2.43287   2.27369   0.53377
C    -1.89546  -0.89448   1.80617
C    -3.12853  -1.05412   0.93276
C    -2.70872  -1.75610  -0.12659
C    -1.23841  -2.04032   0.12774
O    -1.18309  -2.10038   1.56187
C    -0.41196  -0.72574  -0.11980
C    -0.63708  -0.19174  -1.52094
O    -1.04553  -0.86757  -2.44237
O    -0.37355   1.10917  -1.60427
C    -0.46792   1.71795  -2.89861
H     3.71969   2.51824  -0.66369
H     3.74366   1.29866  -1.97395
H     4.93850   1.21061  -0.64682
H     2.94848   0.66818   0.85025
H     1.08440  -3.03098   0.86688
H     2.68163  -2.43804   0.35038
H     1.43113  -2.77216  -0.87365
H     1.15505  -1.24393   2.26299
H     0.04013   0.53104   2.98130
H    -2.02033  -0.69264   2.87473
H    -4.09751  -0.59308   1.11876
H    -3.24957  -2.02619  -1.03164
H    -0.82233  -2.93650  -0.33595
H    -1.48054   1.59547  -3.30733
H     0.26663   1.26222  -3.57765
H    -0.24204   2.77958  -2.74839
