19
Generated by autodE on: 2022-05-30. E = -473.738865 Ha
C    -3.84830  -0.17351   0.06066
N    -2.57084   0.49596   0.19923
C    -1.39072  -0.16236   0.15063
O    -1.30515  -1.40335   0.05690
C    -0.16803   0.66185   0.21874
C    -0.09473   2.11096   0.54247
N     0.92807  -0.03050  -0.05228
C     2.21586   0.35914  -0.13802
C     3.21020  -0.57936  -0.43449
N     4.07058  -1.36146  -0.68991
H    -4.27396  -0.03142  -0.94680
H    -3.70998  -1.24731   0.23144
H    -4.56707   0.21529   0.79740
H    -2.55695   1.50274   0.07331
H     0.79648   2.32351   1.15534
H    -0.97630   2.43847   1.10914
H    -0.01942   2.73563  -0.36686
H     0.71763  -1.02919  -0.20212
H     2.47150   1.40461   0.02483
