19
Generated by autodE on: 2022-07-26. E = -473.725372 Ha
C     1.85290   1.56204  -1.14885
N     1.29595   0.49294  -0.34301
C     0.42263  -0.39545  -0.85849
O     0.21447  -0.49715  -2.07566
C    -0.21875  -1.34636   0.09163
C    -0.31796  -2.77237  -0.34118
N    -0.74179  -0.98028   1.24939
C    -1.00201   0.21192   1.86810
C    -0.93800   1.45370   1.24136
N    -0.90816   2.51672   0.74175
H     1.06458   2.24568  -1.50502
H     2.37990   1.15734  -2.02548
H     2.56488   2.13149  -0.53931
H     1.40108   0.55389   0.66434
H    -0.72201  -3.40776   0.46058
H     0.66777  -3.16315  -0.64213
H    -0.98080  -2.86012  -1.21893
H    -1.06309  -1.77246   1.81330
H    -1.39999   0.13597   2.87806
