20
Generated by autodE on: 2022-05-30. E = -627.786333 Ha
C     3.62109  -0.34378  -0.08977
O     2.19658  -0.51766  -0.04332
C     1.47258   0.53649   0.33350
O     1.94099   1.61671   0.64343
C     0.02773   0.26484   0.33220
C    -0.68035  -0.78053  -0.14477
C    -0.24335  -1.96904  -0.76654
N     0.06438  -2.96720  -1.28215
C    -2.17299  -0.36177   0.05343
C    -2.43625   0.78729  -0.94176
C    -1.72763   1.81697  -0.47138
C    -1.03973   1.27773   0.80110
O    -2.04008   0.36285   1.28010
H     3.88608   0.44693  -0.80624
H     4.03013  -1.30674  -0.41532
H     4.00639  -0.08106   0.90595
H    -2.89889  -1.17814   0.11208
H    -3.03337   0.70067  -1.84826
H    -1.57873   2.81381  -0.88382
H    -0.72057   1.99741   1.56038
