39
Generated by autodE on: 2022-05-30. E = -1101.525473 Ha. Imaginary frequency = -182.4 cm-1
C     3.74664   1.75004  -0.90381
N     3.11490   0.71617  -0.10673
C     2.23814  -0.15082  -0.64344
O     2.08150  -0.27261  -1.86304
C     1.54017  -1.08032   0.30489
C     1.66074  -2.52891  -0.04022
N     1.20246  -0.74329   1.55348
C     0.73229   0.41872   2.08754
C     1.06568   1.71440   1.63985
N     1.25985   2.82256   1.32764
C    -1.35678   0.19394   0.85282
C    -1.70968   1.56310   0.82995
N    -2.03643   2.68142   0.85955
C    -2.08383  -0.81248   1.80651
C    -3.40551  -1.17881   1.11210
C    -3.04637  -1.92355   0.06016
C    -1.51128  -1.99962   0.12672
O    -1.30272  -1.98544   1.55304
C    -0.98432  -0.59225  -0.23403
C    -0.77719  -0.18888  -1.61601
O    -0.88267  -0.95463  -2.56414
O    -0.48852   1.11482  -1.74712
C    -0.25461   1.59667  -3.07439
H     3.00682   2.49568  -1.23928
H     4.22834   1.31637  -1.79195
H     4.50626   2.25351  -0.29413
H     3.24871   0.74330   0.89775
H     1.11803  -3.16372   0.67233
H     2.72125  -2.83486  -0.05420
H     1.26239  -2.69195  -1.05208
H     0.88222  -1.54506   2.10155
H     0.38847   0.33819   3.11931
H    -2.10865  -0.54244   2.86619
H    -4.38946  -0.82101   1.41243
H    -3.65715  -2.34366  -0.73805
H    -1.02730  -2.85144  -0.35668
H    -1.14099   1.44086  -3.70642
H     0.61045   1.08472  -3.51756
H    -0.04704   2.66841  -2.97278
