24
Generated by autodE on: 2022-06-05. E = -701.448726 Ha
C     1.27644   3.63949  -0.98325
O     0.71440   2.35294  -0.67353
C     1.42980   1.56211   0.11281
O     2.50865   1.85812   0.59884
C     0.76815   0.25199   0.36485
N     1.46505  -0.49685   1.19684
N     1.34943  -1.72846   1.65196
C     0.44908  -2.54452   1.14264
N    -0.25865  -3.41832   0.80254
C    -0.54013  -0.11861  -0.19162
C    -1.59943  -0.45115   0.67220
C    -2.85028  -0.78000   0.14953
C    -3.05321  -0.78538  -1.23337
C    -2.00379  -0.44987  -2.09671
C    -0.75395  -0.10987  -1.58153
H     0.55251   4.13016  -1.64294
H     1.41561   4.22361  -0.06260
H     2.24213   3.51827  -1.49406
H     2.30108  -0.01814   1.56387
H    -1.44150  -0.44169   1.75234
H    -3.66902  -1.03412   0.82606
H    -4.03217  -1.04822  -1.64071
H    -2.16111  -0.45334  -3.17747
H     0.06572   0.15342  -2.25176
