45
Generated by autodE on: 2022-06-05. E = -1697.833185 Ha. Imaginary frequency = -329.2 cm-1
C     1.40965   1.79723   3.18269
O     1.28640   0.63075   2.34396
C     1.56656   0.75572   1.06642
O     1.99186   1.74991   0.52276
C     1.35841  -0.54633   0.32484
C     2.36151  -0.96179  -0.64648
C     3.66620  -0.41865  -0.59464
C     4.63098  -0.82378  -1.51137
C     4.31436  -1.76194  -2.49912
C     3.02491  -2.30304  -2.56435
C     2.05636  -1.91481  -1.64615
N     0.34149  -1.34670   0.59250
N    -0.83360  -1.08527   1.21479
C    -0.90011  -0.87264   2.51374
N    -1.09604  -0.74641   3.66218
C    -2.04078   0.00039   0.07456
Cl   -3.17268   0.57619   1.29564
C    -2.82101  -1.06931  -0.73519
C    -2.72683  -2.52181  -0.37772
O    -3.65126  -0.63237  -1.51024
C    -1.19542   0.90372  -0.62516
C    -0.61466   0.32993  -1.83523
C     0.35094   1.08648  -2.70956
O    -0.88062  -0.85187  -2.12795
C    -0.92321   2.24680  -0.07341
C    -0.60063   3.40589  -0.98376
O    -0.98009   2.43907   1.14133
H     0.83510   2.62531   2.75133
H     0.99796   1.50018   4.15282
H     2.46966   2.07132   3.27581
H     3.93272   0.30731   0.17173
H     5.63725  -0.40482  -1.45430
H     5.07258  -2.07129  -3.22171
H     2.77069  -3.02612  -3.34140
H     1.05007  -2.31985  -1.74317
H     0.30878  -2.21883   0.05612
H    -3.00707  -2.65362   0.67899
H    -1.71016  -2.91463  -0.50275
H    -3.42164  -3.08123  -1.01774
H     1.15999   1.53437  -2.11680
H     0.77504   0.38570  -3.43955
H    -0.16271   1.89564  -3.24894
H    -0.87155   4.33121  -0.45716
H     0.48320   3.43389  -1.17478
H    -1.12162   3.35223  -1.94806
