23
Generated by autodE on: 2022-06-19. E = -351.521383 Ha
C    -3.64644  -0.40410   0.91730
C    -2.55211   0.17732   0.37852
C    -2.64386   1.49146  -0.35415
C    -1.24680  -0.46868   0.50125
C    -0.07751   0.01133   0.00802
C     1.19185  -0.67054   0.15803
C     2.39998  -0.25941  -0.30359
C     3.63436  -1.08241  -0.06527
C     2.62826   1.01155  -1.07147
H    -3.57664  -1.35809   1.44901
H    -4.63484   0.05736   0.83985
H    -3.67731   1.86517  -0.37388
H    -2.00785   2.25656   0.12138
H    -2.29139   1.39229  -1.39429
H    -1.23323  -1.42238   1.04255
H    -0.08327   0.96205  -0.53186
H     1.15711  -1.61972   0.70642
H     4.39174  -0.50046   0.49022
H     4.10853  -1.36331  -1.02292
H     3.41882  -2.00149   0.49919
H     3.08346   0.78811  -2.05251
H     1.71455   1.59473  -1.24371
H     3.35138   1.65456  -0.53910
