47
Generated by autodE on: 2022-06-19. E = -927.701402 Ha
C     0.04704   3.47444   1.64079
O    -0.02383   2.06209   1.40012
C     0.23817   1.65373   0.15943
O     0.56625   2.41884  -0.72573
C     0.15789   0.11523   0.01677
C     1.61069  -0.37445  -0.06221
C     2.04927  -1.39475   0.79267
C     3.35410  -1.88803   0.70228
C     4.24148  -1.36886  -0.24384
C     3.81288  -0.34637  -1.09565
C     2.51033   0.15021  -1.00397
O    -0.44345  -0.44625   1.16208
C    -1.87059  -0.67868   1.00894
C    -2.60047   0.19756   2.03029
C    -2.11014  -2.14036   1.39827
C    -2.18205  -0.32996  -0.50023
C    -2.80903   1.07095  -0.64821
C    -3.18529  -1.30461  -1.13274
C    -0.75279  -0.38507  -1.17802
C    -0.33034  -1.82153  -1.54180
C    -0.66665   0.42510  -2.47527
H    -0.67781   4.00730   1.00845
H    -0.19977   3.61225   2.69971
H     1.05903   3.85028   1.43234
H     1.35908  -1.80624   1.52739
H     3.67644  -2.68473   1.37730
H     5.26089  -1.75541  -0.31554
H     4.49649   0.07185  -1.83843
H     2.19613   0.95446  -1.66759
H    -2.28208  -0.08942   3.04426
H    -3.68793   0.04637   1.96166
H    -2.38412   1.26301   1.89694
H    -3.18492  -2.36887   1.42544
H    -1.70487  -2.30637   2.40819
H    -1.62307  -2.84707   0.71635
H    -3.76704   1.11868  -0.11286
H    -2.18051   1.88680  -0.26704
H    -3.02056   1.28094  -1.70526
H    -4.16378  -1.20815  -0.63675
H    -3.33038  -1.05959  -2.19642
H    -2.88202  -2.35530  -1.06902
H    -0.27949  -2.49199  -0.67584
H    -1.03202  -2.24939  -2.27011
H     0.66241  -1.81440  -2.01201
H    -1.37965   0.00683  -3.20319
H    -0.88566   1.48902  -2.35260
H     0.33739   0.33566  -2.91547
