18
Generated by autodE on: 2022-06-19. E = -235.968071 Ha
C    -1.59257   0.58339  -1.00426
C    -0.67523   0.01063   0.04930
C    -1.44808  -0.53677   1.22526
C     0.67524  -0.01066  -0.04930
C     1.44807   0.53681  -1.22525
C     1.59258  -0.58340   1.00426
H    -2.22203   1.38179  -0.57187
H    -2.29266  -0.19112  -1.36603
H    -1.07495   1.00056  -1.87618
H    -2.07555   0.25448   1.67346
H    -0.82308  -0.95917   2.02114
H    -2.14744  -1.32436   0.89140
H     0.82304   0.95924  -2.02109
H     2.14742   1.32440  -0.89137
H     2.07555  -0.25440  -1.67351
H     2.22223  -1.38162   0.57182
H     2.29249   0.19118   1.36623
H     1.07493  -1.00080   1.87606
