29
Generated by autodE on: 2022-06-19. E = -691.649514 Ha
C     1.43911  -3.86602   0.08961
O     0.53275  -2.77719  -0.06081
C     1.03603  -1.53184   0.21922
O     2.19513  -1.39637   0.63054
C     0.08838  -0.48753   0.01830
O    -1.09610  -0.94303  -0.58093
C    -2.28839  -0.54254  -0.32403
C    -3.34972  -1.12153  -1.17245
C    -2.56945   0.40942   0.75848
C     0.38142   0.93475   0.06275
C    -0.26434   1.85673  -0.79787
C     0.06091   3.21390  -0.78196
C     1.04038   3.70386   0.08703
C     1.69124   2.80619   0.94256
C     1.36909   1.45041   0.93878
H     0.87483  -4.77118  -0.16964
H     1.80512  -3.94243   1.12533
H     2.30492  -3.76579  -0.58384
H    -3.82195  -0.31319  -1.75959
H    -2.94390  -1.88108  -1.85210
H    -4.14262  -1.54893  -0.53694
H    -2.35304   1.44590   0.43803
H    -1.89506   0.20601   1.60868
H    -3.62412   0.34695   1.05377
H    -1.01109   1.50477  -1.51257
H    -0.45565   3.89316  -1.46514
H     1.29124   4.76686   0.09986
H     2.45664   3.16930   1.63376
H     1.88237   0.77026   1.61636
