47
Generated by autodE on: 2022-06-19. E = -927.610273 Ha. Imaginary frequency = -305.5 cm-1
C    -0.00979   3.69794   1.72043
O     0.08682   2.27417   1.68534
C     0.66671   1.72966   0.58702
O     1.28837   2.43163  -0.21453
C     0.52812   0.29373   0.51232
C     1.64330  -0.57227   0.14216
C     1.59526  -1.95874   0.43000
C     2.63889  -2.81083   0.07241
C     3.76876  -2.32056  -0.59226
C     3.83310  -0.95392  -0.88380
C     2.79611  -0.09235  -0.52532
O    -0.42635  -0.36028   1.24060
C    -1.73996  -0.21361   1.26965
C    -2.40395   1.12048   1.36019
C    -2.39904  -1.34177   1.99534
C    -2.16733  -0.68852  -1.02700
C    -3.60356  -0.20701  -1.06403
C    -2.04766  -2.19887  -0.99181
C    -1.16202   0.04939  -1.65068
C    -0.04182  -0.63570  -2.38233
C    -1.34349   1.48782  -2.04959
H    -0.57177   4.07514   0.85212
H    -0.54502   3.94578   2.64533
H     0.98750   4.16184   1.73132
H     0.72472  -2.36676   0.94234
H     2.56477  -3.87459   0.31382
H     4.58224  -2.99100  -0.87859
H     4.70541  -0.54662  -1.40210
H     2.86699   0.96505  -0.77023
H    -2.16843   1.55866   2.34468
H    -3.49020   0.98859   1.30381
H    -2.07856   1.83008   0.59477
H    -3.43231  -1.47791   1.64756
H    -2.45200  -1.10078   3.07327
H    -1.83879  -2.27769   1.87624
H    -4.20284  -0.62415  -0.24074
H    -3.70925   0.88344  -1.05042
H    -4.06604  -0.56652  -2.00239
H    -2.84376  -2.64688  -0.38121
H    -2.14989  -2.61720  -2.01012
H    -1.08170  -2.53957  -0.59560
H     0.29740  -1.56469  -1.91157
H    -0.40620  -0.89976  -3.39520
H     0.82870   0.02195  -2.51252
H    -1.69634   1.53667  -3.09778
H    -2.07236   2.03118  -1.43695
H    -0.38658   2.02831  -2.00986
