28
Generated by autodE on: 2022-06-18. E = -708.440780 Ha
N     0.99764  -0.13213  -3.60943
C     1.02550  -0.06986  -2.43859
C     1.02545   0.00399  -1.04036
O    -0.16436  -0.03413  -0.39847
C    -1.35800  -0.14028  -0.88121
C    -2.48021  -0.14957   0.00197
C    -3.77475  -0.26556  -0.55844
C    -4.89684  -0.27730   0.26504
C    -4.75119  -0.17413   1.65398
C    -3.47178  -0.05849   2.21881
C    -2.34294  -0.04543   1.40845
C     2.21063   0.11674  -0.21929
C     3.49170   0.15854  -0.81740
C     4.63900   0.26497  -0.03409
C     4.54689   0.33326   1.36145
C     3.28292   0.29327   1.96283
C     2.12740   0.18657   1.19081
H    -1.47749  -0.21856  -1.96685
H    -3.88243  -0.34530  -1.64264
H    -5.89221  -0.36710  -0.17539
H    -5.63301  -0.18314   2.29838
H    -3.36033   0.02243   3.30236
H    -1.34796   0.04541   1.84746
H     3.58137   0.10636  -1.90511
H     5.61733   0.29482  -0.52018
H     5.44833   0.41611   1.97239
H     3.19439   0.34548   3.05094
H     1.15089   0.15583   1.67620
