40
Generated by autodE on: 2022-06-18. E = -865.732206 Ha. Imaginary frequency = -290.5 cm-1
C    -0.58834  -2.30899   1.68472
C     0.19370  -2.11268   0.43206
C    -0.33960  -2.21499  -0.83047
C     0.53630  -2.33192  -2.04955
C    -1.18208  -0.14040  -1.16593
C    -2.34693   0.06398  -0.30144
C    -2.48520   1.20489   0.51248
C    -3.64104   1.39773   1.27095
C    -4.67909   0.46350   1.22686
C    -4.56698  -0.65697   0.39316
C    -3.41924  -0.85059  -0.37068
O    -0.03161   0.49683  -1.02147
C     0.79080   0.59407   0.04617
C     0.32942   0.73600   1.36207
N     0.03085   0.84108   2.49183
C     2.20118   0.77754  -0.27188
C     3.15915   0.93811   0.75437
C     4.51214   1.07949   0.45021
C     4.94871   1.07307  -0.87979
C     4.00702   0.92179  -1.90433
C     2.65176   0.77460  -1.61111
H    -0.47005  -1.45641   2.37689
H    -1.65993  -2.44966   1.48134
H    -0.21720  -3.19651   2.22851
H     1.27818  -2.00550   0.53254
H    -1.35805  -2.60520  -0.91839
H     0.06136  -1.91613  -2.95106
H     1.50054  -1.82477  -1.90029
H     0.74759  -3.39522  -2.25919
H    -1.38324  -0.34072  -2.22215
H    -1.70448   1.96419   0.52647
H    -3.73107   2.28982   1.89492
H    -5.57942   0.61339   1.82698
H    -5.38214  -1.38210   0.33794
H    -3.34419  -1.72172  -1.02430
H     2.83689   0.94495   1.79766
H     5.23357   1.19758   1.26257
H     6.00937   1.18566  -1.11478
H     4.33137   0.91780  -2.94804
H     1.93029   0.65790  -2.41991
