44
Generated by autodE on: 2022-05-30. E = -1062.635068 Ha
C    -2.37200   2.39664  -1.40999
C    -0.91327   2.10506  -1.23690
O    -0.08037   2.40947  -2.07537
C    -0.45274   1.40989   0.05911
C     0.61929   2.31783   0.67526
O    -1.57024   1.30881   0.93364
C    -1.55114   0.11729   1.73071
C    -3.00836  -0.22942   2.01613
C    -0.81213   0.35267   3.05242
C    -0.79875  -0.91795   0.84706
F    -0.04176  -1.76313   1.64654
C    -1.69782  -1.80984  -0.06287
C    -0.78374  -2.81727  -0.73967
C    -0.12088  -2.11716  -1.66692
C    -0.62999  -0.68953  -1.53297
O    -1.98907  -0.89094  -1.11796
C     0.02118  -0.08244  -0.21981
C     1.53305  -0.20969  -0.23762
C     2.30076  -0.41809   0.91938
C     3.69653  -0.46383   0.85689
C     4.35797  -0.29227  -0.36120
C     3.60742  -0.06861  -1.51894
C     2.21334  -0.02711  -1.45534
H    -2.72972   3.02706  -0.58135
H    -2.94048   1.45627  -1.35908
H    -2.53829   2.89819  -2.37205
H     0.15272   3.28169   0.92996
H     1.04093   1.88363   1.58783
H     1.43285   2.49778  -0.03742
H    -3.45045   0.55245   2.65141
H    -3.08123  -1.18810   2.54997
H    -3.59370  -0.28820   1.08884
H     0.25991   0.53367   2.90873
H    -1.25061   1.23265   3.54514
H    -0.92552  -0.51485   3.71727
H    -2.60447  -2.19455   0.41058
H    -0.66567  -3.85995  -0.44754
H     0.67645  -2.44231  -2.33307
H    -0.58176  -0.06067  -2.42457
H     1.81336  -0.54524   1.88270
H     4.26846  -0.63128   1.77282
H     5.44897  -0.32768  -0.40808
H     4.10765   0.07738  -2.47934
H     1.65397   0.17035  -2.37003
