21
Generated by autodE on: 2022-05-30. E = -424.561380 Ha
C     1.97117   1.44451   0.30145
C     1.77624   0.04129  -0.26041
O     2.77910  -0.59571  -0.68353
C     0.47129  -0.50172  -0.28535
C     0.14236  -1.85520  -0.82308
O    -0.46864   0.35745   0.21346
C    -1.73209   0.33983   0.41157
C    -2.29054   1.58031   1.00772
C    -2.61359  -0.82027   0.10683
H     1.40190   2.19381  -0.27141
H     3.04006   1.69269   0.25109
H     1.63509   1.51520   1.34801
H    -0.50088  -1.82780  -1.71814
H     1.09733  -2.31102  -1.11710
H    -0.33127  -2.52111  -0.08476
H    -3.05872   2.00800   0.33907
H    -2.80335   1.34488   1.95736
H    -1.50406   2.32440   1.18789
H    -3.65556  -0.54628   0.31449
H    -2.35146  -1.68737   0.73404
H    -2.53285  -1.12918  -0.94508
