44
Generated by autodE on: 2022-05-30. E = -1062.530373 Ha. Imaginary frequency = -206.9 cm-1
C    -1.96876   2.14739  -1.75758
C    -0.62755   2.32156  -1.07273
O     0.32809   2.82851  -1.70747
C    -0.46834   1.92770   0.29122
C     0.69802   2.37970   1.10328
O    -1.56487   1.34694   0.82566
C    -1.72672   0.55183   1.84466
C    -3.13153   0.08134   2.00825
C    -0.82255   0.51757   3.03221
C    -0.58138  -1.40252   0.69432
F    -0.08868  -1.94633   1.82492
C    -1.77683  -2.06806  -0.00248
C    -1.20372  -3.17008  -0.92754
C    -0.55961  -2.50521  -1.89307
C    -0.73759  -1.01170  -1.53630
O    -2.05912  -1.04106  -0.96041
C     0.14573  -0.77493  -0.28510
C     1.55438  -0.43263  -0.34483
C     2.39874  -0.56823   0.78194
C     3.75159  -0.23852   0.70404
C     4.29830   0.23684  -0.49282
C     3.47522   0.37740  -1.61568
C     2.12181   0.04923  -1.54576
H    -2.61309   3.00838  -1.50800
H    -2.49705   1.23710  -1.45433
H    -1.81132   2.14604  -2.84516
H     0.37131   2.86100   2.03777
H     1.41217   1.58203   1.36111
H     1.24693   3.11864   0.50468
H    -3.67048   0.75114   2.70497
H    -3.14998  -0.92367   2.45323
H    -3.66249   0.07380   1.04806
H     0.24016   0.55039   2.78164
H    -1.05766   1.37462   3.68975
H    -1.02377  -0.39819   3.60192
H    -2.64286  -2.32396   0.61541
H    -1.29517  -4.24227  -0.75732
H     0.02991  -2.88323  -2.72752
H    -0.66839  -0.28762  -2.35224
H     1.98709  -0.93921   1.71990
H     4.38457  -0.35260   1.58743
H     5.35788   0.49632  -0.55038
H     3.89086   0.74978  -2.55514
H     1.49523   0.17734  -2.42864
