49
Generated by autodE on: 2022-06-21. E = -983.040292 Ha
C    -1.60917  -2.42611   1.58382
C    -0.67380  -2.02646   0.70950
C     0.21719  -3.01340   0.00167
C    -0.48083  -0.54931   0.44832
C     0.97434  -0.09149   0.21775
C     1.79163  -0.18068   1.47198
C     2.99102  -0.77193   1.62310
C     3.75586  -1.44942   0.51905
C     3.67808  -0.78587   2.96234
C     0.79271   1.32934  -0.40368
C     1.02425   2.43000   0.63786
C     2.42134   2.97151   0.72787
O     0.12300   2.83770   1.35349
N    -0.55309   1.34137  -0.93499
C    -0.78375   2.16659  -2.09893
C    -1.23931   0.07583  -0.79501
C    -2.69795   0.26162  -0.33733
C    -3.06559   1.59238   0.25846
O    -3.50001  -0.65531  -0.38876
C    -1.04056  -0.82255  -2.04538
C    -2.03808  -1.86887  -2.44911
O    -0.02140  -0.65281  -2.69739
H    -2.22941  -1.70510   2.12370
H    -1.78213  -3.48738   1.78611
H     1.25327  -2.92869   0.36819
H    -0.12252  -4.04398   0.17679
H     0.26153  -2.84484  -1.08469
H    -0.86897   0.00156   1.31816
H     1.41794  -0.71079  -0.56802
H     1.33936   0.28915   2.35367
H     4.74265  -0.97068   0.39292
H     3.24113  -1.42620  -0.44995
H     3.95526  -2.50314   0.78015
H     4.66389  -0.29215   2.89984
H     3.87208  -1.82199   3.29146
H     3.08417  -0.27971   3.73760
H     1.54750   1.46391  -1.19963
H     2.59283   3.61744  -0.15124
H     2.55421   3.56062   1.64475
H     3.16070   2.15834   0.67639
H    -0.12903   1.90719  -2.95371
H    -0.61282   3.22774  -1.85153
H    -1.82623   2.06905  -2.43634
H    -2.27523   1.96175   0.92463
H    -4.02591   1.49935   0.78254
H    -3.16481   2.33758  -0.54753
H    -1.63286  -2.43169  -3.30057
H    -2.27385  -2.54108  -1.61346
H    -2.98419  -1.38546  -2.73679
