23
Generated by autodE on: 2022-06-21. E = -351.521385 Ha
C     3.54551  -1.04125   0.80156
C     2.55539  -0.29117   0.26973
C     2.85688   0.93978  -0.54628
C     1.15951  -0.66895   0.48150
C     0.07839  -0.00312   0.00338
C    -1.28726  -0.42229   0.24414
C    -2.41808   0.18597  -0.19505
C    -3.77190  -0.37417   0.13842
C    -2.44035   1.43552  -1.02887
H     3.32304  -1.93463   1.39325
H     4.59822  -0.78181   0.65879
H     2.39768   1.83636  -0.09766
H     3.93990   1.10945  -0.62574
H     2.44433   0.85196  -1.56517
H     0.99366  -1.57194   1.08137
H     0.23534   0.89783  -0.59597
H    -1.40387  -1.33077   0.84747
H    -4.33554  -0.60968  -0.78229
H    -4.37927   0.36926   0.68547
H    -3.70604  -1.28672   0.74890
H    -3.01596   2.22635  -0.51616
H    -1.44265   1.83225  -1.25671
H    -2.96258   1.24827  -1.98383
