26
Generated by autodE on: 2022-07-27. E = -631.477501 Ha
C     3.31769   1.50902   0.78923
C     1.96985   0.84931   0.66691
O     1.41293   0.32232   1.62711
C     1.42890   0.83885  -0.69963
N     0.39275   0.11997  -1.11079
C     0.34974  -0.17440  -2.56525
C    -0.62978  -0.29222  -0.27901
C    -1.10412   0.60403   0.78281
C    -0.91005   2.10517   0.66437
O    -1.77727   0.18412   1.72626
C    -1.22577  -1.60624  -0.53736
C    -2.48116  -2.02791   0.18724
O    -0.70484  -2.38804  -1.34295
H     3.69123   1.40631   1.81570
H     3.21637   2.57792   0.53452
H     4.03764   1.07528   0.07743
H     2.03704   1.29064  -1.48342
H     0.97955  -1.04258  -2.78726
H    -0.68096  -0.36587  -2.87330
H     0.73817   0.70736  -3.09003
H    -1.90617   2.55433   0.79723
H    -0.48049   2.45429  -0.28246
H    -0.28050   2.45853   1.49465
H    -2.87828  -2.91756  -0.32045
H    -3.23704  -1.23131   0.21500
H    -2.24644  -2.28298   1.23131
