49
Generated by autodE on: 2022-06-21. E = -982.971417 Ha. Imaginary frequency = -314.0 cm-1
C    -1.18540  -3.45640  -0.41613
C    -0.21696  -2.54306  -0.63272
C     0.79444  -2.74358  -1.73382
C    -0.09025  -1.36847   0.25092
C     1.17059  -0.72622   0.40694
C     1.52744  -0.20700   1.72236
C     2.76967  -0.09561   2.24907
C     4.03231  -0.49855   1.54072
C     2.96793   0.44980   3.63563
C     0.87938   1.05733  -1.06623
C     1.16254   1.98063   0.01369
C     2.60735   2.38462   0.15966
O     0.30375   2.44960   0.76970
N    -0.36600   0.72380  -1.54772
C    -0.42948   0.53328  -3.00981
C    -1.32322   0.21586  -0.68650
C    -1.77101   1.07350   0.50509
C    -2.39867   2.39057   0.11919
O    -1.84622   0.63680   1.64062
C    -2.43148  -0.63294  -1.20764
C    -3.56317  -0.96174  -0.26371
O    -2.40841  -1.14220  -2.32459
H    -1.90372  -3.34305   0.40022
H    -1.27792  -4.34498  -1.04680
H     1.76857  -3.05153  -1.31753
H     0.46501  -3.52494  -2.43297
H     0.97821  -1.82210  -2.30358
H    -0.73640  -1.37610   1.12980
H     1.98662  -1.06235  -0.23109
H     0.68408   0.10464   2.34614
H     4.74177   0.34590   1.50749
H     3.86762  -0.84766   0.51311
H     4.54160  -1.30531   2.09792
H     3.60686   1.35103   3.61258
H     3.49233  -0.28036   4.27810
H     2.01454   0.71498   4.11595
H     1.66431   0.99426  -1.82294
H     2.76281   3.30685  -0.42758
H     2.82459   2.60579   1.21287
H     3.29825   1.62201  -0.22120
H    -0.20404  -0.49597  -3.31296
H     0.29866   1.21663  -3.46163
H    -1.42688   0.79584  -3.37535
H    -2.44213   3.05274   0.99384
H    -3.42950   2.17957  -0.21631
H    -1.86842   2.87594  -0.70776
H    -4.19801  -1.72055  -0.73724
H    -3.18772  -1.33371   0.69861
H    -4.16746  -0.06541  -0.05243
