10
Generated by autodE on: 2022-06-16. E = -301.458957 Ha
C    -2.40660  -0.44756  -0.14906
C    -1.37715  -0.00972  -1.08764
O    -0.16593   0.15440  -0.76529
N     0.20006  -0.10602   0.58593
C     1.49368   0.13452   0.67663
N     2.63665   0.31211   0.89786
H    -2.11093  -1.42015   0.28633
H    -3.38276  -0.52018  -0.64112
H    -2.44410   0.25730   0.70223
H    -1.55977   0.21433  -2.14511
