10
Generated by autodE on: 2022-07-27. E = -301.453763 Ha
C     1.24232  -2.27328  -0.21174
C     0.58553  -0.99274   0.05757
O    -0.02021  -0.40216  -0.87764
N    -0.71478   0.85547  -0.77552
C    -0.64109   1.34022   0.44448
N    -0.62956   1.85449   1.50595
H     1.12245  -2.58305  -1.25738
H     0.82373  -3.03251   0.47281
H     2.31148  -2.18144   0.05027
H     0.60301  -0.53000   1.05587
