12
Generated by autodE on: 2022-06-16. E = -381.636101 Ha
O    -0.43215   2.63012  -0.07365
C    -0.23349   1.42000  -0.03931
C     1.14279   0.86942   0.00639
C     1.36087  -0.45671   0.04291
C     0.23348  -1.41999   0.03974
O     0.43215  -2.63012   0.07344
C    -1.14279  -0.86942  -0.00643
C    -1.36087   0.45671  -0.04296
H     1.95697   1.59798   0.00830
H     2.36510  -0.88551   0.07693
H    -1.95697  -1.59799  -0.00861
H    -2.36509   0.88551  -0.07725
