39
Generated by autodE on: 2022-06-19. E = -1030.427263 Ha
C     3.66821   1.53881   1.05507
N     2.39878   1.27290   0.40627
C     2.28656   0.31081  -0.50946
O     3.21064  -0.29780  -1.04882
C     0.83230  -0.00480  -0.96217
C     0.82985   0.16496  -2.43313
N     0.82476   0.33228  -3.58039
O    -0.10731   0.89755  -0.41161
C    -1.16573   0.24284   0.27670
C    -2.48902   0.98148  -0.04863
C    -2.39220   2.21066  -0.89594
O    -3.53838   0.55491   0.39195
C    -0.90808   0.44340   1.80643
C    -1.86189  -0.10140   2.82756
O     0.05666   1.10289   2.14410
C    -1.17247  -1.23319  -0.29340
C    -1.75449  -2.30688   0.62752
C    -1.94280  -1.28079  -1.62743
C     0.35661  -1.43492  -0.58509
C     1.07172  -2.08535   0.58065
O     1.69985  -1.50298   1.43645
H     4.47242   1.58374   0.30858
H     3.61302   2.50135   1.57915
H     3.91618   0.74949   1.78518
H     1.53627   1.51236   0.90251
H    -3.39230   2.64250  -1.02718
H    -1.94849   1.96117  -1.87195
H    -1.71586   2.93732  -0.41896
H    -2.83252  -0.38289   2.41141
H    -1.39463  -0.98831   3.28468
H    -1.98382   0.65115   3.62012
H    -2.81500  -2.09859   0.82018
H    -1.23741  -2.39199   1.59107
H    -1.68737  -3.28193   0.12252
H    -1.74007  -2.23991  -2.12436
H    -1.65633  -0.47317  -2.31460
H    -3.02408  -1.21201  -1.45092
H     0.46857  -2.12369  -1.43256
H     0.95803  -3.19201   0.60954
