14
Generated by autodE on: 2022-06-19. E = -270.683220 Ha
C    -1.49020  -1.37021   1.19273
C    -0.65827  -0.44595   0.36084
C    -1.39966   0.39042  -0.64251
C     0.69143  -0.39291   0.53048
C     1.61054   0.45746  -0.21093
O     1.32005   1.25198  -1.10240
H    -2.25229  -0.79353   1.74603
H    -2.05030  -2.06139   0.53842
H    -0.89248  -1.95440   1.90589
H    -2.48026   0.19490  -0.60108
H    -1.04008   0.18904  -1.66420
H    -1.22327   1.46357  -0.46797
H     1.15470  -1.03568   1.28475
H     2.67963   0.34452   0.09281
