25
Generated by autodE on: 2022-07-27. E = -759.662229 Ha
C     3.70096  -0.25037   2.00131
N     2.41421  -0.15922   1.33831
C     2.27233  -0.51185   0.05271
O     3.18960  -0.92655  -0.66349
C     0.90405  -0.37549  -0.53148
C     0.71652  -0.84341  -1.85585
N     0.65082  -1.35285  -2.90224
O    -0.04207  -0.00044   0.26816
C    -1.32962   0.30943   0.18950
C    -1.89379   0.71956  -1.09952
C    -3.35769   1.02434  -1.21612
O    -1.12413   0.86848  -2.05092
C    -1.96521   0.41834   1.51349
C    -1.09656   0.20224   2.72714
O    -3.16409   0.66408   1.61143
H     4.43767   0.42232   1.53390
H     3.57578   0.03368   3.05258
H     4.09730  -1.27613   1.95117
H     1.61428   0.19407   1.85292
H    -3.63199   1.86061  -0.55628
H    -3.95924   0.15950  -0.89968
H    -3.57479   1.28158  -2.26109
H    -0.57944  -0.76773   2.68093
H    -1.72619   0.25005   3.62404
H    -0.32339   0.98660   2.78105
