39
Generated by autodE on: 2022-06-19. E = -1030.347656 Ha. Imaginary frequency = -292.3 cm-1
C     3.60570   0.41328   2.02880
N     2.36914   0.65363   1.30872
C     2.32354   0.56389  -0.02616
O     3.30994   0.38706  -0.74472
C     0.94957   0.64072  -0.65292
C     0.98502   0.85869  -2.06956
N     1.24792   0.99292  -3.19580
O    -0.00488   0.99178   0.17561
C    -1.32850   0.74595   0.21045
C    -2.12479   0.95060  -1.01789
C    -3.62494   1.00916  -0.96326
O    -1.52813   1.12035  -2.07743
C    -1.89154   0.85739   1.57167
C    -1.01107   1.35703   2.68551
O    -3.05143   0.51089   1.77718
C    -0.92993  -1.70458   0.10119
C    -0.62432  -1.96629   1.54439
C    -2.30982  -2.07845  -0.35171
C     0.09797  -1.60055  -0.84925
C     1.46911  -2.08758  -0.66095
O     1.97870  -2.46514   0.38601
H     4.40199   1.07955   1.66625
H     3.43672   0.60467   3.09499
H     3.94020  -0.62853   1.89719
H     1.49917   0.71408   1.82601
H    -3.98821   1.24657  -1.97160
H    -4.05859   0.05918  -0.62581
H    -3.95390   1.77995  -0.25075
H    -0.33061   0.55118   3.00568
H    -1.64664   1.62440   3.53919
H    -0.39906   2.21544   2.37640
H    -1.50712  -1.79135   2.17400
H    -0.34517  -3.03033   1.64787
H     0.22623  -1.37963   1.90738
H    -3.07841  -1.66446   0.31592
H    -2.38880  -3.17871  -0.28285
H    -2.50836  -1.79123  -1.39285
H    -0.19952  -1.51286  -1.89717
H     2.05584  -2.11128  -1.60747
