35
Generated by autodE on: 2022-06-17. E = -783.524539 Ha
C     0.61014   2.56802  -0.15969
C     0.02918   1.35373  -0.84003
O    -0.38808   1.40955  -1.98205
C    -0.02248   0.03719  -0.00861
C     1.41791  -0.39666   0.21256
C     1.90070  -0.73280   1.48338
C     3.22965  -1.13571   1.65078
C     4.09005  -1.20663   0.55212
C     3.61356  -0.87188  -0.71980
C     2.28780  -0.46814  -0.88762
N    -0.72421   0.26184   1.27378
N    -2.12069   0.26673   0.95004
C    -2.65973   1.43672   0.58890
N    -3.16689   2.47239   0.39298
C    -2.28763  -0.92244   0.07348
C    -3.51482  -0.84395  -0.80925
C    -0.93694  -1.02964  -0.69247
C    -0.40649  -2.45758  -0.67510
H     1.16809   3.16186  -0.89694
H    -0.22505   3.18985   0.20460
H     1.25603   2.31777   0.69211
H     1.23240  -0.68473   2.34287
H     3.59226  -1.39551   2.64827
H     5.12812  -1.52010   0.68524
H     4.27685  -0.92451  -1.58632
H     1.92455  -0.21293  -1.88569
H    -0.47318   1.12311   1.76145
H    -2.37255  -1.77757   0.75982
H    -3.59272  -1.77204  -1.39429
H    -4.43353  -0.73832  -0.21232
H    -3.44741  -0.00046  -1.51348
H    -1.08928  -0.70970  -1.73071
H    -1.17283  -3.14240  -1.07213
H     0.49383  -2.56526  -1.29575
H    -0.15759  -2.78040   0.34774
