12
Generated by autodE on: 2022-06-17. E = -157.300301 Ha
C    -1.96059   0.11638   0.02442
C    -0.51285   0.12795   0.41148
C     0.51284  -0.12801  -0.41147
C     1.96059  -0.11635  -0.02443
H    -2.52947  -0.61633   0.62408
H    -2.09692  -0.13250  -1.03978
H    -2.43277   1.09740   0.21080
H    -0.29355   0.36804   1.46136
H     0.29354  -0.36814  -1.46133
H     2.52922   0.61701  -0.62355
H     2.09689   0.13181   1.03995
H     2.43308  -1.09707  -0.21158
