23
Generated by autodE on: 2022-06-17. E = -626.187784 Ha
C    -2.04530  -2.19952  -0.78622
C    -2.28174  -0.78248  -0.36722
O    -3.40185  -0.28720  -0.28811
C    -1.08849   0.06046  -0.04992
N    -1.41294   1.30007   0.25503
N    -0.74327   2.36430   0.64050
C     0.54587   2.27942   0.90904
N     1.67163   2.41007   1.21738
C     0.30526  -0.40921  -0.14024
C     0.79800  -1.37144   0.75610
C     2.12014  -1.80538   0.65521
C     2.95396  -1.29101  -0.34350
C     2.46384  -0.34074  -1.24441
C     1.14435   0.10146  -1.14566
H    -1.32260  -2.23946  -1.61595
H    -2.99636  -2.65863  -1.08321
H    -1.60421  -2.76767   0.04851
H    -2.43044   1.46580   0.18616
H     0.14624  -1.76474   1.53865
H     2.50256  -2.54583   1.36113
H     3.98865  -1.63295  -0.41993
H     3.11245   0.06041  -2.02618
H     0.75825   0.84742  -1.84330
