35
Generated by autodE on: 2022-06-17. E = -783.465889 Ha. Imaginary frequency = -357.5 cm-1
C    -0.29172   2.83657  -0.64996
C    -0.12252   1.42106  -1.13095
O    -0.06553   1.14479  -2.31495
C     0.11804   0.37607  -0.04562
C     1.52169  -0.07963   0.09751
C     2.10575  -0.28642   1.36211
C     3.41157  -0.76507   1.47224
C     4.16178  -1.04385   0.32602
C     3.59520  -0.83160  -0.93454
C     2.29100  -0.35165  -1.05052
N    -0.63394   0.50168   1.07338
N    -1.95545   0.68017   0.84583
C    -2.74841   0.60841   1.89404
N    -3.55924   0.55373   2.74307
C    -2.31390  -0.96010  -0.63680
C    -3.16243  -0.20728  -1.61177
C    -0.99724  -1.34348  -0.88292
C    -0.38939  -2.48194  -0.10505
H    -0.43222   3.50181  -1.51134
H    -1.14206   2.91838   0.03977
H     0.61507   3.12907  -0.09451
H     1.55661  -0.05945   2.27722
H     3.84581  -0.91454   2.46329
H     5.18356  -1.41944   0.41506
H     4.17172  -1.04333  -1.83786
H     1.85702  -0.19925  -2.03796
H    -0.37925  -0.08903   1.86995
H    -2.85299  -1.49252   0.15377
H    -3.72450  -0.92036  -2.24216
H    -3.90382   0.42330  -1.09798
H    -2.56037   0.42379  -2.28045
H    -0.59152  -1.13200  -1.87562
H    -0.51509  -2.33617   0.98170
H     0.68375  -2.59639  -0.31065
H    -0.87871  -3.43808  -0.35953
