58
Generated by autodE on: 2022-06-11. E = -1400.446228 Ha
C     3.47486  -1.77198   2.43612
O     2.80959  -0.93902   1.47447
C     1.49941  -1.11907   1.33091
O     0.89273  -1.98182   1.93945
C     0.88109  -0.32608   0.15998
C     1.76983   0.81950  -0.33516
C     2.37244   1.72316   0.55406
C     3.07212   2.83500   0.08037
C     3.18678   3.06706  -1.29318
C     2.60106   2.16748  -2.18727
C     1.90159   1.05650  -1.71079
N     0.61885  -1.30188  -0.89875
C     1.72307  -2.13996  -1.33042
C    -0.59273  -2.05251  -0.60429
C    -1.44240  -1.17968   0.35141
C    -1.68785  -1.87242   1.72766
C    -1.80263  -3.37107   1.80615
O    -1.89254  -1.18325   2.70799
C    -2.91515  -0.95956  -0.11486
C    -3.55317  -1.95643  -1.04590
O    -3.55704  -0.02569   0.32319
C    -0.60181   0.16641   0.50623
C    -0.64694   0.80992   1.92538
C    -1.84426   1.61244   2.37384
O     0.34608   0.76711   2.63444
C    -0.96674   1.22879  -0.54441
C    -0.68661   2.58473  -0.30599
C    -0.87082   3.55201  -1.29513
C    -1.33813   3.18646  -2.55968
C    -1.61051   1.84181  -2.81831
C    -1.42069   0.87906  -1.82410
H     3.05581  -1.60605   3.43875
H     3.36812  -2.83180   2.16461
H     4.52978  -1.47616   2.41045
H     2.27750   1.57242   1.62667
H     3.52547   3.52780   0.79349
H     3.72922   3.94063  -1.66269
H     2.67938   2.33312  -3.26450
H     1.42409   0.37759  -2.41432
H     1.99749  -2.91416  -0.58412
H     2.61231  -1.53140  -1.54031
H     1.44017  -2.66225  -2.25750
H    -1.11141  -2.28593  -1.54485
H    -0.35549  -3.01892  -0.13246
H    -2.35939  -3.62869   2.71639
H    -2.28841  -3.81191   0.92629
H    -0.79202  -3.79804   1.87891
H    -3.22425  -1.75686  -2.07839
H    -4.64265  -1.83448  -0.99675
H    -3.27198  -2.99188  -0.81330
H    -2.06198   1.34051   3.41483
H    -2.72303   1.44920   1.74633
H    -1.57513   2.67942   2.36369
H    -0.27250   2.90458   0.64845
H    -0.63391   4.59533  -1.07478
H    -1.48006   3.94026  -3.33749
H    -1.96399   1.53018  -3.80386
H    -1.60301  -0.15955  -2.08665
