31
Generated by autodE on: 2022-06-11. E = -767.948252 Ha
C    -3.47522   0.64663  -1.45722
C    -2.08236   0.09644  -1.55434
O    -1.70771  -0.51600  -2.54916
C    -1.13122   0.31350  -0.42088
C    -1.57902   1.13265   0.76262
C    -0.83851   2.40900   1.04670
O    -2.56559   0.79929   1.40182
C     0.10681  -0.24100  -0.48408
C     0.58117  -1.01380  -1.70190
C     0.30402  -2.48871  -1.70679
O     1.30872  -0.46216  -2.51189
C     1.09101  -0.18554   0.61895
C     2.44166   0.11664   0.35924
C     3.35754   0.19643   1.40790
C     2.94762  -0.04814   2.72321
C     1.61431  -0.37593   2.98636
C     0.68978  -0.44465   1.94359
H    -4.00994   0.46017  -2.39672
H    -3.44479   1.72790  -1.24635
H    -4.00485   0.17413  -0.61662
H    -1.22306   3.16188   0.33497
H     0.24149   2.32111   0.87263
H    -1.04714   2.75143   2.06913
H    -0.71515  -2.71272  -1.36471
H     1.00720  -2.95670  -0.99552
H     0.48308  -2.90320  -2.70822
H     2.76187   0.31321  -0.66440
H     4.39859   0.45071   1.19682
H     3.66926   0.00961   3.54124
H     1.29139  -0.58461   4.00867
H    -0.34302  -0.72614   2.15252
