58
Generated by autodE on: 2022-06-11. E = -1400.391426 Ha. Imaginary frequency = -417.6 cm-1
C     3.56013  -0.35934   2.82980
O     3.04290  -0.18060   1.51073
C     2.07474  -1.03480   1.12438
O     1.76185  -1.98812   1.82871
C     1.57020  -0.71800  -0.22532
C     2.28965   0.33467  -0.98876
C     2.25841   1.66108  -0.52260
C     2.91163   2.68041  -1.21471
C     3.63339   2.39158  -2.37682
C     3.71182   1.06975  -2.82669
C     3.04990   0.05057  -2.13933
N     0.75721  -1.61188  -0.87478
C     0.53565  -1.54651  -2.33268
C    -0.10270  -2.41777  -0.18456
C    -1.45826  -1.15732   0.63680
C    -1.64214  -2.02844   1.85932
C    -2.55222  -3.22130   1.76302
O    -1.02496  -1.79173   2.88841
C    -2.66588  -1.24772  -0.31031
C    -3.82472  -0.35080   0.04594
O    -2.74595  -2.04601  -1.22660
C    -0.85403   0.12501   0.87760
C    -0.57894   0.56534   2.30300
C    -1.79668   0.89304   3.14257
O     0.53676   0.87101   2.69916
C    -0.92354   1.23741  -0.07713
C    -0.69040   2.57661   0.33010
C    -0.73955   3.63726  -0.57259
C    -1.01724   3.41274  -1.92382
C    -1.26146   2.10274  -2.34951
C    -1.22393   1.04327  -1.44676
H     2.75769  -0.26775   3.57553
H     4.04363  -1.34198   2.93318
H     4.29907   0.43841   2.97275
H     1.71917   1.88606   0.39310
H     2.85532   3.70553  -0.84108
H     4.14499   3.18904  -2.92088
H     4.29699   0.82633  -3.71664
H     3.14357  -0.97678  -2.49274
H    -0.48541  -1.88133  -2.54066
H     1.24029  -2.21934  -2.84165
H     0.66921  -0.53312  -2.71445
H    -0.69151  -3.08574  -0.80893
H     0.29155  -2.82276   0.74096
H    -2.44537  -3.83501   2.66599
H    -3.59826  -2.88477   1.67808
H    -2.33324  -3.81959   0.86716
H    -4.24276  -0.69166   1.00808
H    -3.50437   0.68916   0.18892
H    -4.59956  -0.41454  -0.72889
H    -2.06560   1.93820   2.90987
H    -1.54699   0.83376   4.21106
H    -2.66818   0.27044   2.91051
H    -0.44826   2.80071   1.36836
H    -0.54951   4.65122  -0.21253
H    -1.04549   4.24322  -2.63245
H    -1.48405   1.89855  -3.39964
H    -1.42013   0.04765  -1.83050
