62
Generated by autodE on: 2022-06-11. E = -2264.125454 Ha
C    -3.59969  -2.99434  -4.27354
N    -2.63887  -2.22746  -3.50587
C    -2.05104  -1.11197  -3.96486
O    -2.24256  -0.68100  -5.10779
C    -1.09468  -0.34941  -2.99046
C    -0.60748  -1.31788  -1.89345
C    -1.07126  -1.26158  -0.57172
C    -0.62772  -2.18144   0.38410
C     0.28722  -3.17701   0.03675
C     0.75154  -3.24767  -1.28083
C     0.30572  -2.33085  -2.23401
C     0.10598   0.09687  -3.88831
C    -0.00139   1.44841  -4.61641
C     0.86409   2.55608  -4.00769
C     0.34068   3.32430  -2.79097
C    -0.13313   2.53094  -1.56550
Cl    1.11340   1.30396  -1.05539
Cl   -0.10644   3.73227  -0.15479
C    -1.52264   1.92845  -1.72875
C    -1.90154   0.80000  -2.36992
C    -3.40948   0.65415  -2.29095
C    -4.22204   0.66307  -3.60454
C    -3.99171   1.79073  -4.57753
O    -5.13649  -0.13120  -3.75299
N    -3.86954   1.84556  -1.61414
C    -5.06225   1.72341  -0.80335
C    -2.74687   2.67437  -1.15876
C    -2.94523   4.10625  -1.67320
C    -2.69775   2.57457   0.38566
O    -2.38922   1.55634   0.97426
O    -3.14102   3.66719   0.99974
C    -3.17573   3.63484   2.43437
H    -3.46879  -4.06547  -4.06556
H    -4.63310  -2.70698  -4.02297
H    -3.43794  -2.81172  -5.34304
H    -2.45594  -2.50488  -2.54690
H    -1.76128  -0.47775  -0.26344
H    -0.99830  -2.10866   1.40950
H     0.63656  -3.89307   0.78434
H     1.46455  -4.02319  -1.57100
H     0.66899  -2.41542  -3.25902
H     1.01205   0.09410  -3.27606
H     0.24879  -0.69492  -4.63380
H    -1.04683   1.77537  -4.70269
H     0.34671   1.29906  -5.64981
H     1.85419   2.13758  -3.76335
H     1.04379   3.32738  -4.77408
H    -0.51264   3.95520  -3.08355
H     1.13847   4.00043  -2.45305
H    -3.67397  -0.27825  -1.75678
H    -3.07125   2.34868  -4.37040
H    -3.95970   1.37689  -5.59462
H    -4.84647   2.48319  -4.52384
H    -5.38749   2.71461  -0.45614
H    -4.92501   1.06934   0.08105
H    -5.87680   1.30039  -1.41032
H    -2.18455   4.80575  -1.31005
H    -2.92866   4.08961  -2.77131
H    -3.93010   4.47136  -1.34964
H    -2.15981   3.49595   2.83201
H    -3.57839   4.60428   2.74904
H    -3.82298   2.81876   2.78553
