62
Generated by autodE on: 2022-06-11. E = -2264.023592 Ha. Imaginary frequency = -280.8 cm-1
C    -3.29663  -1.76341  -5.82820
N    -2.32315  -1.64374  -4.75949
C    -2.06861  -0.45423  -4.19301
O    -2.52968   0.59433  -4.66033
C    -1.07347  -0.37894  -2.99561
C    -0.87241  -1.65617  -2.16713
C    -0.95323  -1.62214  -0.76574
C    -0.69870  -2.75929   0.00543
C    -0.33787  -3.96159  -0.60659
C    -0.20196  -4.00019  -1.99632
C    -0.44976  -2.85899  -2.76409
C     0.33829  -0.04051  -3.62177
C     0.51632   1.37086  -4.20388
C     1.46959   2.26654  -3.40323
C     1.19038   2.45589  -1.90695
C    -0.22072   2.92649  -1.53317
Cl   -0.15780   3.40557   0.25879
Cl   -0.59736   4.45227  -2.47721
C    -1.25510   1.91713  -1.72091
C    -1.51070   0.77599  -2.15857
C    -3.62649   0.25979  -1.28095
C    -4.62145  -0.11257  -2.28881
C    -5.85342   0.71527  -2.57052
O    -4.50346  -1.21738  -2.83162
N    -3.63335   1.36414  -0.46134
C    -3.21830   1.07239   0.92913
C    -3.46121   2.61139  -0.96960
C    -3.84023   2.95283  -2.38118
C    -3.37114   3.76781  -0.02650
O    -3.46524   3.73841   1.18792
O    -3.17421   4.90906  -0.69403
C    -2.89200   6.07287   0.08544
H    -3.26722  -2.78704  -6.22267
H    -3.06222  -1.06190  -6.64095
H    -4.31545  -1.54756  -5.46662
H    -2.10438  -2.48006  -4.23153
H    -1.19475  -0.68773  -0.26211
H    -0.77769  -2.69705   1.09344
H    -0.14385  -4.85332  -0.00623
H     0.11323  -4.92071  -2.49324
H    -0.27773  -2.91609  -3.83916
H     0.53149  -0.80164  -4.39089
H     1.07852  -0.21627  -2.82760
H    -0.45963   1.86135  -4.31509
H     0.92179   1.28886  -5.22451
H     2.49019   1.85284  -3.46938
H     1.50787   3.25691  -3.88229
H     1.90547   3.19045  -1.50887
H     1.35039   1.51708  -1.35479
H    -3.27828  -0.63964  -0.77811
H    -6.06190   1.46739  -1.80209
H    -5.74686   1.21828  -3.54391
H    -6.70297   0.02139  -2.64918
H    -3.94016   1.49375   1.63396
H    -2.22716   1.49909   1.12917
H    -3.18852  -0.01355   1.05156
H    -3.22971   3.79220  -2.72364
H    -4.89630   3.26070  -2.44089
H    -3.67586   2.11283  -3.06078
H    -2.73273   6.88484  -0.63356
H    -3.73373   6.31362   0.75074
H    -1.98327   5.91672   0.68509
