26
Generated by autodE on: 2022-10-26. E = -557.227440 Ha
C    -1.97789  -3.67926   0.88657
C    -1.72402  -2.66090  -0.20069
O    -2.22238  -2.83521  -1.34919
C    -0.93058  -1.53641   0.11238
N    -0.79091  -0.62626  -0.90649
C    -0.19478   0.53727  -1.06262
C    -0.45762   1.26417  -2.34654
C     0.66952   1.14030  -0.04309
C     1.43538   0.36938   0.85902
C     2.28026   0.98330   1.78321
C     2.37643   2.37735   1.83942
C     1.63454   3.15444   0.94373
C     0.80137   2.54607   0.00616
H    -3.06343  -3.76487   1.06156
H    -1.62985  -4.66984   0.54948
H    -1.48030  -3.42635   1.83353
H    -0.51407  -1.33794   1.09313
H    -1.32614  -0.96697  -1.71985
H    -1.09900   2.14603  -2.17797
H    -0.96982   0.61198  -3.06836
H     0.47978   1.62742  -2.79504
H     1.40323  -0.71845   0.81654
H     2.87182   0.36532   2.46268
H     3.03111   2.85507   2.57185
H     1.70694   4.24408   0.97315
H     0.23401   3.17037  -0.68493
