35
Generated by autodE on: 2022-05-29. E = -1065.093967 Ha
C    -2.73367   3.04467   2.05029
O    -2.54068   2.12167   0.96427
C    -1.30959   1.65993   0.78367
O    -0.34049   2.01904   1.42620
C    -1.22692   0.68990  -0.33516
C    -1.74888  -0.55122  -0.43269
C    -2.52866  -1.27536   0.60293
C    -3.03560  -2.64082   0.24324
O    -2.72529  -0.76261   1.69723
C    -1.22162  -1.09201  -1.75758
O    -1.10386   0.10220  -2.53838
C    -0.35973   0.86717  -1.57929
C     0.91900  -0.02507  -1.42768
C     1.60977  -0.09926  -0.07634
C     3.12214   0.03192  -0.12916
O     3.77904   0.08728  -1.14663
O     3.64059   0.07011   1.09639
C     5.07226   0.15442   1.19290
N     1.27697  -1.46187   0.47723
N     0.61022  -2.13757  -0.31575
C     0.29941  -1.43195  -1.56206
H    -3.78985   3.33356   2.01314
H    -2.50521   2.55167   3.00612
H    -2.08965   3.92630   1.92495
H    -2.18141  -3.29078  -0.00923
H    -3.60072  -3.07073   1.07962
H    -3.66930  -2.58300  -0.65692
H    -1.81528  -1.85555  -2.26735
H    -0.18654   1.89213  -1.92048
H     1.61983   0.20700  -2.23575
H     1.24439   0.62756   0.66371
H     5.30148   0.17097   2.26435
H     5.43372   1.07390   0.71076
H     5.53953  -0.71886   0.71566
H     0.65625  -2.03143  -2.40857
