11
Generated by autodE on: 2022-05-29. E = -376.804976 Ha
C     2.74702   0.08010   0.34128
O     1.44700  -0.31803   0.79253
C     0.41006   0.03529   0.01093
O     0.52820   0.65921  -1.03237
C    -0.84040  -0.42816   0.58441
N    -1.94682  -0.16300  -0.06004
N    -2.89428   0.07490  -0.63015
H     2.81552   1.17558   0.26767
H     3.45393  -0.29103   1.09269
H     2.97208  -0.36395  -0.63972
H    -0.92669  -0.98508   1.51685
