35
Generated by autodE on: 2022-05-29. E = -1065.004127 Ha. Imaginary frequency = -477.6 cm-1
C    -3.00896   2.84133   1.95004
O    -2.72110   1.87633   0.92483
C    -1.44147   1.70118   0.60916
O    -0.53108   2.35900   1.08350
C    -1.24619   0.66376  -0.42468
C    -1.66003  -0.62029  -0.47479
C    -2.35456  -1.40416   0.57692
C    -2.84228  -2.77030   0.19055
O    -2.49492  -0.95015   1.70547
C    -1.09299  -1.15731  -1.79970
O    -1.16100   0.04358  -2.60914
C    -0.39881   0.85702  -1.69637
C     0.89477   0.00165  -1.55725
C     1.64542   0.17085   0.56103
C     3.08740   0.34546   0.31147
O     3.59659   1.43656   0.13768
O     3.74116  -0.81661   0.21060
C     5.13577  -0.74529  -0.12182
N     1.21776  -1.05478   0.91452
N     0.70651  -2.00597   0.50513
C     0.43518  -1.30292  -1.63302
H    -2.52799   2.54584   2.89355
H    -2.65318   3.83761   1.65146
H    -4.09894   2.84308   2.06191
H    -1.98365  -3.39403  -0.10989
H    -3.36481  -3.23911   1.03386
H    -3.50975  -2.70397  -0.68396
H    -1.62069  -1.99467  -2.26451
H    -0.27217   1.88371  -2.05224
H     1.84414   0.37429  -1.93809
H     1.11193   1.01223   1.01177
H     5.68469  -0.17575   0.64187
H     5.27242  -0.26955  -1.10367
H     5.49107  -1.78166  -0.14988
H     0.98816  -2.17467  -1.97618
