20
Generated by autodE on: 2022-06-23. E = -457.715340 Ha
C     3.12561  -0.34223   0.45484
N     1.82883   0.01629  -0.09594
C     1.75583   0.95695  -1.13110
C     0.58988   1.41051  -1.61774
C    -0.75239   0.95535  -1.10038
C    -0.57404  -0.03636   0.03780
C    -1.73345  -0.62307   0.72903
N    -2.95331  -0.20809   0.30379
O    -1.63579  -1.45599   1.65326
C     0.66355  -0.42575   0.45531
H     3.58183   0.50151   1.00027
H     3.00590  -1.18383   1.14859
H     3.81375  -0.64684  -0.34844
H     2.72101   1.29173  -1.51546
H     0.61468   2.13854  -2.43183
H    -1.34629   0.50860  -1.92427
H    -1.35035   1.83071  -0.77401
H    -3.77869  -0.58356   0.75785
H    -3.07416   0.47192  -0.43566
H     0.76228  -1.13767   1.27636
