48
Generated by autodE on: 2022-06-23. E = -1239.697538 Ha. Imaginary frequency = -381.6 cm-1
C    -2.28661   4.36935   0.53152
O    -1.92803   3.34548  -0.40127
C    -1.80483   2.09268   0.09751
O    -2.04268   1.84121   1.27020
C    -1.28207   1.22008  -0.94825
C     0.80371   1.55178  -0.00912
C     0.83230   0.45149   0.87349
C     2.03383  -0.47467   0.81706
C     2.56491  -0.58270  -0.59453
C     3.34651  -1.73333  -1.07505
N     3.66832  -2.67696  -0.15616
O     3.71659  -1.85233  -2.26018
C     2.35999   0.44976  -1.45430
N     1.65145   1.57450  -1.12786
C     1.41894   2.58358  -2.14825
C    -0.88807  -0.81587   0.21105
C    -0.28946  -2.18189   0.13476
C    -0.36739  -3.06820   1.35662
O     0.29709  -2.58318  -0.86513
C    -1.92305  -0.68544   1.30618
O    -3.11679  -0.74443   1.08140
O    -1.41281  -0.64477   2.53624
C    -2.35073  -0.64199   3.61817
N    -1.20272  -0.14028  -0.96224
C    -0.97548  -0.71668  -2.30138
H    -2.31205   5.30443  -0.04047
H    -1.54132   4.44045   1.33778
H    -3.27534   4.16948   0.97027
H    -1.32522   1.67566  -1.93602
H     0.51259   2.53833   0.34918
H     0.41690   0.63163   1.86230
H     1.79138  -1.46081   1.23625
H     2.81686  -0.06811   1.49077
H     4.18189  -3.49585  -0.46248
H     3.38133  -2.61947   0.81224
H     2.77569   0.42484  -2.46263
H     1.08566   3.51568  -1.67278
H     0.64172   2.26280  -2.86413
H     2.34779   2.77990  -2.70034
H    -1.41750  -3.31068   1.58819
H     0.05321  -2.57591   2.24304
H     0.18424  -3.99257   1.14478
H    -2.98662   0.25333   3.56534
H    -2.98125  -1.54242   3.58684
H    -1.75287  -0.62915   4.53673
H     0.09226  -0.77010  -2.54791
H    -1.40354  -1.72202  -2.35528
H    -1.48965  -0.07501  -3.02573
