65
Generated by autodE on: 2022-06-12. E = -1605.414928 Ha
C     7.24607 -24.17372 -10.83823
O     8.46817 -24.93361 -10.91653
C     8.66200 -25.85548  -9.99329
O     7.93410 -26.08263  -9.05626
C     9.97870 -26.65819 -10.21241
C    10.72617 -26.15405 -11.39142
N    11.39522 -25.75025 -12.24844
C     9.69008 -28.15812 -10.31093
C    10.34022 -28.83169  -9.34864
C    10.22330 -30.32663  -9.05746
C    11.21276 -30.70277  -7.93410
C    10.80196 -30.79786  -6.59499
C    11.71996 -31.07271  -5.57867
C    13.07094 -31.25241  -5.88112
C    13.49090 -31.17723  -7.21259
C    12.56906 -30.91771  -8.22806
C     8.78582 -30.68775  -8.60468
C     8.49928 -32.04646  -8.37504
C     7.23118 -32.45893  -7.96891
C     6.21054 -31.51921  -7.78079
C     6.48146 -30.16976  -8.00278
C     7.75740 -29.75769  -8.40983
C    10.52859 -31.19169 -10.35037
C    11.35945 -30.59007 -11.50305
C    10.52146 -30.25541 -12.74646
C     9.67854 -28.97756 -12.72122
C     8.84891 -28.76152 -11.41483
C     7.64287 -27.98006 -11.69934
N     6.67933 -27.38484 -11.95052
C    11.29075 -27.86377  -8.62138
C    12.67343 -28.03696  -9.15141
N    13.72264 -28.04808  -9.64603
C    11.34629 -27.90498  -7.06049
C    10.04834 -27.69094  -6.34566
O    12.42267 -27.96741  -6.50435
N    10.76694 -26.56104  -8.99774
C    11.56696 -25.37095  -8.76902
H     7.19117 -23.64773  -9.87547
H     6.38779 -24.85005 -10.95056
H     7.28589 -23.45962 -11.66769
H     9.75540 -30.64658  -6.33534
H    11.37452 -31.13602  -4.54426
H    13.79238 -31.45658  -5.08662
H    14.54342 -31.32371  -7.46586
H    12.92100 -30.86865  -9.25770
H     9.28481 -32.79329  -8.50215
H     7.03878 -33.52066  -7.79668
H     5.21565 -31.83985  -7.46323
H     5.69949 -29.41995  -7.86116
H     7.92919 -28.69516  -8.57336
H    11.00649 -32.11401  -9.99789
H     9.56380 -31.51355 -10.76327
H    11.94182 -29.71316 -11.18364
H    12.10390 -31.34227 -11.80546
H    11.19025 -30.17193 -13.61840
H     9.86078 -31.11538 -12.95010
H    10.31553 -28.09749 -12.87483
H     8.97677 -29.00372 -13.56775
H     8.46870 -29.73451 -11.07338
H     9.81774 -26.61369  -6.37640
H     9.21793 -28.21589  -6.83138
H    10.15073 -28.00538  -5.29985
H    11.91285 -25.35618  -7.72612
H    10.94268 -24.48048  -8.93098
H    12.44981 -25.30723  -9.43187
