24
Generated by autodE on: 2022-07-27. E = -738.569437 Ha
C    -2.70724   1.94925  -2.96535
O    -1.73937   1.07754  -2.36097
C    -1.54786   1.21190  -1.04610
O    -2.14071   2.01657  -0.35572
C    -0.51590   0.24671  -0.59375
C     0.05963  -0.59435  -1.57891
N     0.49707  -1.32128  -2.37803
N    -0.13443   0.10182   0.69805
C    -0.97445   0.67997   1.76950
C     1.03862  -0.49765   1.04994
C     2.13979  -0.43551   0.15785
N     3.06658  -0.34841  -0.54376
C     1.29251  -1.26617   2.29501
C     0.16773  -1.79508   3.14713
O     2.45897  -1.54567   2.55466
H    -2.40621   2.99895  -2.83820
H    -2.72491   1.68346  -4.02805
H    -3.69702   1.79162  -2.51364
H    -0.49941   0.50094   2.73289
H    -1.98334   0.25511   1.72574
H    -1.02689   1.76034   1.60122
H     0.03643  -1.15347   4.03338
H    -0.79092  -1.87122   2.61961
H     0.47445  -2.78810   3.50475
