24
Generated by autodE on: 2022-06-12. E = -738.579203 Ha
C     3.75062   0.59526   0.01970
O     2.63268  -0.25480  -0.29018
C     1.49427   0.00662   0.34182
O     1.34140   0.88766   1.15998
C     0.45621  -1.01033   0.00566
C     0.90568  -2.30008  -0.37416
N     1.31988  -3.33978  -0.70004
N    -0.85029  -0.78476   0.20910
C    -1.76246  -1.92133   0.46547
C    -1.39912   0.46514   0.16501
C    -2.67119   0.64489   0.76052
N    -3.71148   0.83384   1.25290
C    -0.86408   1.51675  -0.71500
C    -1.70695   2.75396  -0.87226
O     0.18884   1.36902  -1.33154
H     4.58211   0.23032  -0.59302
H     3.51179   1.63708  -0.23618
H     3.99932   0.52258   1.08785
H    -2.57873  -1.90090  -0.26633
H    -2.16490  -1.81264   1.48155
H    -1.20949  -2.86169   0.39927
H    -1.84580   3.23732   0.10841
H    -1.20305   3.44575  -1.55814
H    -2.70700   2.50683  -1.26098
