41
Generated by autodE on: 2022-06-12. E = -866.745196 Ha
N     1.17303   2.71540  -4.33824
C     1.58330   2.45109  -3.28543
C     2.11982   2.08895  -1.96493
C     1.03829   1.70787  -1.05157
C     0.34704   0.93447  -0.42575
C    -0.20588  -0.31931   0.09423
C     0.28982  -0.61701   1.52346
C    -0.19170  -1.75793   2.18576
C     0.25425  -2.08080   3.46791
C     1.18884  -1.26409   4.11558
C     1.66992  -0.12586   3.46622
C     1.22378   0.19423   2.17825
C    -1.74272  -0.27183   0.10366
C    -2.37730   0.85081   0.65877
C    -3.76863   0.92589   0.73015
C    -4.55343  -0.12730   0.24621
C    -3.93125  -1.24829  -0.30660
C    -2.53473  -1.32104  -0.37894
C     0.36583  -1.39341  -0.89530
C     1.88656  -1.33836  -1.15336
C     2.41078  -0.49355  -2.35012
C     3.08203   0.86450  -2.06582
H     2.68451   2.96439  -1.60354
H    -0.92775  -2.39860   1.69594
H    -0.13261  -2.97321   3.96591
H     1.53637  -1.51467   5.12061
H     2.39857   0.52162   3.96015
H     1.60865   1.08508   1.68009
H    -1.76914   1.67434   1.04143
H    -4.24267   1.80954   1.16431
H    -5.64327  -0.07201   0.29985
H    -4.53302  -2.07683  -0.68799
H    -2.07374  -2.20861  -0.81178
H    -0.16994  -1.29358  -1.85206
H     0.10866  -2.38191  -0.48830
H     2.41414  -1.04591  -0.22990
H     2.19487  -2.37753  -1.34501
H     1.60738  -0.36070  -3.09589
H     3.17694  -1.10040  -2.85671
H     3.63491   0.81969  -1.11488
H     3.81613   1.08992  -2.85481
