51
Generated by autodE on: 2022-06-24. E = -1275.320488 Ha
C    -3.24913  -2.82208   2.23291
N    -2.44084  -2.38229   1.11189
C    -1.91051  -1.14957   1.06018
O    -2.14087  -0.29426   1.92072
C    -0.91540  -0.90294  -0.10418
C    -1.40950  -1.60862  -1.39380
O    -0.79603  -2.58701  -1.84350
N    -2.51826  -1.11756  -1.94656
C    -3.06527  -1.67136  -3.16834
N     0.35278  -1.52010   0.30149
C     1.31714  -0.52009   0.76117
C     1.84091  -0.86835   2.16277
C     2.49519  -0.46566  -0.21626
O     2.55705  -1.10567  -1.24934
O     3.47734   0.32307   0.20995
C     4.59375   0.50790  -0.67166
C     0.49068   0.82086   0.79661
N     1.19672   2.07166   0.67161
C     1.92405   2.58654   1.81875
C     1.53613   2.49705  -0.60303
C     0.99769   1.98587  -1.72669
C    -0.00748   0.87257  -1.70969
C    -0.59850   0.61517  -0.29176
C    -1.81355   1.53275  -0.11682
N    -1.59516   2.71077   0.47305
O    -2.92917   1.22499  -0.57178
H    -2.64410  -2.95510   3.14571
H    -4.03533  -2.08501   2.44941
H    -3.72031  -3.77958   1.97891
H    -2.12101  -3.07858   0.44589
H    -2.89633  -0.25123  -1.53519
H    -3.97758  -1.12121  -3.43040
H    -2.34993  -1.58993  -4.00332
H    -3.31715  -2.73627  -3.04316
H     0.71525  -2.05247  -0.49013
H     2.37741  -1.82918   2.14314
H     0.98258  -0.96324   2.84353
H     2.51824  -0.09758   2.55175
H     5.27829   1.18849  -0.15289
H     5.08892  -0.45217  -0.87425
H     4.25432   0.95632  -1.61678
H    -0.01160   0.82501   1.77148
H     2.05424   3.67394   1.71478
H     1.34213   2.39734   2.73256
H     2.92089   2.12840   1.93847
H     2.25389   3.32010  -0.63787
H     1.29632   2.40112  -2.69093
H     0.45177  -0.05796  -2.08189
H    -0.83130   1.08989  -2.40578
H    -2.36013   3.37413   0.54984
H    -0.65935   2.96105   0.78953
