20
Generated by autodE on: 2022-06-24. E = -457.715306 Ha
C    -3.12427   0.14203   0.56437
N    -1.80367   0.30687  -0.02031
C    -1.63824   1.15460  -1.12271
C    -0.44064   1.39248  -1.68064
C     0.84113   0.77511  -1.17774
C     0.56520  -0.11755   0.02143
C     1.64952  -0.84068   0.70477
N     2.89668  -0.66208   0.20099
O     1.46621  -1.58190   1.69199
C    -0.69675  -0.28477   0.50894
H    -3.49577   1.08921   0.98987
H    -3.07520  -0.60590   1.36555
H    -3.84601  -0.20319  -0.19274
H    -2.55874   1.60607  -1.49714
H    -0.39290   2.06302  -2.54173
H     1.57105   1.57009  -0.92054
H     1.33246   0.20419  -1.99234
H     3.08575  -0.07309  -0.59976
H     3.67205  -1.14401   0.64250
H    -0.86523  -0.92838   1.37382
