31
Generated by autodE on: 2022-07-27. E = -817.567765 Ha
C    -2.35769  -1.70282   2.61360
N    -1.49029  -1.29985   1.52451
C    -1.87350  -0.37580   0.61829
O    -3.04438   0.05634   0.59637
C    -0.88658   0.01212  -0.40570
N     0.44416   0.09445  -0.21856
C     1.25101   0.27042   0.82198
C     0.77143   0.56509   2.19832
C     2.66665   0.27671   0.43900
O     3.06260   0.11872  -0.71135
O     3.48748   0.47914   1.47681
C     4.89061   0.51685   1.18812
C    -1.24983   0.16638  -1.83066
O    -0.35181   0.24826  -2.69535
N    -2.55841   0.20705  -2.13841
C    -3.01344   0.39561  -3.49886
H    -3.27254  -2.19080   2.24090
H    -1.81575  -2.41042   3.25275
H    -2.66000  -0.83478   3.22096
H    -0.56220  -1.70288   1.47138
H     0.93603   0.09901  -1.13283
H     1.53352   1.14616   2.73220
H     0.56411  -0.33932   2.79476
H    -0.16200   1.14941   2.15870
H     5.21860  -0.43237   0.73986
H     5.12126   1.34315   0.49983
H     5.39264   0.67494   2.14965
H    -3.21131   0.23240  -1.35595
H    -2.57895  -0.36112  -4.16994
H    -2.73733   1.38937  -3.89111
H    -4.10612   0.30153  -3.52450
