51
Generated by autodE on: 2022-06-24. E = -1275.257692 Ha. Imaginary frequency = -410.4 cm-1
C    -2.46604  -2.79515   2.40180
N    -1.56417  -2.33215   1.36606
C    -1.91974  -1.35988   0.51040
O    -3.08502  -0.92909   0.46507
C    -0.87003  -0.89821  -0.45960
C    -1.23470  -1.02777  -1.91688
O    -0.34540  -1.19668  -2.76571
N    -2.53324  -0.91005  -2.23105
C    -2.97796  -0.84225  -3.60717
N     0.44804  -1.20182  -0.26131
C     1.24338  -0.63992   0.72196
C     0.91632  -0.75820   2.18321
C     2.66716  -0.71028   0.31703
O     3.03184  -0.83772  -0.84454
O     3.52396  -0.56579   1.33432
C     4.91988  -0.55545   1.01205
C     0.70652   1.44231   0.33902
N     1.69165   1.96863  -0.49722
C     2.97278   2.38859   0.04179
C     1.51340   1.93679  -1.87800
C     0.28974   1.85923  -2.42346
C    -0.92232   1.92180  -1.53239
C    -0.64876   1.33036  -0.14594
C    -1.69168   1.54901   0.89358
N    -2.85783   2.09837   0.47507
O    -1.51174   1.30229   2.09968
H    -3.37013  -3.25211   1.96969
H    -1.94772  -3.54375   3.01293
H    -2.78136  -1.96045   3.04813
H    -0.61464  -2.68444   1.34447
H    -3.17357  -0.72295  -1.45839
H    -2.63237  -1.71849  -4.17626
H    -2.59510   0.06164  -4.11049
H    -4.07445  -0.81817  -3.62584
H     0.93555  -1.23984  -1.16536
H     1.61810  -0.14326   2.75965
H     1.01828  -1.79980   2.53574
H    -0.09434  -0.39827   2.39767
H     5.20041  -1.47656   0.48169
H     5.16543   0.31562   0.38712
H     5.44955  -0.49213   1.96963
H     0.83352   1.69855   1.39011
H     3.80094   1.94473  -0.53192
H     3.06353   2.06538   1.08560
H     3.08596   3.48663   0.00883
H     2.43201   1.97002  -2.46943
H     0.17045   1.78869  -3.50494
H    -1.78358   1.43687  -2.01280
H    -1.22643   2.98192  -1.40241
H    -3.62256   2.10974   1.14246
H    -3.10551   2.12229  -0.50636
