64
Generated by autodE on: 2022-06-11. E = -1641.554165 Ha
C     3.01649  -8.28254   0.29824
O     2.52739  -7.59082  -0.86482
C     1.53839  -8.16294  -1.53151
O     1.00747  -9.20806  -1.23193
C     1.06579  -7.25869  -2.70453
C     0.25472  -8.09552  -3.63144
N    -0.41311  -8.72449  -4.33999
C     2.22769  -6.55273  -3.43154
C     2.08978  -5.21992  -3.26714
C     3.03599  -4.05998  -3.64891
C     3.26359  -3.95544  -5.10527
N     3.44670  -3.79676  -6.23859
C     2.49718  -2.71516  -3.31298
N     2.28091  -1.59823  -3.09271
C     4.40253  -4.09136  -2.83289
C     5.56898  -4.92119  -3.34989
C     5.36003  -6.42841  -3.44878
C     4.50201  -6.83252  -4.66000
C     3.11117  -7.42397  -4.31401
C     3.34816  -8.82465  -3.71181
C     2.37781  -7.50688  -5.69454
C     2.57305  -8.74120  -6.52675
O     1.70311  -6.57460  -6.09000
C     0.70032  -4.90208  -2.66414
C    -0.09616  -4.49258  -3.93895
O     0.00784  -3.41852  -4.49408
O    -0.80870  -5.50308  -4.40979
C    -1.41330  -5.34608  -5.70348
C     0.64729  -3.85968  -1.55243
C    -0.32102  -2.85193  -1.50421
C    -0.34834  -1.95414  -0.43298
C     0.58598  -2.06090   0.60037
C     1.53787  -3.08624   0.57058
C     1.55949  -3.98585  -0.49465
N     0.30849  -6.18397  -2.11693
C    -1.02984  -6.42047  -1.61742
H     3.83218  -7.66576   0.69041
H     3.38713  -9.27748   0.01487
H     2.21452  -8.38084   1.04296
H     4.74145  -3.04899  -2.77197
H     4.12162  -4.40202  -1.81772
H     6.39293  -4.71740  -2.64669
H     5.90062  -4.52849  -4.32616
H     4.92040  -6.80298  -2.51048
H     6.34691  -6.90670  -3.53489
H     4.39002  -5.98271  -5.34149
H     5.02240  -7.60118  -5.24805
H     3.99901  -9.40764  -4.37451
H     3.86037  -8.74319  -2.74499
H     2.42779  -9.40561  -3.57402
H     3.63370  -9.02476  -6.58576
H     2.16673  -8.56892  -7.53149
H     2.03667  -9.58060  -6.05641
H    -0.64325  -5.11134  -6.45046
H    -2.16656  -4.54641  -5.67685
H    -1.88328  -6.30972  -5.92886
H    -1.04833  -2.74516  -2.30892
H    -1.10457  -1.16615  -0.40902
H     0.56794  -1.35269   1.43203
H     2.26343  -3.18681   1.38100
H     2.28670  -4.80004  -0.50992
H    -1.35739  -5.54027  -1.04703
H    -1.02204  -7.28020  -0.93092
H    -1.76853  -6.61526  -2.41465
