30
Generated by autodE on: 2022-06-11. E = -688.743653 Ha
C     3.27697   0.05879   1.32363
C     2.97734  -0.62302   0.02267
O     3.83259  -0.85279  -0.81306
C     1.52862  -1.08489  -0.23225
C     1.48801  -2.59290   0.11500
C     0.52625  -0.35838   0.54112
C    -0.50574   0.19375   0.85312
C    -1.81262   0.80477   0.57527
C    -2.80279   0.54136   1.63936
N    -3.58969   0.30427   2.45599
C    -1.66036   2.26965   0.42787
N    -1.53059   3.41033   0.27090
C    -2.32489   0.18366  -0.78444
C    -1.29850   0.20627  -1.93091
C    -0.34428  -1.01050  -2.09295
C     1.14232  -0.83154  -1.72549
H     2.79344   1.05003   1.32597
H     2.84213  -0.50672   2.16279
H     4.36037   0.17543   1.45505
H     0.48574  -3.00003  -0.07869
H     2.21891  -3.12814  -0.50782
H     1.73203  -2.75955   1.17440
H    -2.62759  -0.84840  -0.55446
H    -3.23007   0.74326  -1.06235
H    -1.90064   0.27269  -2.84938
H    -0.71951   1.14473  -1.89656
H    -0.35696  -1.28232  -3.15937
H    -0.76370  -1.88411  -1.56725
H     1.46045   0.18836  -1.99515
H     1.75458  -1.52051  -2.32539
