64
Generated by autodE on: 2022-06-11. E = -1641.463540 Ha. Imaginary frequency = -283.6 cm-1
C    -0.10048 -10.98120  -3.71694
O    -0.23606  -9.55865  -3.84804
C     0.24033  -8.80669  -2.85314
O     0.69382  -9.27157  -1.82422
C     0.20213  -7.36163  -3.21730
C    -0.09690  -7.10891  -4.59279
N    -0.31008  -6.92069  -5.72165
C     2.39706  -6.47872  -3.65069
C     2.01469  -5.29218  -3.77957
C     2.50809  -4.03711  -4.44595
C     1.85392  -3.92602  -5.76832
N     1.41934  -3.87880  -6.84165
C     2.26900  -2.77785  -3.70585
N     2.21153  -1.74300  -3.18858
C     4.05865  -4.12194  -4.70433
C     4.84623  -4.54822  -3.45566
C     5.55506  -5.90422  -3.59346
C     4.75741  -7.07566  -4.17633
C     3.44370  -7.50768  -3.43161
C     3.69115  -7.65282  -1.91636
C     3.08039  -8.84305  -4.10464
C     3.66744 -10.10752  -3.54419
O     2.36592  -8.85404  -5.09221
C     0.08955  -5.06338  -2.64541
C    -0.85915  -4.57987  -3.70610
O    -1.92766  -5.10000  -3.95479
O    -0.43334  -3.45691  -4.27884
C    -1.30086  -2.84102  -5.24028
C     0.43169  -4.06294  -1.59556
C    -0.42624  -2.98813  -1.30597
C    -0.07704  -2.04575  -0.33851
C     1.13210  -2.16310   0.35394
C     1.98755  -3.23534   0.08052
C     1.64146  -4.17734  -0.88557
N    -0.01893  -6.38092  -2.27186
C     0.02756  -6.74718  -0.84525
H    -0.54614 -11.40694  -4.62288
H    -0.63480 -11.33706  -2.82492
H     0.96049 -11.25857  -3.64929
H     4.37877  -3.14036  -5.08039
H     4.19405  -4.83724  -5.52610
H     5.60817  -3.78676  -3.23211
H     4.17930  -4.56378  -2.58056
H     5.96429  -6.18598  -2.61076
H     6.42774  -5.77661  -4.25643
H     4.48905  -6.88195  -5.22525
H     5.42633  -7.95076  -4.18786
H     4.57372  -8.27940  -1.72736
H     2.82151  -8.10399  -1.42320
H     3.87215  -6.66739  -1.46778
H     4.73358  -9.99083  -3.30299
H     3.52534 -10.92689  -4.26017
H     3.14760 -10.35223  -2.60453
H    -0.77756  -1.94116  -5.58099
H    -2.25770  -2.57439  -4.76950
H    -1.47692  -3.52334  -6.08288
H    -1.37681  -2.88456  -1.83246
H    -0.75384  -1.21582  -0.12405
H     1.40679  -1.42001   1.10606
H     2.93507  -3.33297   0.61487
H     2.32005  -5.00017  -1.10705
H    -0.37543  -5.91336  -0.26573
H     1.04865  -6.97354  -0.51506
H    -0.60466  -7.62555  -0.68684
