46
Generated by autodE on: 2022-06-04. E = -3812.141939 Ha
C    -4.08513  -0.15459  -2.34155
N    -3.14986  -0.40388  -1.26190
C    -2.66155   0.58839  -0.50973
O    -2.92773   1.77970  -0.70291
C    -1.66306   0.19294   0.61651
C    -2.15787  -1.04478   1.39318
O    -2.50679  -2.07859   0.79958
N    -2.12188  -0.93045   2.72006
C    -2.41867  -2.03358   3.60987
N    -1.41154   1.32066   1.50708
C    -0.30947   2.13070   0.97184
C    -0.78638   3.31780   0.13460
O    -0.37059   3.62502  -0.96309
O    -1.68988   4.03480   0.80801
C    -2.29771   5.13051   0.11109
C     0.56946   1.17172   0.16745
C     1.77415   0.60269   0.96708
O     1.15007  -0.39581   1.78959
C     0.60379  -1.16266   0.72027
C     1.83479  -1.35847  -0.16077
Br    1.98374  -2.81762  -1.31997
C     2.58778  -0.24796  -0.01189
C     3.77552   0.28596  -0.69798
C     4.61442  -0.61932  -1.55418
O     4.04607   1.47546  -0.55271
C    -0.28002  -0.11822  -0.03988
H    -4.26506  -1.09283  -2.88077
H    -3.67659   0.58648  -3.04466
H    -5.04890   0.22920  -1.96719
H    -2.98410  -1.35122  -0.91669
H    -1.71212  -0.06312   3.06433
H    -2.61272  -1.64340   4.61688
H    -3.30739  -2.57525   3.25749
H    -1.57974  -2.74789   3.66341
H    -2.25251   1.88700   1.61304
H     0.25843   2.58022   1.80458
H    -2.99708   5.59084   0.81849
H    -2.83911   4.76042  -0.77176
H    -1.53808   5.86076  -0.20233
H     0.89962   1.63854  -0.76531
H     2.33778   1.32665   1.56319
H     0.10596  -2.07211   1.06807
H     4.05367  -0.89744  -2.46160
H     4.86225  -1.55195  -1.02539
H     5.53270  -0.09379  -1.84688
H    -0.40962  -0.40881  -1.08690
