18
Generated by autodE on: 2022-06-04. E = -3033.824584 Ha
C    -2.77368  -0.46866  -0.13386
C    -1.64999  -1.20681  -0.80715
O    -1.83798  -2.26798  -1.39946
C    -0.28967  -0.65867  -0.75842
C     0.31688   0.31660  -0.05144
Br   -0.31990   1.50950   1.23299
C     1.82591   0.21654  -0.39223
C     2.32835  -1.09238   0.25776
C     1.74636  -2.06375  -0.45113
C     0.89351  -1.33101  -1.50816
O     1.72106  -0.17938  -1.76367
H    -3.72537  -0.96203  -0.37051
H    -2.80410   0.58362  -0.45561
H    -2.62546  -0.47126   0.95821
H     2.42047   1.12533  -0.25284
H     2.96942  -1.14692   1.13645
H     1.78056  -3.14408  -0.31630
H     0.62917  -1.87185  -2.42140
