28
Generated by autodE on: 2022-06-04. E = -778.232437 Ha
C    -3.81125  -2.39399  -0.41582
N    -2.99526  -1.21362  -0.22877
C    -1.65887  -1.28265  -0.17558
O    -1.03049  -2.35827  -0.27200
C    -0.89957  -0.01663   0.00411
N     0.41987  -0.24736  -0.05145
C     1.53872   0.45787  -0.03267
C     2.77082  -0.30033  -0.16364
O     2.82770  -1.52136  -0.25572
O     3.84985   0.49735  -0.16966
C     5.12264  -0.14914  -0.29210
C    -1.53392   1.28913   0.23762
O    -2.73997   1.47661  -0.02366
N    -0.77990   2.28364   0.75972
C    -1.36568   3.57286   1.07669
H    -3.61776  -2.87304  -1.39011
H    -3.61642  -3.14150   0.36918
H    -4.86837  -2.10475  -0.37122
H    -3.39750  -0.27474  -0.20649
H     0.56872  -1.27445  -0.16527
H     1.54965   1.54190   0.02601
H     5.28989  -0.83815   0.54900
H     5.18403  -0.70883  -1.23714
H     5.87156   0.65133  -0.27862
H     0.11947   2.06472   1.17332
H    -2.10715   3.49994   1.89000
H    -1.87080   3.99171   0.19468
H    -0.56534   4.25638   1.38558
