24
Generated by autodE on: 2022-06-16. E = -368.823148 Ha
C     2.47373  -0.64606   0.76731
C     1.04365  -0.31177   0.49160
N     0.07786  -0.69464   1.24068
C    -1.19783  -0.22805   0.67084
C    -2.01885  -1.41239   0.16848
C    -0.83997   0.80605  -0.43299
C    -1.04817   2.24212   0.04383
C     0.64784   0.49986  -0.72978
C     0.89515  -0.26339  -2.03716
H     3.07526   0.27570   0.83821
H     2.89832  -1.23587  -0.06206
H     2.57596  -1.21845   1.69940
H    -1.77032   0.26049   1.47794
H    -2.18003  -2.14999   0.97056
H    -1.50496  -1.92000  -0.66387
H    -3.00384  -1.07518  -0.19106
H    -1.45371   0.63458  -1.33122
H    -0.74770   2.96871  -0.72851
H    -2.10500   2.43098   0.29379
H    -0.44808   2.44445   0.94715
H     1.24363   1.42898  -0.75858
H     0.34028  -1.21498  -2.05070
H     1.96378  -0.49043  -2.17619
H     0.56418   0.33530  -2.90030
