12
Generated by autodE on: 2022-06-16. E = -157.300301 Ha
C     1.96332  -0.04455  -0.03772
C     0.51354  -0.15945  -0.39943
C    -0.51354   0.15939   0.39946
C    -1.96332   0.04459   0.03770
H     2.09970   0.33665   0.98656
H     2.47316  -1.02160  -0.11154
H     2.49603   0.63200  -0.72958
H     0.29388  -0.53717  -1.40793
H    -0.29389   0.53710   1.40796
H    -2.47295   1.02180   0.11093
H    -2.09970  -0.33712  -0.98639
H    -2.49623  -0.63144   0.72989
