12
Generated by autodE on: 2022-06-16. E = -211.410639 Ha
C     2.28956   0.40863   0.16853
C     1.13198   0.00745  -0.69535
N     0.03671  -0.29620  -0.21165
C    -1.13333  -0.60975   0.19061
C    -2.23870   0.38716   0.35677
H     3.14307  -0.25618  -0.04314
H     2.61762   1.41998  -0.12342
H     2.07510   0.39405   1.25291
H    -1.32829  -1.66947   0.39971
H    -3.09691   0.12913  -0.28841
H    -1.89997   1.40192   0.10259
H    -2.61075   0.39094   1.39582
