58
Generated by autodE on: 2022-06-26. E = -1325.352998 Ha
C     4.72465  -1.53859  -0.05204
O     4.28780  -0.17361  -0.03574
C     2.93573   0.02052  -0.02814
C     2.26090   0.42398   1.08478
O     2.71386   0.66407   2.31391
C     4.08615   0.48424   2.68629
C     0.76070   0.48742   1.03209
O     0.15218   0.15220   2.02910
C     0.14986   0.99276  -0.27716
C     0.59862   2.46553  -0.38459
C    -1.41934   0.77240  -0.37078
C    -2.10981   1.82056  -1.28394
C    -2.17459   0.89775   0.97316
C    -2.92216  -0.16743   1.49230
C    -3.65461  -0.03063   2.67589
C    -3.65830   1.18171   3.36969
C    -2.92927   2.25859   2.85493
C    -2.20921   2.12012   1.66633
N    -1.51614  -0.59162  -0.92413
C    -2.71119  -0.95771  -1.65520
C    -0.22661  -1.17140  -1.29931
C    -0.26228  -2.02191  -2.58313
C     0.26859  -2.19521  -0.24166
C    -0.75334  -2.87780   0.61948
O     1.45236  -2.48346  -0.16737
C     0.71970   0.08575  -1.42877
C     0.56777   0.71450  -2.82569
C     2.22095  -0.23557  -1.28999
O     2.85900  -0.63687  -2.26039
H     5.81886  -1.51472   0.03683
H     4.44229  -2.03800  -0.98934
H     4.30018  -2.09235   0.80105
H     4.13584   0.76897   3.74480
H     4.74472   1.13180   2.09377
H     4.38774  -0.56656   2.57391
H     1.68867   2.53324  -0.49577
H     0.14256   2.96073  -1.24774
H     0.32194   3.02783   0.51797
H    -2.01383   2.82899  -0.86580
H    -1.71482   1.83630  -2.30414
H    -3.18398   1.60005  -1.33782
H    -2.91258  -1.12417   0.97581
H    -4.22340  -0.88260   3.05749
H    -4.22592   1.28937   4.29713
H    -2.92188   3.21713   3.38019
H    -1.65646   2.98092   1.28894
H    -3.59959  -0.59927  -1.11733
H    -2.76324  -0.55512  -2.68493
H    -2.80496  -2.05136  -1.71657
H     0.76488  -2.29118  -2.86189
H    -0.72668  -1.48106  -3.41511
H    -0.82678  -2.95121  -2.42253
H    -1.00719  -2.20625   1.45341
H    -1.68286  -3.08102   0.07182
H    -0.32559  -3.80416   1.02522
H     1.00967   1.71929  -2.85257
H     1.09865   0.10224  -3.56134
H    -0.47799   0.78188  -3.13562
