32
Generated by autodE on: 2022-06-26. E = -635.869164 Ha
C     4.16023   0.32084   0.91882
C     2.65078   0.26764   0.70995
O     1.90874   0.77436   1.60394
C     2.18364  -0.31244  -0.48932
C     3.09694  -0.76826  -1.59733
N     0.79998  -0.26519  -0.75109
C     0.39432   0.27499  -2.05962
C    -0.10045  -0.63999   0.15053
C     0.28459  -1.51697   1.28241
C    -1.49370  -0.15703   0.07058
C    -1.75772   1.21991  -0.06596
C    -3.07085   1.68912  -0.09934
C    -4.14073   0.79343   0.00006
C    -3.88883  -0.57510   0.14577
C    -2.57681  -1.04741   0.19264
H     4.67485   0.85079   0.10119
H     4.36345   0.84433   1.86314
H     4.59732  -0.68989   0.97465
H     3.41310   0.03856  -2.28602
H     2.62447  -1.55237  -2.20954
H     4.01499  -1.20727  -1.18229
H    -0.66036   0.06095  -2.25538
H     0.99858  -0.20815  -2.83628
H     0.57443   1.35804  -2.09781
H     0.62640  -0.89417   2.12944
H    -0.57104  -2.12125   1.61159
H     1.13642  -2.15715   1.00212
H    -0.92464   1.92278  -0.12092
H    -3.25966   2.76076  -0.19641
H    -5.16883   1.16159  -0.02907
H    -4.71986  -1.27976   0.22457
H    -2.38892  -2.11722   0.30344
