32
Generated by autodE on: 2022-07-27. E = -635.867534 Ha
C     2.56609  -1.96630  -0.32863
C     1.68938  -0.74323  -0.57162
O     2.04725   0.36377  -0.06532
C     0.54637  -0.94989  -1.36317
C     0.17095  -2.27533  -1.96820
N    -0.24821   0.17714  -1.68033
C    -0.46962   0.47907  -3.10227
C    -0.60753   1.04927  -0.75858
C    -1.02743   2.42904  -1.15444
C    -0.70554   0.64051   0.65489
C    -1.33850  -0.57193   0.99528
C    -1.50370  -0.93022   2.33069
C    -1.02684  -0.09480   3.35137
C    -0.39699   1.10689   3.02291
C    -0.24075   1.47560   1.68298
H     2.80417  -2.51376  -1.25395
H     2.05744  -2.67804   0.34490
H     3.50173  -1.64452   0.14968
H     0.87244  -2.63451  -2.74384
H    -0.82775  -2.22972  -2.42643
H     0.12376  -3.06482  -1.19787
H     0.26397   1.22603  -3.44085
H    -1.48386   0.86337  -3.26851
H    -0.32752  -0.43708  -3.68358
H    -2.03418   2.40359  -1.60744
H    -1.07894   3.08507  -0.27795
H    -0.34438   2.86954  -1.89588
H    -1.71475  -1.22496   0.20625
H    -2.01309  -1.86395   2.58039
H    -1.15393  -0.38108   4.39805
H    -0.02225   1.76396   3.81119
H     0.26202   2.41140   1.43280
