26
Generated by autodE on: 2022-06-26. E = -689.460850 Ha
C     2.93985  -1.69402  -0.16277
O     1.52230  -1.88878  -0.20489
C     0.65218  -0.88979  -0.05850
C     0.88690   0.42938   0.19221
O     2.13837   0.94017   0.38692
C     2.65466   1.75209  -0.67298
C    -0.24180   1.37160   0.35058
O    -0.01403   2.54849   0.62571
C    -1.64498   0.88405   0.18798
C    -2.74760   1.88613   0.32230
C    -1.89078  -0.42716  -0.05580
C    -3.28049  -0.96393  -0.20841
C    -0.76398  -1.38626  -0.18491
O    -0.95534  -2.57459  -0.40332
H     3.37228  -2.68959  -0.32427
H     3.26849  -1.01701  -0.96408
H     3.25616  -1.30382   0.81310
H     3.65935   2.06920  -0.36333
H     2.02721   2.63992  -0.84060
H     2.72702   1.17105  -1.60742
H    -2.35008   2.89049   0.50886
H    -3.42309   1.61287   1.15009
H    -3.36517   1.91004  -0.59070
H    -3.88106  -0.75358   0.69169
H    -3.79593  -0.47557  -1.05202
H    -3.27101  -2.04643  -0.38180
