58
Generated by autodE on: 2022-06-26. E = -1325.305410 Ha. Imaginary frequency = -236.9 cm-1
C     4.18764  -1.58535   1.41514
O     3.73870  -1.18036   0.11990
C     2.76412  -0.27223  -0.04277
C     2.29633   0.62551   0.86838
O     2.85365   0.76876   2.10828
C     2.01319   0.45321   3.22341
C     1.25704   1.60831   0.49352
O     1.06384   2.56494   1.24951
C     0.55240   1.49817  -0.81605
C     0.28334   2.87218  -1.40880
C    -1.58475   0.85046  -0.33099
C    -2.41421   1.98419  -0.89749
C    -1.82576   0.73005   1.13724
C    -2.41598  -0.43602   1.66333
C    -2.77941  -0.51543   3.00680
C    -2.56626   0.57201   3.86118
C    -2.01322   1.74741   3.34506
C    -1.66403   1.83251   1.99508
N    -1.60925  -0.32871  -1.11158
C    -2.68820  -0.43688  -2.11556
C    -0.60588  -1.26045  -1.16424
C    -0.55876  -2.17918  -2.35070
C     0.14744  -1.70362   0.03166
C     0.96615  -2.97225  -0.08588
O     0.11260  -1.10924   1.10756
C     1.01329   0.48364  -1.71723
C     0.66802   0.59715  -3.17624
C     2.18185  -0.32549  -1.41948
O     2.71672  -1.06944  -2.26096
H     4.80807  -2.47500   1.24422
H     3.33785  -1.85252   2.06019
H     4.78741  -0.80211   1.89629
H     2.58046   0.71858   4.12549
H     1.07570   1.02719   3.20006
H     1.77833  -0.62279   3.23857
H    -0.17321   3.54657  -0.67677
H     1.24774   3.31831  -1.70951
H    -0.35058   2.83846  -2.29878
H    -3.48589   1.80710  -0.70903
H    -2.27036   2.13461  -1.97241
H    -2.15851   2.91341  -0.37728
H    -2.60034  -1.28511   1.00455
H    -3.23310  -1.43329   3.38884
H    -2.84341   0.50828   4.91613
H    -1.85797   2.61202   3.99507
H    -1.24170   2.75811   1.61179
H    -3.60557  -0.01786  -1.69052
H    -2.45788   0.08256  -3.05555
H    -2.88065  -1.49312  -2.32372
H     0.47761  -2.49300  -2.52685
H    -0.91885  -1.70098  -3.26601
H    -1.15344  -3.09341  -2.18071
H     1.43304  -3.16516   0.88805
H     0.32589  -3.82594  -0.35837
H     1.74974  -2.89476  -0.85252
H     1.25930   1.40731  -3.63957
H     0.90396  -0.32426  -3.71906
H    -0.38988   0.84574  -3.32669
