61
Generated by autodE on: 2022-06-26. E = -1663.341881 Ha
C     1.98352  -2.25435  -3.28789
N     1.63176  -1.94636  -1.91637
C     2.04778  -0.81843  -1.32706
O     2.89484  -0.06307  -1.80268
C     1.42580  -0.55145   0.07525
C     2.50009  -0.88866   1.12498
O     2.43519  -1.85625   1.84927
O     3.52963  -0.05833   1.06441
C     4.59080  -0.27000   2.00859
O     0.34220  -1.42721   0.32670
C    -0.94244  -0.81487   0.16268
C    -1.66693  -0.73864   1.53262
C    -1.21598  -1.69005   2.59497
O    -2.59815   0.03235   1.66802
C    -1.83019  -1.73337  -0.67566
C    -1.51250  -3.09543  -0.77042
C    -2.33858  -3.96517  -1.48902
C    -3.49526  -3.48530  -2.10654
C    -3.82412  -2.12972  -1.99710
C    -3.00262  -1.25816  -1.28095
C    -0.61667   0.57743  -0.47979
O    -0.51851   0.31825  -1.85089
C    -0.21049   1.33862  -2.80348
C    -1.60601   1.72606  -0.19065
O    -2.50290   1.94831  -0.98658
C    -1.42596   2.58926   1.00704
C    -2.52733   3.57212   1.23205
C    -0.37664   2.42049   1.85873
C    -0.19718   3.19218   3.13143
C     0.57398   1.31404   1.62306
O     1.20097   0.80349   2.53577
C     0.77399   0.87367   0.15616
O     1.33262   1.92682  -0.56180
C     2.52208   2.56655  -0.09920
H     1.43568  -1.60856  -3.99564
H     1.73236  -3.30162  -3.49709
H     3.06002  -2.10434  -3.44712
H     0.84500  -2.42624  -1.49231
H     5.32979   0.51384   1.80897
H     5.03766  -1.26394   1.86689
H     4.20380  -0.17927   3.03351
H    -1.19822  -2.71679   2.19823
H    -0.18514  -1.44855   2.89258
H    -1.89026  -1.62363   3.45763
H    -0.62128  -3.48267  -0.27599
H    -2.07470  -5.02282  -1.55906
H    -4.14142  -4.16391  -2.66809
H    -4.72718  -1.74437  -2.47599
H    -3.26664  -0.20397  -1.21394
H     0.86069   1.31930  -3.04701
H    -0.79461   1.10506  -3.70573
H    -0.48102   2.34267  -2.45505
H    -3.45783   3.02614   1.46456
H    -2.72310   4.14514   0.31322
H    -2.31498   4.26347   2.05436
H    -0.36247   4.26691   2.97219
H    -0.92344   2.85553   3.89076
H     0.80961   3.04287   3.54102
H     2.57800   3.51836  -0.64376
H     3.40556   1.95713  -0.32401
H     2.48746   2.77925   0.98112
