21
Generated by autodE on: 2022-10-21. E = -641.255153 Ha
C    -2.96859  -2.37133  -0.54373
N    -1.62732  -1.82311  -0.47161
C    -1.41116  -0.57604   0.00425
O    -2.32727   0.14195   0.42249
C    -0.00660  -0.07758  -0.00892
N     0.10755   1.21771   0.11629
C     0.21033   2.38588   0.23015
C     0.32937   3.72763   0.36493
N     0.43266   4.89009   0.48198
C     1.29014  -0.80023  -0.14286
O     2.32075  -0.18887  -0.44855
N     1.27973  -2.13067   0.09941
C     2.50156  -2.91096   0.03981
H    -3.47320  -2.27850   0.42860
H    -3.58441  -1.85277  -1.29779
H    -2.90245  -3.43343  -0.81018
H    -0.88529  -2.29529  -0.97735
H     0.46566  -2.54553   0.54084
H     3.02399  -2.73126  -0.91064
H     3.19214  -2.65710   0.86166
H     2.24499  -3.97533   0.10887
