34
Generated by autodE on: 2022-10-21. E = -985.910868 Ha. Imaginary frequency = -318.6 cm-1
C    -3.03427  -2.99932   1.47498
N    -2.16824  -2.11316   0.72309
C    -2.26879  -0.77366   0.84025
O    -3.08979  -0.23763   1.59257
C    -1.30882   0.01869   0.00798
C    -1.31488   1.52067   0.03191
O    -1.58802   2.14769   1.06021
N    -0.99480   2.13717  -1.12336
C    -0.86859   3.58034  -1.18743
N    -0.63329  -0.58831  -0.93511
C     0.46020  -0.80928  -1.42711
C     0.88902  -1.17947  -2.70337
N     1.30853  -1.47910  -3.75009
C     1.89954   0.00997   0.02747
C     3.17738  -0.37696  -0.56793
C     4.30779   0.59194  -0.33192
O     3.32020  -1.41100  -1.20552
C     1.36173   0.39029   1.08658
O     1.07144   0.89043   2.22497
C     0.08850   0.22196   3.07016
H    -2.80579  -4.03506   1.19684
H    -4.09497  -2.79823   1.25751
H    -2.88330  -2.88106   2.56006
H    -1.47399  -2.51651   0.10323
H    -0.84522   1.59730  -1.96841
H    -0.51272   3.85912  -2.18650
H    -1.83379   4.07902  -1.00283
H    -0.14984   3.94489  -0.43725
H     5.23064   0.20964  -0.78821
H     4.45150   0.74418   0.74952
H     4.05099   1.57151  -0.76636
H     0.30889   0.54882   4.09245
H    -0.90843   0.55573   2.76326
H     0.19873  -0.86540   2.97350
