41
Generated by autodE on: 2022-06-19. E = -977.372106 Ha
C     3.13592  -1.88959   0.55767
O     2.87352  -0.72422  -0.23268
C     1.58713  -0.29982  -0.32898
C     1.24148   0.98840  -0.03140
O     1.98818   1.93517   0.53502
C     3.14419   1.59945   1.31623
C    -0.04004   1.51803  -0.58008
O    -0.08781   2.68537  -0.93094
C    -1.26562   0.61376  -0.60279
C    -2.22905   1.15469  -1.65945
C    -1.86313   0.67023   0.88135
C    -3.37562   0.44090   0.90089
C    -1.52254   1.92069   1.68338
O    -1.17764  -0.41277   1.50865
N    -1.30400  -1.48906   0.57194
C    -0.57029  -2.61578   1.11518
C    -0.89872  -0.91186  -0.75786
C    -1.69044  -1.64478  -1.83437
C     0.60044  -1.17701  -0.97762
O     0.98064  -2.17645  -1.58129
H     4.21895  -2.05954   0.50310
H     2.60740  -2.76919   0.16561
H     2.84577  -1.71520   1.60636
H     3.38523   2.50648   1.88474
H     3.98866   1.32380   0.67283
H     2.91529   0.77647   2.00936
H    -2.49513   2.19301  -1.42340
H    -1.75491   1.14673  -2.65107
H    -3.15055   0.56848  -1.71437
H    -3.67166  -0.42822   0.30201
H    -3.90858   1.32562   0.52725
H    -3.68353   0.26897   1.94341
H    -0.44169   2.03361   1.84279
H    -2.00786   1.86250   2.66863
H    -1.89307   2.81658   1.16710
H    -0.53237  -3.40773   0.35635
H    -1.11491  -3.00006   1.99003
H     0.45747  -2.36425   1.42820
H    -1.44770  -1.26010  -2.83460
H    -1.43875  -2.71325  -1.81445
H    -2.76669  -1.53735  -1.65876
