65
Generated by autodE on: 2022-06-30. E = -1625.536831 Ha
C    -1.87925  -3.06312  -2.86995
N    -1.77140  -2.48720  -1.54304
C    -0.68943  -1.82978  -1.10558
O     0.35657  -1.73848  -1.76164
C    -0.83933  -1.04268   0.23018
C    -1.53502  -1.85615   1.32027
C    -2.31097  -1.21378   2.29782
C    -2.90455  -1.93949   3.33231
C    -2.72999  -3.32410   3.41088
C    -1.95583  -3.97334   2.44566
C    -1.36460  -3.24564   1.40989
N    -1.56385   0.20666  -0.03489
C    -2.95228   0.15443  -0.46924
C    -0.70813   1.16533  -0.72499
C    -0.86125   0.94596  -2.19817
N    -1.19904   0.71397  -3.30005
C    -1.14421   2.60919  -0.43392
C    -0.87197   3.63958  -1.34151
C    -1.21979   4.95877  -1.03818
C    -1.84613   5.25933   0.17460
C    -2.11910   4.23223   1.08347
C    -1.76825   2.91433   0.78212
C     0.75754   0.82953  -0.18751
C     1.34934   1.99938   0.63695
C     1.77299   0.73355  -1.32283
O     1.69023   1.46191  -2.30424
C     2.97435  -0.09512  -1.12755
O     4.02644   0.14096  -1.95816
C     4.69603   1.39527  -1.78905
C     2.94622  -1.15898  -0.27503
O     3.91681  -2.03733  -0.01916
C     5.28352  -1.78242  -0.36482
C     1.67476  -1.53464   0.41878
O     1.58862  -2.64289   0.92063
C     0.58457  -0.49140   0.64986
C     0.64221  -0.22936   2.16928
H    -0.96033  -2.84564  -3.42612
H    -2.73509  -2.62754  -3.40770
H    -2.01678  -4.15448  -2.81731
H    -2.58230  -2.53879  -0.93501
H    -2.44614  -0.13359   2.24988
H    -3.50538  -1.41802   4.08105
H    -3.19525  -3.89375   4.21875
H    -1.80831  -5.05464   2.49560
H    -0.75386  -3.77095   0.67708
H    -3.50941  -0.55867   0.14944
H    -3.41219   1.14346  -0.33796
H    -3.07243  -0.13885  -1.52696
H    -0.37078   3.41679  -2.28489
H    -0.99957   5.75341  -1.75469
H    -2.12121   6.28992   0.41064
H    -2.60816   4.45645   2.03431
H    -1.97386   2.11266   1.49206
H     1.46637   2.88309  -0.00157
H     0.70910   2.27257   1.48057
H     2.33985   1.71966   1.01913
H     5.47657   1.43903  -2.55962
H     5.16154   1.44921  -0.79120
H     4.00588   2.24146  -1.92004
H     5.86266  -2.55938   0.15038
H     5.44063  -1.85646  -1.44799
H     5.59658  -0.79055  -0.00659
H     0.49064  -1.16662   2.71524
H     1.62440   0.16919   2.45405
H    -0.12867   0.48706   2.47657
