39
Generated by autodE on: 2022-07-27. E = -936.039014 Ha
C    -0.43440  -0.38373  -3.39505
N    -0.86893  -0.47244  -2.01346
C    -0.03825  -0.93809  -1.05848
O     1.01732  -1.52203  -1.33621
C    -0.46978  -0.78847   0.36908
C    -0.12908  -1.88252   1.28108
C     0.38009  -1.62914   2.57219
C     0.72279  -2.68140   3.42086
C     0.57379  -4.00624   2.99784
C     0.08367  -4.27146   1.71345
C    -0.26173  -3.22388   0.86236
N    -1.05208   0.34287   0.80683
C    -1.91753   0.30957   2.00638
C    -0.89972   1.56987   0.19478
C    -1.90827   2.53542   0.37913
N    -2.70955   3.38103   0.50808
C     0.25839   1.92906  -0.63936
C     0.09526   2.81178  -1.72530
C     1.18905   3.20847  -2.49691
C     2.46913   2.72955  -2.20588
C     2.64422   1.85519  -1.12523
C     1.55735   1.45675  -0.35119
H    -1.22347   0.09955  -3.98340
H    -0.24194  -1.38266  -3.81480
H     0.49063   0.20930  -3.48390
H    -1.67386   0.07915  -1.73567
H     0.52939  -0.60033   2.90364
H     1.12077  -2.46444   4.41488
H     0.84498  -4.82936   3.66281
H    -0.03406  -5.30341   1.37482
H    -0.65121  -3.44124  -0.13395
H    -2.12822  -0.72587   2.28229
H    -2.86183   0.80828   1.75291
H    -1.43937   0.84539   2.83550
H    -0.90252   3.18176  -1.97073
H     1.03557   3.88993  -3.33706
H     3.32470   3.03279  -2.81336
H     3.64109   1.48042  -0.88108
H     1.71794   0.77100   0.48249
