26
Generated by autodE on: 2022-06-30. E = -689.460863 Ha
C     3.08200  -1.00992   0.23258
O     2.24508  -0.30177  -0.68783
C     0.93762  -0.16116  -0.32021
C     0.39602   1.03117   0.05776
O     0.98452   2.21941   0.19313
C     2.39502   2.40740   0.03578
C    -1.07398   1.11819   0.37255
O    -1.54232   2.19740   0.70820
C    -1.91559  -0.10251   0.28423
C    -3.36881   0.02996   0.62075
C    -1.36373  -1.28550  -0.08303
C    -2.16992  -2.54209  -0.17766
C     0.08566  -1.36396  -0.43713
O     0.57774  -2.41787  -0.83672
H     4.08825  -1.02445  -0.20672
H     3.11578  -0.49073   1.20491
H     2.73290  -2.04256   0.37973
H     2.56980   3.46928   0.25049
H     2.71343   2.17709  -0.98896
H     2.95585   1.79081   0.75265
H    -3.62619   1.06681   0.86695
H    -3.99624  -0.30150  -0.22271
H    -3.62987  -0.61164   1.47874
H    -2.97458  -2.43266  -0.92411
H    -2.66274  -2.76175   0.78357
H    -1.54254  -3.39543  -0.46032
