65
Generated by autodE on: 2022-06-30. E = -1625.479357 Ha. Imaginary frequency = -234.3 cm-1
C    -0.42865  -2.58199  -3.26292
N    -0.94275  -2.01627  -2.03179
C    -0.14914  -1.86166  -0.95462
O     0.98519  -2.33460  -0.90806
C    -0.87729  -1.16931   0.21085
C    -1.48829  -2.13900   1.13957
C    -2.41867  -1.78446   2.14493
C    -2.90327  -2.72797   3.04767
C    -2.46894  -4.05522   2.99342
C    -1.53214  -4.42363   2.02422
C    -1.04834  -3.48535   1.11533
N    -1.51079   0.01652  -0.14227
C    -2.97241   0.17294   0.01325
C    -0.78505   1.03765  -0.75662
C     0.15440   0.66136  -1.77131
N     0.89983   0.44226  -2.63823
C    -1.27886   2.42216  -0.89138
C    -0.77341   3.24156  -1.92838
C    -1.14230   4.58022  -2.03843
C    -2.02897   5.14832  -1.11958
C    -2.53352   4.35757  -0.08345
C    -2.16321   3.01986   0.03582
C     0.88297   1.13893   1.00491
C     0.26761   2.26591   1.78134
C     2.01984   1.54031   0.14445
O     2.17130   2.71734  -0.20680
C     3.01290   0.52560  -0.25544
O     4.09931   0.93372  -0.97402
C     3.91353   1.42184  -2.30698
C     2.92231  -0.75416   0.20742
O     3.74035  -1.77021  -0.09305
C     4.33344  -1.85346  -1.39263
C     1.90273  -1.12699   1.23874
O     2.05353  -2.16509   1.87892
C     0.80075  -0.18077   1.52485
C     0.18264  -0.36921   2.88560
H    -1.24837  -2.65952  -3.98727
H    -0.00858  -3.58295  -3.08628
H     0.36522  -1.94236  -3.68338
H    -1.85030  -1.56245  -2.04704
H    -2.75549  -0.75862   2.25280
H    -3.62148  -2.41567   3.80903
H    -2.85032  -4.79195   3.70389
H    -1.16989  -5.45277   1.97247
H    -0.30386  -3.80534   0.38895
H    -3.43164  -0.81806  -0.06840
H    -3.33765   0.79492  -0.81099
H    -3.27164   0.62831   0.96245
H    -0.08465   2.82697  -2.66331
H    -0.73379   5.18162  -2.85353
H    -2.32093   6.19706  -1.20763
H    -3.21832   4.78667   0.65133
H    -2.55167   2.45535   0.87726
H     0.28974   3.20299   1.21634
H     0.84276   2.42057   2.71223
H    -0.76462   2.04874   2.07876
H     4.89929   1.77265  -2.64114
H     3.56448   0.61669  -2.97033
H     3.19903   2.25432  -2.33525
H     3.59212  -1.59698  -2.16485
H     5.20775  -1.19601  -1.48140
H     4.64114  -2.90041  -1.51487
H    -0.81464   0.07819   2.95453
H     0.81504   0.12900   3.64139
H     0.11478  -1.42813   3.15298
