32
Generated by autodE on: 2022-06-17. E = -954.629820 Ha
C    -3.96794  -0.14698   2.29192
O    -2.66072  -0.21112   1.68938
C    -2.56386   0.19267   0.43425
O    -3.46753   0.61073  -0.25149
C    -1.15664  -0.00674  -0.09076
O    -0.89258   0.95785  -1.14466
C     0.46047   1.06509  -1.18885
O     1.06050   1.73683  -1.97935
C     0.94145   0.12411  -0.07256
C     2.26626   0.43536   0.57405
O     2.40763   0.63874   1.75739
O     3.23678   0.41835  -0.32933
C     4.57314   0.66107   0.14852
O    -0.14623   0.25841   0.85051
C     0.74996  -1.32759  -0.63839
C     1.43083  -2.37844   0.22785
C    -0.80774  -1.41805  -0.62296
C    -1.46133  -1.78596  -1.94398
H    -4.32440   0.89221   2.30847
H    -3.84578  -0.52727   3.31175
H    -4.67349  -0.77328   1.72827
H     4.85876  -0.11245   0.87504
H     4.63297   1.65278   0.61791
H     5.21959   0.61536  -0.73455
H     1.13434  -1.37049  -1.66695
H     1.13919  -3.38507  -0.10798
H     1.13395  -2.26760   1.28184
H     2.52650  -2.30155   0.15988
H    -1.12044  -2.11993   0.16374
H    -1.16329  -1.09185  -2.74376
H    -2.55877  -1.76697  -1.85967
H    -1.15997  -2.80147  -2.24122
