12
Generated by autodE on: 2022-06-17. E = -157.300301 Ha
C    -1.96070  -0.10786  -0.04172
C    -0.54141   0.35577  -0.17031
C     0.54141  -0.35574   0.17039
C     1.96070   0.10783   0.04166
H    -2.47210  -0.10799  -1.02079
H    -2.54509   0.56679   0.60897
H    -2.02193  -1.12494   0.37646
H    -0.39625   1.36505  -0.58047
H     0.39624  -1.36501   0.58056
H     2.54481  -0.56646  -0.60967
H     2.02191   1.12517  -0.37592
H     2.47242   0.10726   1.02056
