20
Generated by autodE on: 2022-06-17. E = -797.258546 Ha
C     3.84831   1.96167  -0.62073
O     2.54980   1.36383  -0.42279
C     2.51954   0.05535  -0.28013
O     3.44987  -0.71376  -0.29479
C     1.11548  -0.42682  -0.08420
O     0.82099  -1.66293   0.06020
C    -0.70277  -1.74829   0.24207
O    -1.20810  -2.82203   0.39498
C    -1.04179  -0.39229   0.16145
C    -2.34495   0.22743   0.24346
O    -3.37271  -0.40751   0.41778
O    -2.29007   1.55862   0.10550
C    -3.54183   2.25777   0.16622
O     0.10304   0.36935  -0.03928
H     3.66570   3.03551  -0.73094
H     4.31324   1.55036  -1.52729
H     4.48590   1.76216   0.25162
H    -3.30008   3.31810   0.03012
H    -4.02529   2.10045   1.14128
H    -4.21390   1.91590  -0.63422
