32
Generated by autodE on: 2022-06-17. E = -954.558887 Ha. Imaginary frequency = -327.4 cm-1
C    -3.87032  -0.25784   2.33247
O    -2.56521  -0.15058   1.73103
C    -2.52536   0.25602   0.47377
O    -3.47323   0.53896  -0.22394
C    -1.12619   0.26677  -0.04129
O    -0.86416   0.90689  -1.18689
C     0.55682   1.03601  -1.27311
O     1.08537   1.43222  -2.28424
C     0.99014   0.60119   0.01434
C     2.29422   0.58844   0.64656
O     2.47667   0.34560   1.82714
O     3.26823   0.83983  -0.23697
C     4.61106   0.81798   0.26849
O    -0.10785   0.37515   0.80235
C     0.50504  -1.84156  -0.76215
C     1.29874  -2.38754   0.37788
C    -0.88076  -1.77448  -0.74787
C    -1.67880  -1.74081  -2.02568
H    -4.36612   0.72266   2.33475
H    -3.69782  -0.60399   3.35703
H    -4.48072  -0.98346   1.77684
H     4.85098  -0.17371   0.67862
H     4.74092   1.57942   1.05111
H     5.25734   1.04071  -0.58809
H     1.02140  -1.67956  -1.71427
H     1.20297  -3.48909   0.38871
H     0.91788  -2.02577   1.34639
H     2.36801  -2.15056   0.29515
H    -1.37685  -2.19795   0.13385
H    -1.12570  -1.22905  -2.82689
H    -2.65199  -1.24515  -1.89765
H    -1.88052  -2.77261  -2.35964
