23
Generated by autodE on: 2022-07-27. E = -626.187246 Ha
C    -2.49676   1.32520   1.17156
C    -2.86448   0.40568   0.04336
O    -4.03826   0.25636  -0.30787
C    -1.82999  -0.33721  -0.68150
C    -2.25152  -1.15843  -1.75711
N    -2.59923  -1.83161  -2.64413
N    -0.48852  -0.32353  -0.44060
N     0.11674   0.27652   0.50360
C     1.51037   0.21475   0.53102
C     2.33254  -0.20417  -0.53709
C     3.71611  -0.22436  -0.37728
C     4.30098   0.17686   0.83061
C     3.48997   0.61090   1.88502
C     2.10556   0.63733   1.73665
H    -2.02854   0.76076   1.99193
H    -1.75539   2.06964   0.84489
H    -3.40946   1.82223   1.52563
H     0.05733  -0.88506  -1.11691
H     1.91171  -0.49011  -1.50353
H     4.34624  -0.54466  -1.20988
H     5.38704   0.16096   0.94371
H     3.93943   0.93301   2.82683
H     1.45766   0.97272   2.54831
