23
Generated by autodE on: 2022-06-18. E = -626.196579 Ha
C     4.33903  -0.36373  -0.49416
C     2.87494  -0.69498  -0.54140
O     2.44252  -1.75516  -1.00519
C     1.93804   0.29090  -0.01071
C     2.30749   1.53320   0.54247
N     2.63454   2.55725   0.99688
N     0.62785  -0.05586  -0.07694
N    -0.35480   0.65055   0.30620
C    -1.63947   0.12158   0.17835
C    -2.68392   1.00473   0.51635
C    -4.01184   0.59402   0.42424
C    -4.31578  -0.70387   0.00048
C    -3.28054  -1.58954  -0.32875
C    -1.95000  -1.18954  -0.24208
H     4.53654   0.57332  -1.03932
H     4.91815  -1.18243  -0.93911
H     4.65923  -0.20536   0.54846
H     0.51346  -0.99907  -0.49848
H    -2.42547   2.01293   0.84461
H    -4.81327   1.28853   0.68500
H    -5.35577  -1.02947  -0.07036
H    -3.51398  -2.60620  -0.65245
H    -1.16905  -1.90911  -0.49520
