14
Generated by autodE on: 2022-06-18. E = -270.683217 Ha
C    -0.73238   1.40837   0.04481
C    -0.79943  -0.06165   0.34530
C    -2.06774  -0.55098   0.96982
C     0.21659  -0.92802   0.08012
C     1.49586  -0.58134  -0.52021
O     1.86116   0.53651  -0.87709
H    -1.66716   1.91391   0.32473
H    -0.53636   1.58380  -1.02467
H     0.10341   1.88135   0.58485
H    -2.25061  -0.01354   1.91706
H    -2.92485  -0.31124   0.31614
H    -2.05539  -1.63199   1.16574
H     0.08836  -1.98536   0.32962
H     2.18647  -1.44948  -0.65204
