37
Generated by autodE on: 2022-06-18. E = -896.848531 Ha. Imaginary frequency = -322.1 cm-1
C    -1.79689   2.50501  -0.19577
C    -2.37590   1.18575  -0.61451
O    -3.57388   1.02904  -0.80428
C    -1.46414   0.00631  -0.82799
C    -1.95881  -0.89296  -1.83320
N    -2.35981  -1.62721  -2.63967
N    -0.08435   0.20326  -0.90599
N     0.45696   0.62709   0.21074
C     1.85160   0.80624   0.21199
C     2.65581   0.68146  -0.93503
C     4.03495   0.88218  -0.83843
C     4.62253   1.20262   0.38791
C     3.81818   1.34009   1.52805
C     2.44245   1.15358   1.44251
C    -0.22387  -0.95325   1.43307
C     0.80197  -1.83091   0.91213
O     0.75301  -2.37936  -0.19423
C    -1.60921  -1.01997   1.03265
C    -2.20144  -2.35018   0.60683
C    -2.55214  -0.22904   1.91337
H    -2.58648   3.26510  -0.25524
H    -1.41233   2.44679   0.83184
H    -0.94908   2.78071  -0.84026
H     0.42792  -0.50840  -1.45135
H     2.21230   0.45896  -1.90618
H     4.65235   0.79278  -1.73515
H     5.70160   1.35648   0.45605
H     4.26920   1.60037   2.48822
H     1.80620   1.25572   2.32327
H     0.00571  -0.45122   2.37454
H     1.72359  -1.91136   1.52962
H    -1.54953  -2.91432  -0.06649
H    -2.37099  -2.95401   1.51470
H    -3.18012  -2.20593   0.12795
H    -2.70780  -0.79317   2.84886
H    -3.53601  -0.10250   1.44330
H    -2.14893   0.75694   2.18057
