27
Generated by autodE on: 2022-07-27. E = -648.766988 Ha
C     2.78050  -1.24976   2.10098
C     1.94156  -0.43092   1.19878
N     0.87115  -0.87293   0.61222
C     0.45467  -2.27388   0.80926
C    -0.02591   0.04058  -0.01978
C    -0.44437   1.18318   0.78862
O     0.01517   1.40388   1.93418
N    -1.37319   2.01088   0.24628
C    -1.90588   3.13498   0.97987
C    -0.49212  -0.23917  -1.33042
O    -1.34758   0.40272  -1.96551
O     0.11470  -1.32420  -1.90190
C    -0.34938  -1.71035  -3.19340
H     3.62701  -0.66178   2.47480
H     3.16446  -2.14065   1.57500
H     2.18752  -1.61825   2.95607
H     2.20753   0.60595   0.98949
H    -0.45225  -2.46107   0.23127
H     0.25091  -2.43906   1.87735
H     1.25166  -2.95560   0.48506
H    -1.74471   1.74717  -0.66497
H    -2.51143   2.82438   1.84999
H    -2.54568   3.72595   0.31128
H    -1.10120   3.78661   1.35669
H     0.23111  -2.59904  -3.47203
H    -0.18217  -0.91208  -3.93261
H    -1.42181  -1.95877  -3.17557
