36
Generated by autodE on: 2022-06-07. E = -871.401307 Ha
F     1.43224  -1.59117  -1.24646
C     0.96533  -0.70785  -0.32270
C    -0.30479  -0.25560  -0.45126
C    -0.79828   0.86332   0.39901
C    -1.97860   0.71610   1.14736
C    -2.44469   1.75812   1.95162
C    -1.74553   2.96873   2.00906
C    -0.58164   3.13226   1.25078
C    -0.11342   2.08878   0.44982
C    -1.24221  -0.80088  -1.46588
C    -1.28033  -2.17100  -1.79302
C    -2.18761  -2.65479  -2.73655
C    -3.07608  -1.78401  -3.37645
C    -3.05358  -0.42272  -3.05734
C    -2.15201   0.06181  -2.10834
C     1.98826  -0.38490   0.68359
C     1.65457  -0.11891   2.02560
C     2.65176   0.16959   2.95597
C     3.99672   0.19196   2.56849
C     4.33914  -0.09087   1.24283
C     3.34512  -0.38364   0.30798
H    -2.52621  -0.22800   1.10432
H    -3.35762   1.62457   2.53699
H    -2.11123   3.78464   2.63695
H    -0.03738   4.07929   1.27947
H     0.79379   2.21891  -0.14352
H    -0.60201  -2.86423  -1.29506
H    -2.20507  -3.72247  -2.96868
H    -3.78517  -2.16551  -4.11489
H    -3.74370   0.26737  -3.54876
H    -2.14529   1.12570  -1.86417
H     0.61244  -0.15157   2.34269
H     2.37777   0.36976   3.99438
H     4.77506   0.41982   3.30040
H     5.38683  -0.08385   0.93335
H     3.61711  -0.60609  -0.72495
