49
Generated by autodE on: 2022-06-03. E = -1390.038040 Ha
C     3.97232  -0.23654  -2.31796
N     2.82846   0.17472  -1.53059
C     2.61420  -0.26169  -0.28637
O     3.38942  -0.97622   0.35482
C     1.25753   0.17336   0.31874
C     1.54955   0.60983   1.76946
O     1.71456   1.77604   2.06777
O     1.61334  -0.39303   2.62991
C     1.90335  -0.05880   3.99917
N     0.65267   1.25831  -0.43747
C    -0.79656   1.21146  -0.26750
C    -1.57177   1.87496  -1.41963
C    -0.83955   2.15496  -2.69174
O    -2.75396   2.11778  -1.25128
C    -1.19294   1.92833   1.04013
O    -1.61382   1.38861   2.04018
O    -0.92343   3.22868   0.94977
C    -1.08132   4.01522   2.14252
C    -1.12469  -0.29715  -0.16127
C    -1.42754  -1.03882  -1.49893
O    -0.12422  -1.23887  -2.04895
C     0.41047  -1.97381  -0.94213
C    -0.63657  -3.06153  -0.73009
C    -0.36286  -4.38043  -0.12031
C    -1.79819  -2.47117  -1.09551
C    -3.11006  -2.98018  -0.97953
N    -4.19983  -3.38565  -0.89343
C     0.21798  -0.98091   0.24807
H     4.15431   0.50173  -3.10952
H     4.86204  -0.30288  -1.67731
H     3.80953  -1.22220  -2.78598
H     2.06197   0.69414  -1.95461
H     1.91814  -1.00946   4.54334
H     1.11979   0.60046   4.39833
H     2.88006   0.43993   4.06887
H     1.04590   2.16490  -0.18266
H    -1.54162   2.50952  -3.45711
H    -0.30474   1.25569  -3.03175
H    -0.07093   2.92223  -2.50187
H    -2.11792   3.96040   2.50296
H    -0.39570   3.65198   2.92123
H    -0.82848   5.04341   1.86076
H    -1.93323  -0.44583   0.55914
H    -2.09997  -0.54402  -2.20596
H     1.43090  -2.31989  -1.13283
H     0.10082  -4.24011   0.87168
H    -1.27677  -4.97912  -0.00445
H     0.36637  -4.94060  -0.72919
H     0.17209  -1.51565   1.19963
