32
Generated by autodE on: 2022-06-03. E = -950.811969 Ha
C     2.75297   1.60348  -2.63793
N     2.34119   1.30009  -1.28278
C     1.28534   0.50503  -1.03816
O     0.55571   0.06296  -1.94145
C     1.04149   0.12790   0.37704
N    -0.11020  -0.45240   0.73367
C    -1.31806  -0.54848   0.18254
C    -2.23071  -1.42742   0.93906
C    -3.65781  -1.56905   0.49901
O    -1.79212  -2.01713   1.93024
C    -1.74406   0.38303  -0.89164
O    -1.53595   1.58070  -0.84499
O    -2.45450  -0.21553  -1.84301
C    -2.97293   0.62932  -2.88267
C     2.09337   0.15221   1.40180
O     3.18967   0.67902   1.26453
O     1.71837  -0.45802   2.53435
C     2.67226  -0.49753   3.60561
H     1.90039   1.97600  -3.22405
H     3.52991   2.37724  -2.60819
H     3.15644   0.71605  -3.15475
H     2.97183   1.48229  -0.50295
H    -0.08100  -0.96418   1.63499
H    -3.69751  -2.08163  -0.47449
H    -4.20853  -2.15290   1.24720
H    -4.13103  -0.58414   0.36444
H    -2.14548   1.11768  -3.41651
H    -3.52703  -0.03127  -3.55882
H    -3.64161   1.39284  -2.46030
H     3.57253  -1.04776   3.29669
H     2.17346  -1.01702   4.43135
H     2.94912   0.52259   3.90732
