49
Generated by autodE on: 2022-06-03. E = -1389.947627 Ha. Imaginary frequency = -269.1 cm-1
C     3.98512  -0.67579  -2.02779
N     2.78305  -0.24678  -1.33958
C     2.83473   0.20586  -0.06898
O     3.88849   0.30836   0.56379
C     1.50764   0.63843   0.50098
C     1.25698   0.59486   1.94761
O     0.37949   1.22327   2.52060
O     2.06816  -0.25751   2.58555
C     1.83160  -0.43223   3.98780
N     0.73217   1.35784  -0.33120
C    -0.60406   1.59729  -0.29115
C    -1.14495   1.90709  -1.64463
C    -2.58973   2.28249  -1.76639
O    -0.40500   1.79588  -2.62007
C    -1.28614   2.26038   0.87334
O    -2.34202   1.91514   1.36072
O    -0.65541   3.39361   1.19096
C    -1.18258   4.12624   2.30692
C    -1.27153  -0.56255  -0.03352
C    -1.26194  -1.15709  -1.45741
O     0.14622  -1.37567  -1.65121
C     0.34147  -2.16716  -0.46158
C    -0.71909  -3.26809  -0.67787
C    -0.59914  -4.65034  -0.17100
C    -1.72713  -2.63067  -1.31691
C    -2.98757  -3.13450  -1.69303
N    -4.03409  -3.53797  -2.01488
C    -0.22724  -1.21715   0.59886
H     3.73246  -0.90982  -3.06930
H     4.74400   0.12037  -2.01406
H     4.42412  -1.57176  -1.55775
H     1.87523  -0.50305  -1.73260
H     2.58288  -1.15286   4.33082
H     0.81967  -0.82664   4.16230
H     1.94826   0.52095   4.52336
H     1.04465   1.37534  -1.31229
H    -3.22595   1.54033  -1.26170
H    -2.86098   2.35891  -2.82644
H    -2.76530   3.25118  -1.27015
H    -0.53507   5.00255   2.42525
H    -2.21726   4.44031   2.10885
H    -1.15243   3.50462   3.21322
H    -2.17470  -0.19522   0.44845
H    -1.70747  -0.58765  -2.27658
H     1.37572  -2.50748  -0.35235
H    -0.44986  -4.62991   0.92304
H     0.29321  -5.13948  -0.59679
H    -1.48866  -5.25344  -0.39948
H    -0.14089  -1.40652   1.66619
