23
Generated by autodE on: 2022-06-20. E = -351.521380 Ha
C     3.69290  -0.29250   0.75885
C     2.57461   0.18086   0.16625
C     2.64000   1.26902  -0.87483
C     1.26879  -0.36557   0.53006
C     0.07739   0.01603   0.00493
C    -1.19080  -0.56145   0.40116
C    -2.41919  -0.24621  -0.08185
C    -3.64908  -0.93823   0.43422
C    -2.67540   0.78513  -1.14387
H     3.64164  -1.08311   1.51386
H     4.68267   0.09727   0.50519
H     3.67646   1.58887  -1.05228
H     2.05344   2.15029  -0.56620
H     2.21399   0.92815  -1.83312
H     1.27495  -1.15198   1.29448
H     0.06331   0.79877  -0.75839
H    -1.13614  -1.33655   1.17524
H    -3.41373  -1.68203   1.20953
H    -4.18555  -1.44698  -0.38690
H    -4.36168  -0.20688   0.85631
H    -3.18847   0.32444  -2.00656
H    -1.76591   1.27773  -1.51094
H    -3.35904   1.56433  -0.76283
