30
Generated by autodE on: 2022-06-20. E = -671.793291 Ha
C     4.35951   1.31501   0.27108
O     3.02314   0.90694   0.52906
C     2.48005  -0.00352  -0.36385
O     3.16905  -0.41043  -1.31565
C     1.15655  -0.30851   0.01348
N     0.30119  -1.18799  -0.64264
C     0.89780  -2.28517  -1.43328
C    -1.01709  -1.17818  -0.49607
C    -1.83682  -2.32049  -1.01499
C    -1.70035  -0.06891   0.20226
C    -1.47370   1.27470  -0.15929
C    -2.18715   2.30244   0.45375
C    -3.12779   2.01393   1.45106
C    -3.35959   0.68633   1.81854
C    -2.65999  -0.34846   1.19215
H     4.62312   2.02558   1.06589
H     5.05756   0.46270   0.29655
H     4.45249   1.81179  -0.70829
H     0.71794   0.25788   0.82824
H     0.74234  -3.23454  -0.90330
H     0.41745  -2.33992  -2.41720
H     1.96322  -2.08911  -1.55739
H    -1.74406  -2.41758  -2.10960
H    -1.52529  -3.28562  -0.58063
H    -2.89598  -2.16142  -0.78412
H    -0.74092   1.51060  -0.93296
H    -2.01043   3.33722   0.15100
H    -3.67886   2.82309   1.93582
H    -4.09115   0.45116   2.59507
H    -2.85155  -1.38412   1.48098
