30
Generated by autodE on: 2022-07-27. E = -671.797914 Ha
C    -4.32980  -2.21452  -0.97573
O    -3.42408  -2.05209   0.10857
C    -2.30825  -1.27575  -0.14124
O    -2.09777  -0.82764  -1.27993
C    -1.54974  -1.07703   1.03059
N    -0.38863  -0.31223   1.04636
C    -0.26668   0.58985   2.20671
C     0.56779  -0.39994   0.12621
C     0.62552  -1.58063  -0.77251
C     1.56492   0.67709  -0.02553
C     2.93393   0.37524  -0.16315
C     3.87227   1.39410  -0.32750
C     3.46112   2.73047  -0.37873
C     2.10233   3.04113  -0.26423
C     1.16175   2.02595  -0.08879
H    -4.73906  -1.24776  -1.31171
H    -5.14707  -2.84642  -0.60345
H    -3.84835  -2.70713  -1.83555
H    -1.97322  -1.32485   2.00159
H    -0.89928   1.47666   2.07125
H     0.77521   0.88561   2.36203
H    -0.62147   0.03820   3.08752
H     0.23404  -2.47056  -0.25066
H    -0.01734  -1.43640  -1.65820
H     1.65389  -1.75312  -1.11516
H     3.26766  -0.66306  -0.11870
H     4.93177   1.14296  -0.41573
H     4.19702   3.52646  -0.51373
H     1.77066   4.08055  -0.31918
H     0.10190   2.27661  -0.02170
