53
Generated by autodE on: 2022-06-20. E = -1023.290947 Ha. Imaginary frequency = -359.1 cm-1
C    -1.98006   0.48535   2.83013
C    -2.51230   0.04377   1.67311
C    -3.88433  -0.58083   1.64726
C    -1.83959   0.15111   0.35326
C    -1.09133  -1.96730   0.37615
C    -1.56599  -2.72318  -0.78110
O    -0.90083  -3.28173  -1.64463
O    -2.92050  -2.80682  -0.76998
C    -3.52083  -3.60996  -1.78807
N     0.24986  -1.66376   0.57732
C     0.72291  -1.94943   1.94199
C     0.88894  -0.76930  -0.23553
C     0.61446  -0.82897  -1.71303
C     2.19611  -0.18275   0.15958
C     3.25499  -0.13866  -0.77112
C     4.46053   0.49753  -0.46908
C     4.64014   1.11551   0.77111
C     3.60136   1.08303   1.70759
C     2.39888   0.44673   1.40648
C    -0.69841   0.95009   0.14262
C    -0.54507   1.74682  -1.06303
C     0.31009   2.77602  -1.28378
C     0.34792   3.47645  -2.61510
C     1.29026   3.29640  -0.26753
H    -2.52002   0.36825   3.77382
H    -0.99982   0.96591   2.87855
H    -4.32109  -0.65272   2.65378
H    -4.56531   0.01590   1.01562
H    -3.85244  -1.58653   1.20052
H    -2.51423   0.02762  -0.50007
H    -1.59114  -2.29389   1.28778
H    -3.29617  -3.20908  -2.78781
H    -3.16513  -4.64981  -1.73050
H    -4.60179  -3.57374  -1.60589
H     1.81684  -1.97857   1.96566
H     0.35963  -1.20759   2.66459
H     0.34368  -2.93702   2.23000
H    -0.45464  -0.87366  -1.93378
H     1.07685  -1.72681  -2.15509
H     1.02417   0.05760  -2.20652
H     3.14276  -0.61651  -1.74432
H     5.26314   0.50988  -1.21037
H     5.57942   1.62170   1.00571
H     3.72085   1.57451   2.67596
H     1.59322   0.48207   2.13723
H    -0.15964   1.29333   1.02559
H    -1.20470   1.46657  -1.89312
H    -0.36627   3.04360  -3.33210
H     0.12252   4.55401  -2.51063
H     1.35803   3.42067  -3.06208
H     1.11753   2.90162   0.74177
H     2.32729   3.03769  -0.54964
H     1.24972   4.39922  -0.21910
