54
Generated by autodE on: 2022-06-24. E = -1323.024998 Ha
C    -1.61231   3.89675   1.66951
N    -1.31196   2.52438   1.31329
C    -1.84714   1.95593   0.22744
O    -2.75299   2.45019  -0.45129
C    -1.31257   0.54720  -0.12970
C    -2.48188  -0.41019   0.10756
C    -3.50781  -0.55002  -0.83726
C    -4.59301  -1.39327  -0.58448
C    -4.67177  -2.09956   0.61934
C    -3.66262  -1.94573   1.57434
C    -2.57822  -1.10105   1.32292
O    -0.22447   0.18869   0.72742
C     0.99541   0.00814   0.01913
C     1.78654   1.33275   0.18118
O     1.58556   2.09053   1.10835
O     2.75264   1.50818  -0.70657
C     3.55813   2.69065  -0.56599
C     1.83108  -1.06567   0.72138
C     1.26947  -1.84309   1.74270
C     2.01652  -2.85056   2.35901
C     3.33444  -3.09501   1.96464
C     3.90188  -2.31901   0.95003
C     3.15892  -1.30839   0.33486
C     0.51716  -0.41527  -1.42436
C     0.07096  -1.88796  -1.38852
C     1.50822  -0.26092  -2.58121
C    -0.75140   0.48930  -1.57584
C    -0.38594   1.82237  -2.18559
O     0.09466   2.75325  -1.57073
H    -1.28298   4.08583   2.69933
H    -2.69365   4.07687   1.60272
H    -1.10234   4.60880   0.99796
H    -0.43149   2.12101   1.63345
H    -3.46936   0.00577  -1.77457
H    -5.38014  -1.49771  -1.33496
H    -5.51818  -2.76230   0.81414
H    -3.71824  -2.48426   2.52337
H    -1.80027  -0.97633   2.07531
H     2.92604   3.58552  -0.65063
H     4.28476   2.65626  -1.38526
H     4.07259   2.68853   0.40504
H     0.24122  -1.66611   2.05040
H     1.56117  -3.44768   3.15267
H     3.91714  -3.88337   2.44679
H     4.93234  -2.49653   0.63359
H     3.62117  -0.70715  -0.44707
H     0.94538  -2.55084  -1.32990
H    -0.58554  -2.11377  -0.53928
H    -0.47404  -2.12143  -2.31451
H     1.02447  -0.61191  -3.50546
H     2.39385  -0.88923  -2.41051
H     1.84876   0.76787  -2.73845
H    -1.45291   0.00214  -2.26083
H    -0.54716   1.89711  -3.28474
