14
Generated by autodE on: 2022-06-24. E = -270.683221 Ha
C    -1.25791  -0.53726  -0.80865
C    -0.71441   0.47699   0.15659
C    -1.68595   1.49815   0.65798
C     0.58162   0.49734   0.57263
C     1.62238  -0.43391   0.16394
O     1.50307  -1.37040  -0.62299
H    -0.73420  -0.47623  -1.77624
H    -1.09180  -1.56193  -0.44104
H    -2.33328  -0.38722  -0.97850
H    -2.53132   0.99614   1.16085
H    -1.22775   2.21494   1.35319
H    -2.12442   2.04835  -0.19319
H     0.89739   1.27070   1.27891
H     2.61574  -0.24160   0.63749
