40
Generated by autodE on: 2022-07-27. E = -1052.253045 Ha
C    -0.42552   3.83998   1.03292
N    -0.58982   2.40209   0.92119
C    -1.29607   1.86556  -0.09086
O    -2.02718   2.52195  -0.83491
C    -1.23598   0.36371  -0.18287
O    -0.12891  -0.30318  -0.03609
C     1.18966   0.01079  -0.05653
C     1.58337   1.14456  -0.85850
O     0.81343   1.78099  -1.57952
O     2.89455   1.44481  -0.78015
C     3.35406   2.51654  -1.60983
C     2.00896  -1.02325   0.56114
C     1.38908  -1.95867   1.42848
C     2.11877  -2.98772   2.02046
C     3.49179  -3.11336   1.78482
C     4.12065  -2.19245   0.93940
C     3.39918  -1.16553   0.33308
C    -2.42599  -0.44638  -0.30773
C    -3.72154   0.11482  -0.19553
C    -4.84824  -0.69723  -0.28765
C    -4.71628  -2.07610  -0.48973
C    -3.44010  -2.64307  -0.60446
C    -2.30647  -1.84253  -0.52202
H     0.12148   4.06458   1.95638
H    -1.40415   4.33927   1.06753
H     0.13786   4.24252   0.17452
H     0.06397   1.81117   1.42821
H     3.18602   2.29056  -2.67307
H     4.42819   2.61075  -1.41092
H     2.83883   3.45422  -1.35327
H     0.32481  -1.86415   1.64628
H     1.60969  -3.69144   2.68380
H     4.06485  -3.91449   2.25687
H     5.19184  -2.27776   0.73989
H     3.91082  -0.47464  -0.33208
H    -3.83864   1.18502  -0.03272
H    -5.84079  -0.25086  -0.19597
H    -5.60484  -2.70701  -0.56292
H    -3.33159  -3.71706  -0.77110
H    -1.31576  -2.28407  -0.63322
