54
Generated by autodE on: 2022-06-24. E = -1322.938156 Ha. Imaginary frequency = -293.6 cm-1
C    -1.24181   4.00680   1.65564
N    -1.23059   2.57070   1.45073
C    -1.58186   2.04282   0.26141
O    -2.16333   2.68355  -0.61559
C    -1.38953   0.53926   0.19134
C    -2.59123  -0.29327   0.33399
C    -3.88068   0.24167   0.13017
C    -5.00824  -0.57155   0.24240
C    -4.87689  -1.92646   0.56142
C    -3.60083  -2.46797   0.76105
C    -2.46899  -1.66624   0.64133
O    -0.29870  -0.01248   0.69680
C     1.01595   0.10767   0.41935
C     1.54171   1.40749  -0.00627
O     0.85597   2.34210  -0.39708
O     2.88061   1.47346   0.02021
C     3.47546   2.66833  -0.49932
C     1.80148  -0.96502   1.04550
C     1.18917  -1.80044   2.00684
C     1.87540  -2.87619   2.56907
C     3.19331  -3.15140   2.19240
C     3.81381  -2.33238   1.24400
C     3.13424  -1.25469   0.67653
C     0.62144  -0.56009  -1.95406
C     0.76241  -2.03380  -1.69080
C     1.80192   0.08974  -2.62062
C    -0.68244  -0.05170  -2.03545
C    -1.10939   1.14900  -2.74543
O    -0.40156   2.03953  -3.20716
H    -1.03014   4.21873   2.71090
H    -2.22652   4.42205   1.40007
H    -0.48302   4.50623   1.02988
H    -0.64365   2.01084   2.06201
H    -3.99852   1.29398  -0.12510
H    -5.99873  -0.14023   0.08090
H    -5.76264  -2.55963   0.64872
H    -3.48734  -3.52678   1.00477
H    -1.47913  -2.09949   0.78099
H     3.21366   2.80210  -1.55876
H     4.55810   2.53312  -0.39284
H     3.14471   3.54703   0.07276
H     0.16933  -1.59042   2.32689
H     1.37606  -3.49907   3.31516
H     3.73187  -3.99226   2.63521
H     4.84142  -2.53621   0.93351
H     3.63556  -0.64625  -0.07089
H     1.75730  -2.29291  -1.30546
H    -0.00229  -2.40458  -0.99421
H     0.63449  -2.57421  -2.64688
H     1.83950  -0.26216  -3.66829
H     2.74420  -0.21824  -2.14737
H     1.73066   1.18025  -2.64629
H    -1.48810  -0.77054  -1.88998
H    -2.21350   1.19990  -2.88396
