49
Generated by autodE on: 2022-10-23. E = -8778.719941 Ha. Imaginary frequency = -42.7 cm-1
C    -4.55713   2.67330   0.73923
O    -3.21767   2.17662   0.88510
C    -3.08857   0.93445   1.35361
O    -4.00715   0.22327   1.71539
C    -1.70055   0.47555   1.27568
N    -0.82243   0.47815   2.12268
C     0.35799   0.39265   2.63556
C     0.68037  -0.75196   3.55186
C     1.29444   1.51257   2.42696
C     1.01812   2.52224   1.48344
C     1.94656   3.53073   1.23437
C     3.16188   3.56087   1.92951
C     3.43615   2.57365   2.88093
C     2.51225   1.55753   3.13031
C     0.77183  -0.83332   0.04929
C    -0.27212  -0.50118  -0.50539
C    -1.02407  -0.27891  -1.72150
Br   -1.25673   1.68257  -2.01020
Br   -2.84801  -1.08997  -1.57677
C    -0.31584  -0.92059  -2.92517
C     1.04626  -0.35249  -3.36269
C     2.21342  -0.23275  -2.36500
C     2.52594  -1.48831  -1.51532
C     2.16468  -1.24477  -0.04163
Br    2.28458  -3.13185   0.90846
O     2.95463  -0.36842   0.64027
C     4.36951  -0.47888   0.53003
H    -4.45899   3.68004   0.31744
H    -5.12960   2.02930   0.05591
H    -5.06370   2.71783   1.71401
H     1.63417  -1.21201   3.25637
H     0.77741  -0.40701   4.59470
H    -0.10625  -1.51550   3.50357
H     0.07643   2.51013   0.93250
H     1.72106   4.29902   0.49106
H     3.88838   4.35252   1.73280
H     4.37911   2.59087   3.43233
H     2.75056   0.78654   3.86333
H    -0.99465  -0.86582  -3.78859
H    -0.21572  -1.98729  -2.66865
H     0.88424   0.64213  -3.80747
H     1.36520  -1.00563  -4.19233
H     3.10721   0.02460  -2.95411
H     2.04824   0.62890  -1.70018
H     3.58472  -1.77131  -1.58834
H     1.94648  -2.35273  -1.86382
H     4.78310   0.19912   1.28736
H     4.72423  -0.17070  -0.46513
H     4.69701  -1.50927   0.74173
