34
Generated by autodE on: 2022-06-18. E = -1047.886511 Ha
C     4.36147   1.75021   1.39012
O     3.22841   1.18430   0.71177
C     2.02643   1.56364   1.13411
O     1.82410   2.36546   2.01967
C     0.94131   0.87482   0.35964
N    -0.23013   1.37567   0.29263
C    -1.09917   0.48964  -0.47720
C    -1.94696   1.29535  -1.49129
C    -2.60113   2.54135  -0.97762
O    -2.06127   0.90040  -2.63158
C    -2.13245  -0.23105   0.44754
C    -1.96705  -0.11055   1.92652
O    -3.01616  -0.87458  -0.08236
C    -0.13741  -0.52678  -1.19733
C    -0.69316  -1.91215  -1.45535
O    -1.37863  -2.15487  -2.43572
C    -0.36736  -2.98071  -0.48462
C     0.53675  -2.82617   0.50153
C     1.27833  -1.56886   0.71882
O     1.98928  -1.41675   1.69977
C     1.12561  -0.46120  -0.32309
H     4.33701   1.47746   2.45487
H     5.24654   1.32339   0.90576
H     4.35854   2.84485   1.28971
H    -3.09637   2.35916  -0.01114
H    -1.82331   3.30041  -0.79741
H    -3.32122   2.91741  -1.71530
H    -0.97631  -0.48875   2.22550
H    -2.75759  -0.67648   2.43477
H    -1.99905   0.95015   2.22013
H     0.07393  -0.09496  -2.18323
H    -0.89946  -3.92519  -0.62460
H     0.75241  -3.62971   1.21044
H     2.04616  -0.48429  -0.92695
