22
Generated by autodE on: 2022-06-18. E = -666.175266 Ha
C     4.59179   0.03071   0.85148
O     3.21076   0.32783   0.55137
C     2.38310  -0.70101   0.51505
O     2.64395  -1.86950   0.70208
C     1.03141  -0.27931   0.21001
N    -0.09755  -0.09242  -0.01634
C    -1.36263   0.21873  -0.28033
C    -1.59779   1.65743  -0.49441
C    -2.99427   2.12786  -0.79546
O    -0.65635   2.44858  -0.42395
C    -2.33511  -0.87744  -0.31878
C    -1.80731  -2.26843  -0.05243
O    -3.52680  -0.68089  -0.55423
H     4.66784  -0.43277   1.84470
H     5.00395  -0.64473   0.08923
H     5.10952   0.99529   0.83421
H    -3.37732   1.64778  -1.70814
H    -2.97562   3.21871  -0.91993
H    -3.68139   1.84933   0.01720
H    -2.63331  -2.98682  -0.12602
H    -1.02086  -2.53339  -0.77728
H    -1.35637  -2.32678   0.95151
