12
Generated by autodE on: 2022-06-18. E = -381.636094 Ha
O     0.14627  -2.66238  -0.03337
C     0.07919  -1.43768  -0.01838
C    -1.23000  -0.74068  -0.00530
C    -1.30396   0.60170   0.01163
C    -0.07919   1.43769   0.01776
O    -0.14626   2.66238   0.03369
C     1.23000   0.74068   0.00536
C     1.30396  -0.60170  -0.01157
H    -2.11788  -1.37724  -0.01038
H    -2.25640   1.13668   0.02124
H     2.11788   1.37724   0.01082
H     2.25640  -1.13669  -0.02080
