34
Generated by autodE on: 2022-06-18. E = -1047.813692 Ha. Imaginary frequency = -329.1 cm-1
C     4.02829   2.67651   0.69622
O     2.74994   2.17202   0.24905
C     2.07241   1.43659   1.10648
O     2.39055   1.12979   2.23006
C     0.82617   0.92491   0.48633
N    -0.36437   1.03969   0.59971
C    -1.54756   0.63736   0.16030
C    -2.15032   1.34071  -1.00417
C    -1.42491   2.55136  -1.52858
O    -3.19457   0.93655  -1.49700
C    -2.22758  -0.35746   1.04989
C    -3.58591  -0.86750   0.68156
O    -1.62995  -0.74651   2.04608
C    -0.07670  -0.73942  -1.62221
C    -0.84601  -1.92848  -1.26622
O    -1.89161  -2.23897  -1.84609
C    -0.29683  -2.79382  -0.18838
C     0.92773  -2.59092   0.33039
C     1.78577  -1.47824  -0.13379
O     2.94978  -1.36493   0.23607
C     1.16298  -0.47673  -1.05153
H     4.69118   1.83378   0.93577
H     4.42542   3.25697  -0.14279
H     3.89169   3.31395   1.58017
H    -1.96094   2.93915  -2.40346
H    -1.37659   3.32592  -0.74596
H    -0.38854   2.30647  -1.80686
H    -3.92800  -1.54763   1.47243
H    -3.53905  -1.40008  -0.28030
H    -4.29261  -0.03570   0.55034
H    -0.43792  -0.15883  -2.47217
H    -0.93091  -3.62360   0.13278
H     1.35470  -3.24516   1.09408
H     1.85874   0.20730  -1.54597
