44
Generated by autodE on: 2022-05-30. E = -1053.968510 Ha
C     2.60423   2.85682  -1.05543
O     1.73726   1.71511  -1.05905
C     2.20151   0.60156  -0.47652
O     3.32922   0.48856  -0.04641
C     1.15869  -0.48875  -0.50664
N     1.54216  -1.67266   0.23039
C     0.30390  -2.46708   0.31202
C     0.46841  -3.55789   1.36831
C     0.05602  -3.15024  -1.04307
C    -0.84230  -1.41345   0.65786
C    -0.97505  -1.23012   2.17966
C    -2.21891  -1.84151   0.13911
C    -0.27651  -0.05922  -0.04372
C    -0.14191   1.04211   1.01403
O     0.87005   1.17292   1.67763
O    -1.21207   1.80230   1.19151
C    -1.13432   2.79332   2.22987
C    -1.11136   0.34302  -1.26569
O    -0.74203   0.17439  -2.41215
O    -2.30135   0.84958  -0.97051
C    -3.16348   1.16729  -2.07307
H     2.83016   3.15668  -0.02156
H     3.54069   2.63466  -1.58664
H     2.05663   3.65492  -1.56970
H     1.06381  -0.74286  -1.57068
H     1.79637  -1.38314   1.17779
H    -0.48201  -4.08382   1.54051
H     0.82045  -3.15461   2.32817
H     1.20638  -4.29757   1.02264
H    -0.18856  -2.44431  -1.84813
H     0.96191  -3.70154  -1.33581
H    -0.77118  -3.86973  -0.97184
H    -1.39761  -2.13999   2.62640
H    -1.66572  -0.40713   2.41135
H    -0.01561  -1.02288   2.66988
H    -2.45708  -2.83617   0.54575
H    -2.99790  -1.14517   0.47741
H    -2.27469  -1.90774  -0.95520
H    -0.97803   2.30999   3.20464
H    -2.09599   3.31819   2.21288
H    -0.31114   3.49291   2.02877
H    -2.69060   1.91173  -2.72883
H    -4.07807   1.57636  -1.62913
H    -3.39190   0.26061  -2.65176
