24
Generated by autodE on: 2022-05-30. E = -613.270306 Ha
C    -3.07163   0.91998  -1.15110
O    -2.06007   0.36125  -0.29902
C    -0.84250   0.21109  -0.83105
O    -0.55972   0.56827  -1.95755
C     0.12161  -0.44224   0.11300
C     1.31263   0.36894   0.45645
O     2.36202  -0.04389   0.91651
O     1.10121   1.67344   0.20424
C     2.18991   2.56758   0.46323
C    -0.08059  -1.70835   0.56800
C    -1.26852  -2.52369   0.14882
C     0.85500  -2.41879   1.50295
H    -3.22110   0.28447  -2.03606
H    -3.98739   0.95463  -0.54989
H    -2.78780   1.93246  -1.47220
H     2.45533   2.55441   1.53041
H     1.83793   3.56453   0.17354
H     3.07021   2.28773  -0.13371
H    -1.95921  -2.63088   1.00318
H    -1.82619  -2.10855  -0.69896
H    -0.93491  -3.54214  -0.10863
H     0.30981  -3.19746   2.05618
H     1.64518  -2.92522   0.92157
H     1.35332  -1.74295   2.20701
