20
Generated by autodE on: 2022-05-30. E = -440.660171 Ha
C     3.64594  -0.50344  -0.04579
O     2.30013  -0.96601  -0.06492
C     1.32564   0.00145  -0.01183
O     1.62398   1.20905   0.04467
C     0.02270  -0.53148  -0.02894
N    -1.01056   0.38001   0.02481
C    -2.30501   0.19335   0.02646
C    -3.22050   1.36651   0.09483
C    -2.83240  -1.19670  -0.03947
H     3.86745   0.05838   0.87570
H     4.28003  -1.39877  -0.08916
H     3.86432   0.14258  -0.91119
H    -0.19453  -1.59331  -0.07843
H    -0.67625   1.34914   0.07034
H    -3.88907   1.38473  -0.78349
H    -3.87180   1.29491   0.98335
H    -2.66708   2.31586   0.13772
H    -2.46749  -1.79578   0.81463
H    -2.48030  -1.70685  -0.95450
H    -3.92967  -1.20215  -0.03170
