44
Generated by autodE on: 2022-05-30. E = -1053.921854 Ha. Imaginary frequency = -283.6 cm-1
C     3.05400   2.89902  -0.67814
O     2.26172   1.74727  -0.98923
C     2.28820   0.73607  -0.10635
O     2.90895   0.77289   0.94860
C     1.47166  -0.38548  -0.54437
N     1.54120  -1.51387   0.17152
C     0.64281  -2.54050   0.04366
C     0.89299  -3.70836   0.95905
C     0.26146  -2.91402  -1.36869
C    -1.06022  -1.46663   0.75446
C    -0.91738  -1.66838   2.25402
C    -2.20383  -2.28831   0.18136
C    -0.88656  -0.15257   0.21484
C    -0.42619   0.99262   0.98603
O     0.03460   0.99808   2.12205
O    -0.55100   2.15109   0.27603
C    -0.14813   3.35499   0.92851
C    -1.59478   0.19825  -1.06289
O    -1.18568   0.03141  -2.19742
O    -2.80676   0.71638  -0.81433
C    -3.58837   1.11527  -1.94948
H     2.75812   3.33311   0.28658
H     4.12088   2.63232  -0.64354
H     2.87198   3.61800  -1.48531
H     1.06675  -0.39859  -1.55066
H     2.00858  -1.41802   1.07688
H    -0.03606  -4.27209   1.12318
H     1.29039  -3.39088   1.93331
H     1.61851  -4.40136   0.49819
H    -0.18976  -2.08953  -1.93116
H     1.16923  -3.24219  -1.90590
H    -0.44185  -3.75547  -1.35996
H    -1.10832  -2.71832   2.51371
H    -1.66071  -1.05455   2.78948
H     0.06988  -1.38331   2.63313
H    -2.07787  -3.35592   0.41213
H    -3.14944  -1.96055   0.64674
H    -2.31724  -2.18511  -0.90532
H    -0.88227   3.64359   1.69724
H    -0.10254   4.12644   0.15007
H     0.83512   3.23809   1.40290
H    -3.06243   1.89156  -2.52425
H    -4.52687   1.51320  -1.54623
H    -3.79035   0.25290  -2.60133
