42
Generated by autodE on: 2022-05-31. E = -1314.116489 Ha
C    -4.24766  -2.20397  -0.76004
O    -2.83387  -2.06628  -0.50683
C    -2.41481  -0.88159  -0.10837
O    -3.10219   0.09648   0.08238
C    -0.92733  -0.83790   0.13798
O    -0.16541  -1.90231  -0.45535
N     1.10170  -1.57339   0.05559
O     0.79329  -1.49853   1.50555
C    -0.52472  -1.13531   1.60154
O    -1.16456  -1.21153   2.60639
C     1.27767  -0.14615  -0.37935
C     2.32138   0.55654   0.47692
O     2.32316   1.75269   0.67314
O     3.26400  -0.27561   0.89122
C     4.34321   0.29339   1.65595
C     1.70059   0.02234  -1.87652
C     0.94414  -0.94213  -2.81197
C    -0.50854  -0.38450  -2.79356
C    -0.41417   0.83700  -1.85304
C     0.99792   1.35681  -2.19802
C    -0.19604   0.43630  -0.36451
C    -0.40884   1.57639   0.62688
O    -0.34283   1.40904   1.82840
O    -0.67740   2.73736   0.05688
C    -0.83748   3.86619   0.93366
H    -4.39285  -3.24301  -1.07374
H    -4.55271  -1.51251  -1.55739
H    -4.81440  -1.99261   0.15696
H     4.99932  -0.54482   1.91429
H     4.88449   1.03464   1.05159
H     3.95079   0.76997   2.56491
H     2.79101  -0.00645  -1.99112
H     1.01685  -1.99397  -2.51390
H     1.39078  -0.85224  -3.81237
H    -0.80444  -0.02236  -3.78827
H    -1.25445  -1.12947  -2.49204
H    -1.24017   1.54507  -1.96527
H     1.32906   2.19790  -1.57813
H     1.09940   1.62694  -3.25854
H    -1.67615   3.69550   1.62265
H     0.08731   4.02812   1.50495
H    -1.04287   4.72309   0.28295
