29
Generated by autodE on: 2022-05-31. E = -728.831740 Ha
C    -3.67833   1.49367   0.25570
O    -2.67219   0.51478   0.54482
C    -1.42711   0.78921   0.12805
O    -1.13849   1.81371  -0.46659
C    -0.48966  -0.29755   0.46564
C     0.82903  -0.33940   0.15546
C     1.65435   0.65599  -0.56408
O     2.21714   0.40566  -1.61465
O     1.75369   1.82110   0.07426
C     2.49367   2.85879  -0.58740
C     1.31025  -1.75613   0.41793
C     0.64401  -2.63089  -0.69740
C    -0.86302  -2.58743  -0.32179
C    -0.87813  -1.68284   0.95466
C     0.43527  -2.11830   1.63491
H    -3.43851   2.44879   0.74548
H    -3.76112   1.65305  -0.82933
H    -4.61681   1.08976   0.65260
H     2.48253   3.71760   0.09333
H     3.52718   2.53637  -0.77805
H     2.00892   3.12134  -1.53898
H     2.39669  -1.87377   0.50446
H     0.85806  -2.23139  -1.69780
H     1.04426  -3.65394  -0.64498
H    -1.49628  -2.17078  -1.11763
H    -1.24461  -3.58846  -0.07334
H    -1.80161  -1.73324   1.54095
H     0.46300  -3.19083   1.87835
H     0.67506  -1.52441   2.52896
