13
Generated by autodE on: 2022-05-31. E = -585.238005 Ha
C    -3.34526   0.42641   0.60282
O    -1.91597   0.47859   0.75997
C    -1.19496  -0.10907  -0.18861
O    -1.63685  -0.68839  -1.16082
C     0.24288   0.01152   0.04955
O     0.72704   0.66754   1.11483
N     2.02929   0.68714   1.14654
O     2.44421   0.03899   0.09391
C     1.33235  -0.46076  -0.72061
O     1.52953  -1.07888  -1.72764
H    -3.68751  -0.61755   0.57405
H    -3.64325   0.93941  -0.32267
H    -3.75981   0.94181   1.47604
