43
Generated by autodE on: 2022-06-20. E = -884.203571 Ha
C     0.91194  -2.42507   1.54652
C     0.46440  -1.18338   1.31016
C     0.74233  -0.04177   2.24917
C    -0.35399  -0.92310   0.06534
C    -1.46314   0.14244   0.17081
C    -2.63002  -0.30889   0.99097
C    -3.22400   0.38300   1.98134
C    -4.36349  -0.21858   2.75831
C    -2.83148   1.76754   2.41743
N    -1.79392   0.45494  -1.23603
C    -2.62231  -0.53165  -1.92307
O    -0.49846   0.47150  -1.87418
C     0.43437  -0.39149  -1.18786
C     0.75384  -1.52097  -2.08185
N     0.98771  -2.40482  -2.79706
C     1.69826   0.39491  -0.85877
C     1.64978   1.79036  -0.76015
C     2.78574   2.50445  -0.36849
C     3.97398   1.83083  -0.07211
C     4.02598   0.43738  -0.18058
C     2.89441  -0.27834  -0.57704
H     1.52225  -2.65202   2.42564
H     0.68642  -3.25008   0.86408
H    -0.19278   0.33090   2.69928
H     1.41097  -0.35771   3.06245
H     1.20414   0.81152   1.72969
H    -0.81851  -1.87261  -0.23007
H    -1.02656   1.05754   0.58774
H    -2.99963  -1.31554   0.76935
H    -4.11645  -0.26624   3.83341
H    -5.26557   0.41252   2.67639
H    -4.61286  -1.23230   2.41252
H    -2.03331   2.21237   1.80999
H    -3.70695   2.43807   2.37723
H    -2.50059   1.75479   3.47038
H    -2.27066  -1.57437  -1.82835
H    -2.65778  -0.26750  -2.98818
H    -3.64228  -0.46474  -1.52104
H     0.72156   2.31396  -0.98573
H     2.73910   3.59333  -0.29323
H     4.86014   2.39025   0.23660
H     4.95258  -0.09656   0.04221
H     2.94194  -1.36591  -0.65747
