23
Generated by autodE on: 2022-06-20. E = -351.521379 Ha
C     3.73853   0.48890   0.28957
C     2.58053  -0.03954  -0.16393
C     2.57203  -1.13670  -1.19752
C     1.30338   0.45026   0.35107
C     0.07741  -0.00063  -0.01580
C    -1.16006   0.51870   0.52983
C    -2.41971   0.11490   0.22667
C    -2.74911  -0.97350  -0.75517
C    -3.61088   0.75544   0.88144
H     3.74153   1.28489   1.04067
H     4.70787   0.14038  -0.07759
H     2.07208  -2.04109  -0.81262
H     2.01562  -0.82975  -2.09870
H     3.59370  -1.40851  -1.49811
H     1.36371   1.24995   1.09920
H     0.00919  -0.79807  -0.76078
H    -1.05126   1.32341   1.26706
H    -3.39485  -0.57971  -1.55994
H    -3.33089  -1.77079  -0.25968
H    -1.86649  -1.43269  -1.21862
H    -4.21112   0.00297   1.42400
H    -4.28515   1.19414   0.12398
H    -3.32155   1.54600   1.58931
