20
Generated by autodE on: 2022-06-20. E = -532.597693 Ha
C    -3.58379  -0.20066   0.48944
N    -2.59881  -0.58582   1.45671
O    -1.35471  -0.41522   1.06031
C    -0.76789   0.04378  -0.02422
C    -1.43652   0.58297  -1.15732
N    -1.82653   1.05968  -2.14828
C     0.69486  -0.00839  -0.00898
C     1.38274  -0.54116   1.10297
C     2.77403  -0.58907   1.10910
C     3.50768  -0.11220   0.01533
C     2.83335   0.41559  -1.08968
C     1.44008   0.46945  -1.10650
H    -3.48861  -0.77044  -0.45464
H    -4.56235  -0.42020   0.93419
H    -3.54431   0.87770   0.24636
H     0.82044  -0.91662   1.95828
H     3.29264  -1.00400   1.97638
H     4.59903  -0.15327   0.02583
H     3.39488   0.78984  -1.94849
H     0.92803   0.88439  -1.97615
