43
Generated by autodE on: 2022-06-20. E = -884.134324 Ha. Imaginary frequency = -188.2 cm-1
C     0.78698   2.18512   1.38162
C     0.98025   0.86411   1.59890
C     2.33481   0.32926   1.98800
C    -0.06860  -0.13606   1.43375
C    -1.42968   0.13857   1.36218
C    -2.42322  -0.91479   1.48983
C    -3.74468  -0.75593   1.73773
C    -4.65466  -1.94759   1.83762
C    -4.42049   0.57234   1.93129
N    -1.68955   0.62146  -0.85062
C    -2.31732   1.91441  -0.99203
O    -0.40835   0.76349  -1.22136
C     0.37027  -0.30461  -1.10776
C    -0.22901  -1.59228  -1.09853
N    -0.66750  -2.67340  -1.10995
C     1.79295  -0.11623  -1.32385
C     2.66117  -1.22778  -1.37107
C     4.03374  -1.04284  -1.51364
C     4.56690   0.24861  -1.61309
C     3.71095   1.35440  -1.57851
C     2.33454   1.18183  -1.43609
H     1.60974   2.89501   1.49832
H    -0.18273   2.59516   1.09231
H     2.28700  -0.17332   2.96928
H     3.08872   1.12723   2.04100
H     2.67758  -0.42587   1.26319
H     0.23510  -1.17994   1.55027
H    -1.75295   1.16510   1.53691
H    -2.04627  -1.93510   1.36346
H    -5.14342  -1.98626   2.82757
H    -5.47096  -1.87676   1.09651
H    -4.11899  -2.89438   1.67537
H    -3.72897   1.42434   1.92859
H    -5.17099   0.73692   1.13820
H    -4.97608   0.58179   2.88523
H    -3.28628   1.86226  -0.47858
H    -2.50982   2.14439  -2.05689
H    -1.71900   2.73839  -0.56529
H     2.25458  -2.23716  -1.28205
H     4.69409  -1.91240  -1.54413
H     5.64441   0.39098  -1.72136
H     4.11895   2.36436  -1.66251
H     1.67337   2.04684  -1.41118
