58
Generated by autodE on: 2022-06-10. E = -1880.525182 Ha
C    -3.88751   1.99687  -2.64993
N    -3.29116   1.37745  -1.48486
C    -1.97240   1.18664  -1.40250
O    -1.17835   1.63677  -2.23220
C    -1.40637   0.37644  -0.17933
C    -2.38156   0.44437   1.02825
O    -3.58515   0.18057   0.87826
N    -1.86824   0.74789   2.22116
C    -2.66627   0.70697   3.43149
N    -0.07000   0.85658   0.15544
C     0.07176   2.29434   0.38780
C     0.99008   0.13374  -0.56217
C     1.33190   0.80127  -1.94108
O     1.22794   0.34156  -3.05410
O     1.84884   2.01483  -1.71604
C     2.14972   2.80978  -2.86846
C     2.30100   0.08034   0.22977
C     2.35589   0.35103   1.60122
C     3.55790   0.21264   2.30302
C     4.71697  -0.20421   1.64430
C     4.66703  -0.48326   0.27434
C     3.46837  -0.34043  -0.42573
C     0.38539  -1.31119  -0.72106
F     0.74145  -1.85160  -1.93513
C     0.74189  -2.33771   0.38238
C     0.23833  -3.72381  -0.07580
C    -1.30354  -3.60729   0.08049
C    -1.50367  -2.16114   0.57944
C    -0.26479  -2.00389   1.48844
C    -1.18013  -1.14815  -0.55373
Cl   -2.05892  -1.56360  -2.08268
H    -4.95603   2.15910  -2.46147
H    -3.41147   2.96501  -2.86421
H    -3.77675   1.35919  -3.54372
H    -3.86451   0.90058  -0.78769
H    -0.86333   0.87004   2.28874
H    -2.08712   1.14616   4.25278
H    -3.59493   1.27998   3.29814
H    -2.93599  -0.32862   3.69716
H    -0.66090   2.61660   1.13834
H    -0.08017   2.90101  -0.51568
H     1.07184   2.50828   0.78119
H     1.24132   2.97196  -3.46642
H     2.52811   3.76506  -2.48653
H     2.91372   2.31879  -3.48841
H     1.45732   0.66396   2.13134
H     3.58375   0.43116   3.37321
H     5.65486  -0.31193   2.19406
H     5.56497  -0.81444  -0.25251
H     3.43848  -0.57594  -1.49217
H     1.80141  -2.31961   0.65382
H     0.55019  -3.96602  -1.09838
H     0.65325  -4.49160   0.59230
H    -1.68231  -4.29579   0.84913
H    -1.85045  -3.81214  -0.84712
H    -2.48520  -1.99216   1.03113
H    -0.25817  -2.74852   2.29701
H    -0.12823  -1.01395   1.92488
