41
Generated by autodE on: 2022-07-27. E = -1048.692803 Ha
C    -2.94064   2.01611  -2.48400
N    -2.73428   1.23851  -1.27974
C    -1.49313   1.03485  -0.77696
O    -0.49489   1.43993  -1.40703
C    -1.38527   0.33039   0.51572
C    -2.52385   0.09716   1.43045
O    -2.65575  -0.96413   2.06654
N    -3.44462   1.08905   1.54504
C    -4.62605   0.93213   2.36941
N    -0.14466  -0.12168   0.90347
C     0.18409  -0.06915   2.34647
C     0.80076  -0.50346   0.03334
C     0.39374  -1.06010  -1.28197
O    -0.66584  -1.61298  -1.52315
O     1.37235  -0.94729  -2.18617
C     1.11892  -1.50972  -3.47952
C     2.23121  -0.38873   0.36105
C     3.11397  -1.46614   0.15158
C     4.46734  -1.34151   0.46198
C     4.96505  -0.13935   0.97861
C     4.09949   0.94078   1.17833
C     2.74408   0.81980   0.87075
H    -2.69976   3.08249  -2.33586
H    -2.30837   1.63968  -3.30209
H    -3.99353   1.93345  -2.78107
H    -3.54408   0.95264  -0.74164
H    -3.23274   2.00767   1.17135
H    -5.14069  -0.01022   2.13068
H    -4.38041   0.91900   3.44518
H    -5.30954   1.76846   2.17529
H     0.30836   0.97475   2.66009
H     1.09722  -0.63761   2.53863
H    -0.64409  -0.52386   2.89628
H     0.24880  -1.02233  -3.94288
H     2.02112  -1.31992  -4.07224
H     0.93440  -2.59094  -3.40269
H     2.72999  -2.40804  -0.24490
H     5.13861  -2.18867   0.30346
H     6.02628  -0.04397   1.21967
H     4.48300   1.88668   1.56777
H     2.07548   1.67186   1.00558
