17
Generated by autodE on: 2022-06-10. E = -831.765982 Ha
F     0.06992  -1.45775  -1.67725
C    -0.12942  -0.86779  -0.49704
C     0.65675   0.03273   0.10985
Cl    2.12993   0.71692  -0.48720
C    -0.13220   0.57860   1.28968
C    -1.26976   1.45902   0.67885
C    -2.17190   0.41180  -0.03929
C    -1.43964  -0.94246   0.24952
C    -0.92747  -0.68586   1.68343
H     0.47047   1.06362   2.06699
H    -0.86462   2.21918  -0.00411
H    -1.81723   1.97911   1.47882
H    -3.18283   0.38741   0.39347
H    -2.27052   0.59476  -1.11864
H    -2.03287  -1.84665   0.06502
H    -0.28875  -1.49492   2.06509
H    -1.73974  -0.47641   2.39563
