14
Generated by autodE on: 2022-10-21. E = -307.788272 Ha
C     0.15031   1.76895  -0.35325
C    -0.11250   0.47228  -0.09551
O     0.78396  -0.51484   0.09062
C     2.16600  -0.18846   0.01897
O    -1.38964   0.03345   0.00123
C    -1.63851  -1.34124   0.29154
H    -0.68595   2.45654  -0.48014
H     1.16728   2.14450  -0.43963
H     2.71472  -1.12067   0.20194
H     2.43412   0.55569   0.78636
H     2.42571   0.20479  -0.97732
H    -2.73072  -1.44561   0.32156
H    -1.21712  -1.63186   1.26618
H    -1.23019  -2.00061  -0.48967
