37
Generated by autodE on: 2022-10-26. E = -1029.253387 Ha
C     0.78924   0.47358  -3.34754
N     0.99815  -0.04035  -2.00742
C     1.43535   0.75596  -1.01167
O     1.87661   1.89262  -1.21916
C     1.38455   0.16734   0.35599
N     0.30374  -0.43202   0.89091
C    -0.98029  -0.55806   0.55663
C    -1.78832  -1.43920   1.41208
O    -2.98711  -1.62030   1.27692
O    -1.05967  -2.03018   2.37759
C    -1.76395  -2.86328   3.30715
C    -1.61581   0.17951  -0.54626
C    -2.41072  -0.49012  -1.49304
C    -3.00786   0.21647  -2.53806
C    -2.82842   1.59897  -2.64629
C    -2.04868   2.27421  -1.70086
C    -1.44483   1.57172  -0.65847
C     2.54369   0.12811   1.23521
O     2.51625  -0.37288   2.35767
O     3.64929   0.65647   0.69552
C     4.83157   0.63413   1.50446
H     0.25082  -0.27942  -3.93518
H     1.74567   0.69549  -3.84680
H     0.19427   1.39970  -3.32120
H     0.60405  -0.94616  -1.77684
H     0.54350  -0.88421   1.78856
H    -2.52524  -2.28099   3.84637
H    -2.24682  -3.69964   2.78154
H    -1.00896  -3.24032   4.00638
H    -2.54587  -1.56971  -1.41455
H    -3.61392  -0.31664  -3.27411
H    -3.29524   2.15010  -3.46576
H    -1.90878   3.35487  -1.77584
H    -0.83687   2.10650   0.07359
H     5.12452  -0.40082   1.73457
H     5.61185   1.12388   0.91031
H     4.66980   1.18366   2.44331
