48
Generated by autodE on: 2022-06-01. E = -1070.292911 Ha
C     1.45644   1.67491  -3.67412
N     1.24204   0.88025  -2.47894
C     0.65808   1.40323  -1.39293
O     0.22719   2.56719  -1.41013
C     0.56319   0.61819  -0.07505
C     1.77657   1.06067   0.82625
C     3.11266   0.80817   0.09958
C     3.21874  -0.74202   0.10224
C     1.94964  -1.18144   0.86755
C     1.82794  -0.04344   1.89519
C     0.67822  -0.98224  -0.02015
C     0.73524  -1.81875  -1.30025
C    -0.63965  -1.40776   0.77756
C    -1.63892  -2.12559  -0.07865
N    -2.47982  -2.70482  -0.62835
C    -0.34524  -2.38657   1.85729
N    -0.15491  -3.14390   2.71390
N    -1.17786  -0.20637   1.36867
C    -2.50567  -0.30809   1.95636
C    -0.83007   0.98636   0.57784
C    -0.80684   2.20719   1.49715
C    -1.88683   1.12687  -0.56247
C    -2.91938   2.21228  -0.50790
O    -1.89974   0.28624  -1.44867
H     0.50591   2.08650  -4.04522
H     2.13948   2.51772  -3.47880
H     1.89430   1.03404  -4.44917
H     1.64394  -0.04615  -2.44061
H     1.67541   2.09091   1.17909
H     3.92264   1.26110   0.68954
H     3.16219   1.24796  -0.90390
H     3.29725  -1.16764  -0.90606
H     4.10333  -1.08034   0.66053
H     2.02576  -2.20179   1.26162
H     2.72012   0.03981   2.53332
H     0.93899  -0.09615   2.53196
H    -0.07131  -1.56691  -1.99774
H     1.69471  -1.73095  -1.82224
H     0.64459  -2.88282  -1.03314
H    -3.30783  -0.46481   1.21060
H    -2.52854  -1.15248   2.66127
H    -2.72873   0.60269   2.52537
H    -1.80845   2.42967   1.88596
H    -0.44939   3.08709   0.95084
H    -0.15238   2.02760   2.35805
H    -3.51133   2.12101   0.41657
H    -2.43929   3.20108  -0.48942
H    -3.58110   2.12968  -1.37973
