21
Generated by autodE on: 2022-07-26. E = -549.929916 Ha
C    -0.76349   2.60184  -1.87916
C    -0.56480   1.27416  -1.19431
O    -0.95802   0.23556  -1.71967
C     0.01800   1.30221   0.17356
C     0.31367   2.61973   0.81923
N     0.09292   0.18523   0.90362
C     0.12236   0.29653   2.37730
C     0.22554  -1.09258   0.38215
C     0.87188  -1.32524  -0.84787
N     1.45122  -1.55905  -1.83465
C    -0.15032  -2.22602   1.13323
N    -0.45079  -3.19819   1.70893
H    -1.34545   3.29771  -1.25563
H     0.20990   3.07827  -2.07975
H    -1.28706   2.42961  -2.82772
H    -0.59906   3.08917   1.22704
H     0.73173   3.31313   0.07894
H     1.04083   2.52296   1.63446
H    -0.54721   1.09781   2.70316
H    -0.20925  -0.65132   2.81210
H     1.15095   0.49979   2.70580
