27
Generated by autodE on: 2022-06-01. E = -520.325064 Ha
C     3.63075   0.38220   0.86382
N     2.27131  -0.08569   0.69361
C     1.45338   0.43982  -0.25039
O     1.86273   1.33330  -1.01533
C     0.08537  -0.11320  -0.30011
C    -1.00995   0.46714  -0.85759
C    -1.17826   1.76414  -1.56763
C    -2.20350  -0.39338  -0.47518
C    -2.42803  -0.14166   1.05304
C    -1.18567  -0.81613   1.70299
C    -0.40121  -1.34701   0.46219
C    -1.56241  -1.79350  -0.44634
H     4.21369   0.26119  -0.06319
H     4.11121  -0.19978   1.66000
H     3.66190   1.44944   1.13912
H     1.91420  -0.79133   1.32670
H    -1.94107   2.37458  -1.05312
H    -1.56228   1.59240  -2.58877
H    -0.24314   2.33110  -1.63312
H    -3.09919  -0.24768  -1.09335
H    -2.50529   0.93171   1.27953
H    -3.36350  -0.62089   1.37858
H    -1.47883  -1.65053   2.35800
H    -0.57684  -0.11935   2.29664
H     0.36256  -2.10119   0.69244
H    -1.22635  -2.13428  -1.43694
H    -2.20620  -2.55963   0.01332
