39
Generated by autodE on: 2022-05-30. E = -1138.698180 Ha
C     3.84501   0.36759  -1.84055
N     2.90728  -0.05153  -0.81682
C     1.84840   0.69063  -0.48946
O     1.58263   1.77962  -0.99936
C     0.94869   0.11133   0.64826
C     1.15996   1.06859   1.84068
C     2.26125   0.73617   2.79548
O     0.47453   2.06798   1.94832
N     1.37773  -1.24623   0.98361
O     0.77250  -2.05911  -0.01667
C    -0.53931  -1.54486  -0.30925
C    -0.78384  -1.87691  -1.71300
N    -0.95793  -2.32516  -2.76859
C    -1.60982  -2.19243   0.64723
C    -2.96387  -1.62081   0.27152
C    -2.94950  -0.36337   0.72912
C    -1.57974  -0.17873   1.36892
O    -1.29440  -1.49532   1.85529
C    -0.54235  -0.04617   0.17264
C    -1.01118   0.99949  -0.84909
O    -1.16397   0.72564  -2.03914
N    -1.30346   2.20135  -0.32094
C    -1.57589   3.33167  -1.18751
H     3.32647   0.54735  -2.79479
H     4.36017   1.29753  -1.55182
H     4.59075  -0.42344  -1.98278
H     3.04702  -0.91958  -0.30687
H     3.18583   0.49882   2.24843
H     2.41814   1.57511   3.48467
H     1.98753  -0.16404   3.37138
H     0.92372  -1.51921   1.86097
H    -1.49053  -3.27575   0.74668
H    -3.72393  -2.13479  -0.31507
H    -3.69764   0.41898   0.61473
H    -1.48277   0.57077   2.15726
H    -0.89407   2.39188   0.59540
H    -2.36867   3.08068  -1.90554
H    -0.67681   3.62747  -1.75554
H    -1.90639   4.18136  -0.57675
