18
Generated by autodE on: 2022-07-26. E = -530.731812 Ha
C     0.62080  -0.01507  -3.24059
N     0.32455  -0.46448  -1.89635
C     0.17267   0.41875  -0.89315
O     0.24305   1.64017  -1.06650
C    -0.07448  -0.16309   0.47195
N     0.05145  -1.45609   0.72242
O     0.32055  -2.39744  -0.06498
C    -0.47148   0.69573   1.63085
C    -0.36829   0.12145   3.02513
O    -0.88212   1.83002   1.45089
H    -0.17429   0.64392  -3.62321
H     1.56774   0.54818  -3.27705
H     0.70261  -0.89026  -3.89625
H     0.33788  -1.45555  -1.65366
H    -0.09994  -1.74193   1.70548
H     0.62756  -0.30547   3.22081
H    -0.57119   0.92825   3.74012
H    -1.12025  -0.67081   3.18026
