18
Generated by autodE on: 2022-05-30. E = -530.736545 Ha
C    -2.99954  -0.54334   1.25361
N    -1.93292  -0.26103   0.31589
C    -0.65332  -0.19440   0.72173
O    -0.31537  -0.36606   1.90060
C     0.35806   0.10111  -0.33774
N     0.03882   0.30384  -1.60408
O    -1.07994   0.29594  -2.16609
C     1.83777   0.20389  -0.11671
C     2.41948   0.00644   1.24618
O     2.54785   0.45291  -1.08715
H    -2.85610  -1.52205   1.73884
H    -3.95297  -0.55176   0.71205
H    -3.04661   0.21982   2.04695
H    -2.12450  -0.10237  -0.67398
H     0.88040   0.49744  -2.19090
H     3.50933   0.11853   1.18253
H     2.15344  -0.98776   1.63371
H     1.99503   0.73696   1.95022
