21
Generated by autodE on: 2022-05-30. E = -607.925383 Ha
C     3.66915   0.98220  -0.05139
N     2.38954   0.30661  -0.13453
C     1.22949   0.94314  -0.37877
O     1.12662   2.15858  -0.59230
C    -0.00572   0.12488  -0.37653
C    -0.39554  -0.95549   0.33357
C     0.32252  -1.73582   1.26248
N     0.89826  -2.39628   2.02351
C    -1.92085  -1.10108   0.01872
C    -2.61832   0.09832   0.69386
C    -2.22216   1.16416  -0.00742
C    -1.29036   0.59575  -1.09762
O    -1.90778  -0.67691  -1.34724
H     3.52152   2.04819  -0.25863
H     4.37688   0.56891  -0.78625
H     4.10626   0.87138   0.95343
H     2.37072  -0.69709   0.01687
H    -2.34983  -2.09824   0.15514
H    -3.23923   0.03638   1.58637
H    -2.42193   2.22325   0.14818
H    -1.14284   1.18414  -2.00783
