39
Generated by autodE on: 2022-05-30. E = -1138.646981 Ha. Imaginary frequency = -325.6 cm-1
C     2.98376   0.51539  -2.33318
N     2.41737   0.02340  -1.09177
C     1.83529   0.86329  -0.22429
O     1.85778   2.09080  -0.34782
C     1.12813   0.23941   0.96878
C     0.87439   1.17127   2.13683
C     1.49027   0.82359   3.45974
O     0.18100   2.16072   1.98274
N     1.32454  -1.06203   1.29371
O     1.23799  -1.94730   0.35815
C    -0.58608  -1.51529  -0.42940
C    -0.29228  -2.00837  -1.72910
N    -0.04482  -2.50805  -2.75058
C    -1.48957  -2.32191   0.55061
C    -2.93556  -2.02205   0.13618
C    -3.13712  -0.74648   0.48663
C    -1.81217  -0.28322   1.10873
O    -1.34672  -1.50050   1.71490
C    -0.78877  -0.15846  -0.06462
C    -0.86284   0.93833  -1.07818
O    -0.58234   0.74514  -2.26705
N    -1.27183   2.13331  -0.60272
C    -1.20984   3.31271  -1.44555
H     3.74964   1.28084  -2.14114
H     3.44411  -0.32452  -2.86710
H     2.20186   0.96021  -2.97010
H     2.25416  -0.97382  -0.96560
H     2.55553   0.57264   3.34485
H     1.35894   1.66657   4.14958
H     0.98372  -0.05969   3.88600
H     0.96085  -1.37044   2.20325
H    -1.19434  -3.36001   0.72616
H    -3.59230  -2.71332  -0.39000
H    -4.00576  -0.10920   0.32673
H    -1.85011   0.54076   1.82623
H    -1.14113   2.27795   0.39851
H    -1.72836   3.12859  -2.39607
H    -0.16623   3.59178  -1.66964
H    -1.69970   4.14832  -0.92992
