26
Generated by autodE on: 2022-06-12. E = -595.065660 Ha
C     0.43511  -3.08303  -1.12587
N     0.25326  -1.98850  -0.61068
C     0.09250  -0.76881  -0.22006
C     1.30273   0.00637   0.13464
C     2.46629  -0.65783   0.57135
C     3.62769   0.05613   0.86560
C     3.65346   1.44862   0.73142
C     2.50678   2.11794   0.29214
C     1.34255   1.40756  -0.00546
C    -1.28569  -0.22878  -0.16796
C    -1.65029   0.76481   0.76089
C    -2.96087   1.24372   0.80951
C    -3.93169   0.74199  -0.06299
C    -3.58171  -0.25246  -0.98334
C    -2.27435  -0.73527  -1.03412
H     0.46585  -3.97788  -0.47480
H     2.45415  -1.74366   0.68766
H     4.51714  -0.47822   1.20796
H     4.56207   2.00792   0.96583
H     2.51875   3.20377   0.17118
H     0.46536   1.94398  -0.36843
H    -0.91043   1.15379   1.46138
H    -3.22559   2.01104   1.54091
H    -4.95589   1.11977  -0.02328
H    -4.33217  -0.65348  -1.66881
H    -2.01030  -1.51240  -1.75489
