26
Generated by autodE on: 2022-06-12. E = -540.188570 Ha
C     3.58501  -0.56758   0.29640
O     2.16139  -0.70039   0.34406
C     1.44028   0.43617   0.22701
O     1.97679   1.52786   0.09217
C     0.00367   0.17118   0.28586
C    -0.99713   1.00665  -0.10567
C    -0.95700   2.38655  -0.65469
C    -2.27854   0.19443  -0.05291
C    -2.17812  -0.81030  -1.25063
C    -1.04440  -1.77695  -0.80341
C    -0.62291  -1.18889   0.57874
C    -1.98956  -0.74420   1.13498
H     3.94499   0.07124   1.11665
H     3.98896  -1.58130   0.40442
H     3.90477  -0.13474  -0.66323
H    -1.43011   2.40273  -1.65222
H    -1.55793   3.06214  -0.02108
H     0.06234   2.78149  -0.73045
H    -3.20331   0.78544  -0.03523
H    -1.95906  -0.29331  -2.19613
H    -3.13556  -1.33845  -1.37140
H    -0.19696  -1.80301  -1.50311
H    -1.41794  -2.80536  -0.68559
H    -0.01915  -1.86209   1.19770
H    -1.91124  -0.21197   2.09474
H    -2.71507  -1.56761   1.22327
