52
Generated by autodE on: 2022-06-12. E = -1135.236594 Ha. Imaginary frequency = -357.7 cm-1
C    -2.40058  -3.48205  -1.45348
O    -1.83938  -2.17361  -1.33055
C    -2.62778  -1.21040  -0.82552
O    -3.81030  -1.41361  -0.57792
C    -1.94322   0.07320  -0.59216
C    -1.64101  -0.50365   1.49940
N    -0.44551  -0.49198   1.70549
C     0.74956  -0.33403   1.11667
C     1.51280   0.87294   1.50614
C     2.36220   1.53894   0.59995
C     3.00733   2.72039   0.96515
C     2.82192   3.26782   2.23957
C     1.98301   2.61582   3.14835
C     1.33976   1.43063   2.78850
C     1.37619  -1.55132   0.57616
C     0.64031  -2.75565   0.48387
C     1.19370  -3.89916  -0.08619
C     2.50656  -3.88792  -0.57273
C     3.25974  -2.71621  -0.45833
C     2.71007  -1.56769   0.11395
C    -0.69704   0.48542  -1.10731
C     0.25566  -0.23919  -2.00482
C    -0.80253   2.00947  -1.24197
C    -0.93360   2.72096   0.13441
C    -2.33580   2.27577   0.63169
C    -2.81789   1.34449  -0.50466
C    -2.27237   2.10870  -1.73543
H    -2.72962  -3.85738  -0.47302
H    -1.60011  -4.11830  -1.84945
H    -3.25633  -3.47888  -2.14447
H    -2.47416  -0.78601   2.15445
H     2.47629   1.16160  -0.41546
H     3.64855   3.22711   0.23985
H     3.32613   4.19535   2.52018
H     1.83041   3.02965   4.14819
H     0.68823   0.92785   3.50556
H    -0.38203  -2.79772   0.85682
H     0.59282  -4.80990  -0.14741
H     2.93934  -4.78433  -1.02246
H     4.29295  -2.69217  -0.81347
H     3.33189  -0.67915   0.20219
H    -0.06469  -0.10951  -3.05772
H     0.31535  -1.31305  -1.81029
H     1.26887   0.18552  -1.93489
H    -0.02866   2.44074  -1.89094
H    -0.88836   3.81095  -0.01247
H    -0.13192   2.44945   0.82432
H    -3.02109   3.13230   0.72239
H    -2.30583   1.77767   1.61062
H    -3.89173   1.12457  -0.48313
H    -2.44544   1.58085  -2.68520
H    -2.64265   3.14503  -1.81486
