23
Generated by autodE on: 2022-06-28. E = -351.521381 Ha
C    -3.56072   1.04040  -0.73434
C    -2.55715   0.35425  -0.14454
C    -2.83482  -0.70163   0.89482
C    -1.16967   0.62910  -0.51268
C    -0.07774   0.01023   0.00261
C     1.27955   0.32029  -0.39776
C     2.41818  -0.25708   0.06253
C     3.76227   0.17601  -0.45089
C     2.45838  -1.35066   1.09192
H    -3.35594   1.80622  -1.48887
H    -4.60744   0.85438  -0.47806
H    -3.91341  -0.80568   1.07887
H    -2.34202  -0.45771   1.85065
H    -2.44103  -1.68229   0.57977
H    -1.02051   1.40578  -1.27245
H    -0.21882  -0.76519   0.76044
H     1.38216   1.10827  -1.15375
H     3.68309   0.97852  -1.19888
H     4.29979  -0.67489  -0.90687
H     4.40163   0.53162   0.37712
H     1.46681  -1.65944   1.44709
H     2.96921  -2.24037   0.68312
H     3.05336  -1.03180   1.96601
