37
Generated by autodE on: 2022-06-28. E = -921.614842 Ha
C     1.82023  -2.77558   1.25873
C     2.61406  -1.64147   0.63039
O     3.85154  -1.56304   0.82451
C     1.87219  -0.69612  -0.15426
O     0.50318  -1.03228  -0.26739
C    -0.49745  -0.23361  -0.07688
C    -0.35960   1.06438   0.58149
C     0.46263   1.20242   1.72013
C     0.54353   2.42937   2.36854
C    -0.15965   3.53724   1.87447
C    -0.96659   3.40982   0.74117
C    -1.07856   2.17606   0.10096
C    -1.77042  -0.74941  -0.54206
C    -2.98978  -0.27723  -0.00477
C    -4.19615  -0.81224  -0.44588
C    -4.20484  -1.81282  -1.42460
C    -3.00132  -2.28914  -1.96174
C    -1.79001  -1.76746  -1.52402
C     2.39503   0.41491  -0.89092
C     1.52895   1.11113  -1.92907
O     3.57660   0.80595  -0.75288
H     2.51553  -3.45127   1.77426
H     1.24975  -3.33713   0.50212
H     1.08893  -2.38246   1.98435
H     1.01237   0.34419   2.10541
H     1.16145   2.52777   3.26313
H    -0.07543   4.50278   2.37816
H    -1.51105   4.27268   0.35283
H    -1.69583   2.07755  -0.79245
H    -2.98656   0.48011   0.77870
H    -5.13517  -0.45355  -0.02032
H    -5.15507  -2.22489  -1.77156
H    -3.01379  -3.06473  -2.73000
H    -0.84997  -2.11810  -1.95045
H     0.63655   0.55393  -2.24412
H     1.20993   2.09379  -1.54717
H     2.16452   1.29163  -2.80882
