41
Generated by autodE on: 2022-06-19. E = -1085.858647 Ha
C    -3.76812   2.10089   2.06174
O    -2.68112   1.76800   1.18184
C    -2.43399   0.47593   0.99608
O    -3.07066  -0.42140   1.50393
C    -1.28148   0.26811   0.03689
C    -0.72791  -1.16690  -0.05212
O    -0.69735  -2.05058   0.76833
O    -0.16574  -1.24833  -1.26888
C    -0.34112   0.11173  -1.89875
C    -0.22666  -0.03372  -3.38623
C     0.67023   1.02781  -1.17507
C     2.12412   0.53071  -1.21096
C     2.54546  -0.23637   0.01502
C     3.72567  -1.11254   0.02862
N     4.44316  -1.18335  -1.12182
O     4.07399  -1.77219   1.02910
C     1.89854  -0.03574   1.19336
N     0.81842   0.77777   1.36241
C     0.17267   0.83142   2.66662
C     0.00362   1.16798   0.22930
N    -1.60648   0.56982  -1.36522
C    -2.81782  -0.07369  -1.87286
H    -4.70804   1.67546   1.68321
H    -3.81988   3.19510   2.07414
H    -3.56716   1.71457   3.07106
H    -0.45768   0.92771  -3.86601
H     0.79645  -0.32477  -3.66002
H    -0.91766  -0.80057  -3.76101
H     0.61560   1.99884  -1.68014
H     2.25828  -0.07976  -2.11704
H     2.78555   1.40523  -1.34041
H     4.23490  -0.61415  -1.93195
H     5.27807  -1.75864  -1.13539
H     2.26752  -0.51988   2.09958
H    -0.38254   1.77400   2.76817
H    -0.52697  -0.00910   2.81776
H     0.93337   0.78945   3.45722
H    -0.35869   2.19073   0.38512
H    -2.93338   0.16219  -2.93815
H    -2.82524  -1.17214  -1.75043
H    -3.68973   0.33961  -1.34764
