20
Generated by autodE on: 2022-06-19. E = -457.715305 Ha
C    -3.03942  -0.90421  -0.22339
N    -1.82502  -0.12451  -0.04927
C    -1.91454   1.26505   0.10147
C    -0.83390   2.05166   0.22531
C     0.57813   1.52006   0.21691
C     0.57673   0.01238   0.02379
C     1.83228  -0.75221  -0.04179
N     2.97658  -0.03390   0.08505
O     1.87720  -1.98852  -0.20667
C    -0.58620  -0.68920  -0.09316
H    -3.72994  -0.74644   0.62027
H    -2.78383  -1.97013  -0.27010
H    -3.56243  -0.62744  -1.15398
H    -2.93172   1.66088   0.11043
H    -0.98472   3.12743   0.34076
H     1.16717   2.02060  -0.57861
H     1.09520   1.79886   1.15844
H     3.86334  -0.52501   0.05434
H     2.98254   0.96621   0.23961
H    -0.55689  -1.77138  -0.23000
