21
Generated by autodE on: 2022-06-19. E = -628.122775 Ha
C    -3.69658   0.34245  -0.33098
O    -2.40197  -0.05510   0.12806
C    -1.34422   0.46495  -0.53471
O    -1.47878   1.23871  -1.47743
C    -0.09698  -0.00227   0.00613
C     0.12338  -0.89172   1.07828
O    -0.54755  -1.53152   1.86618
O     1.56756  -0.98394   1.15688
C     2.10775  -0.21896   0.21767
C     3.57571  -0.12427   0.07230
N     1.17398   0.38016  -0.48672
C     1.42044   1.29391  -1.59813
H    -4.41700  -0.17410   0.31478
H    -3.85121   0.04435  -1.37879
H    -3.82804   1.43135  -0.24320
H     3.91148   0.91683   0.19683
H     4.04921  -0.75110   0.83718
H     3.88985  -0.46909  -0.92508
H     0.96615   0.89189  -2.51126
H     0.97563   2.27068  -1.37524
H     2.50098   1.40064  -1.73669
