14
Generated by autodE on: 2022-10-21. E = -419.920898 Ha
C    -3.48030  -0.91626   0.21250
O    -2.76454   0.35413   0.22070
C    -1.49056   0.31089   0.12520
C    -0.27627   0.31590   0.03664
C     1.15237   0.39162  -0.06389
O     1.79307   1.42896  -0.05336
O     1.71424  -0.82380  -0.17241
C     3.14488  -0.85534  -0.27965
H    -3.28228  -1.43767  -0.73398
H    -3.15298  -1.52201   1.06854
H    -4.54088  -0.65803   0.30078
H     3.47838  -0.30692  -1.17272
H     3.60998  -0.41345   0.61368
H     3.41646  -1.91413  -0.36288
