19
Generated by autodE on: 2022-10-26. E = -585.858280 Ha
C    -2.97090  -2.02435  -1.57137
O    -2.06341  -1.94488  -0.46263
C    -1.34584  -0.81984  -0.35689
O    -1.41859   0.11155  -1.13891
C    -0.55329  -0.84661   0.87702
N     0.41440  -0.00138   1.17625
C     0.82733   0.08812   2.59629
C     1.11428   0.79924   0.29516
C     1.89422   1.86598   0.79243
N     2.54649   2.76007   1.16587
C     1.22818   0.49306  -1.07574
N     1.40373   0.24596  -2.20330
H    -3.73089  -1.23218  -1.50298
H    -3.44351  -3.01069  -1.50374
H    -2.42528  -1.92603  -2.52103
H    -0.86034  -1.53935   1.65823
H     0.24282  -0.62685   3.18144
H     1.89951  -0.12844   2.67582
H     0.62502   1.10646   2.95291
