33
Generated by autodE on: 2022-10-21. E = -1005.767484 Ha. Imaginary frequency = -330.6 cm-1
C     4.18592   0.45042   0.87653
O     2.86873  -0.08842   1.05071
C     2.25429  -0.54013  -0.06261
O     2.78790  -0.53496  -1.16251
C     0.93196  -1.01350   0.20068
C    -0.19242  -1.50798   0.42571
O    -0.95938  -2.55540   0.61769
C    -0.33819  -3.82228   0.30710
C    -1.67021   0.00020   0.64995
C    -2.38417   0.01406  -0.65730
O    -2.46075   0.98091  -1.38918
O    -2.99274  -1.14711  -0.88201
C    -3.77470  -1.24225  -2.08380
N    -0.88544   1.03498   1.03083
C    -0.68532   1.21252   2.48196
C     0.08544   1.55082   0.22708
C     1.05917   2.42524   0.78380
N     1.89871   3.11963   1.19466
C     0.16622   1.41671  -1.18608
N     0.38501   1.37518  -2.32970
H     4.87845  -0.32577   0.51890
H     4.49724   0.80793   1.86496
H     4.17185   1.28477   0.16112
H     0.53728  -3.97624   0.95570
H    -0.03335  -3.83725  -0.74978
H    -1.09785  -4.58917   0.49866
H    -2.24223  -0.45749   1.45833
H    -4.59740  -0.51317  -2.06290
H    -4.17058  -2.26366  -2.10257
H    -3.14296  -1.05973  -2.96467
H    -0.56798   2.27922   2.70668
H     0.21726   0.66253   2.78736
H    -1.56309   0.82523   3.00643
