12
Generated by autodE on: 2022-06-19. E = -157.300302 Ha
C    -1.96197   0.00836   0.09246
C    -0.50484   0.13579   0.41878
C     0.50484  -0.13576  -0.41880
C     1.96197  -0.00838  -0.09245
H    -2.48510   0.97377   0.21239
H    -2.46466  -0.69949   0.77535
H    -2.12013  -0.34107  -0.94000
H    -0.26361   0.48136   1.43385
H     0.26361  -0.48131  -1.43387
H     2.48496  -0.97392  -0.21189
H     2.12011   0.34149   0.93986
H     2.46481   0.69907  -0.77564
