28
Generated by autodE on: 2022-07-27. E = -704.635047 Ha
N     3.52828  -1.48117   0.39563
C     2.95096  -0.54033   0.80945
N     2.48271   0.54785   1.36754
N     1.28788   1.03020   0.97607
C     0.27046   0.50676   0.31841
C    -0.79815   1.42133  -0.11227
C    -0.52664   2.76733  -0.43345
C    -1.56059   3.62581  -0.80600
C    -2.87584   3.15538  -0.87661
C    -3.15339   1.81783  -0.57357
C    -2.12575   0.95501  -0.19707
C     0.17374  -0.94009   0.06049
C    -0.16569  -1.40786  -1.22169
C    -0.29874  -2.77583  -1.45604
C    -0.11747  -3.68839  -0.41076
C     0.20181  -3.22850   0.87061
C     0.35447  -1.86282   1.10729
H     1.17954   2.00528   1.26466
H     0.50016   3.13939  -0.42387
H    -1.33485   4.66393  -1.05922
H    -3.68284   3.82808  -1.17549
H    -4.17868   1.44523  -0.62657
H    -2.35066  -0.08288   0.05161
H    -0.31437  -0.69411  -2.03390
H    -0.54861  -3.13200  -2.45782
H    -0.22846  -4.75941  -0.59504
H     0.33519  -3.93729   1.69072
H     0.60189  -1.50657   2.10886
