28
Generated by autodE on: 2022-06-19. E = -704.635045 Ha
N    -3.37794   0.79110   1.67736
C    -2.25236   0.72925   2.02233
N    -1.07277   0.70898   2.59050
N     0.02960   0.59625   1.82519
C     0.23419   0.20938   0.58004
C    -0.81643  -0.45009  -0.21413
C    -1.53427  -1.53837   0.31543
C    -2.48260  -2.19792  -0.46576
C    -2.73475  -1.77267  -1.77373
C    -2.02383  -0.69149  -2.30657
C    -1.06118  -0.03964  -1.53704
C     1.57846   0.41849   0.01889
C     2.37883   1.51057   0.41272
C     3.66237   1.66873  -0.10967
C     4.16329   0.75110  -1.03846
C     3.37142  -0.32809  -1.44624
C     2.08892  -0.49391  -0.92682
H     0.86257   0.87273   2.34998
H    -1.33775  -1.87495   1.33488
H    -3.02871  -3.04731  -0.04978
H    -3.48399  -2.28634  -2.38046
H    -2.21787  -0.35762  -3.32820
H    -0.49982   0.79843  -1.95393
H     1.98823   2.26091   1.10370
H     4.26785   2.52403   0.19802
H     5.16647   0.88123  -1.45057
H     3.75753  -1.04820  -2.17099
H     1.48190  -1.34483  -1.23860
