40
Generated by autodE on: 2022-06-19. E = -861.907881 Ha. Imaginary frequency = -396.2 cm-1
C     1.10593   1.83455  -2.04785
C     1.10470   0.35788  -1.74359
C     2.29455  -0.25096  -1.33717
C     2.55032  -1.72190  -1.43166
N     2.09925  -0.02178   0.84135
C     3.16725   0.52918   1.37531
N     4.18941   0.91792   1.80812
N     0.95646   0.70323   0.90307
C    -0.06851   0.25348   0.12810
C    -1.21551   1.20398   0.00294
C    -1.47802   2.13382   1.02616
C    -2.55068   3.02330   0.92689
C    -3.38646   2.99669  -0.19176
C    -3.13880   2.07198  -1.21151
C    -2.06656   1.18457  -1.11654
C    -0.40387  -1.20786   0.23521
C    -1.03646  -1.92311  -0.79473
C    -1.38652  -3.26423  -0.62454
C    -1.11704  -3.91914   0.58031
C    -0.49991  -3.21424   1.61752
C    -0.14987  -1.87382   1.44783
H     0.09479   2.22725  -2.21966
H     1.70218   2.05250  -2.95122
H     1.55784   2.40890  -1.22094
H     0.38448  -0.26315  -2.28115
H     3.18485   0.38290  -1.27381
H     3.00686  -1.95921  -2.40992
H     3.25444  -2.05735  -0.65519
H     1.62385  -2.30622  -1.34459
H     1.06674   1.72091   0.92303
H    -0.85537   2.14868   1.92249
H    -2.73706   3.73243   1.73674
H    -4.22728   3.68977  -0.26876
H    -3.78111   2.04460  -2.09470
H    -1.87779   0.49367  -1.93639
H    -1.24350  -1.44818  -1.75198
H    -1.86943  -3.79997  -1.44501
H    -1.38758  -4.96953   0.71038
H    -0.28987  -3.70846   2.56912
H     0.32328  -1.33484   2.26837
