43
Generated by autodE on: 2022-06-18. E = -904.398946 Ha
C    -0.52758   1.12559  -2.34156
C    -1.31052  -0.03157  -1.80392
O    -1.86270  -0.84058  -2.53144
C    -1.35339  -0.21777  -0.30067
C    -1.57819   1.02391   0.58801
O    -1.41555   2.20118   0.36477
O    -1.98861   0.54618   1.77018
C    -2.02949  -0.96541   1.61339
C    -2.95315  -1.51561   2.65919
C    -0.56649  -1.39684   1.65121
C    -0.00098  -0.89496   0.28094
C     0.40467  -2.06516  -0.61459
C     1.10473   0.10528   0.48963
C     2.31754   0.09618  -0.09883
C     3.34265   1.08978   0.17292
C     4.57560   1.15530  -0.38542
C     5.09997   0.18149  -1.40285
C     5.53345   2.25080  -0.00962
N    -2.37838  -1.13477   0.22261
C    -3.76067  -0.81855  -0.13932
H     0.48447   1.13464  -1.90718
H    -1.00590   2.06675  -2.03072
H    -0.47872   1.06088  -3.43598
H    -2.52048  -1.34949   3.65567
H    -3.93828  -1.03155   2.61842
H    -3.07580  -2.59723   2.50608
H    -0.50309  -2.48973   1.73087
H    -0.05196  -0.94968   2.51066
H     1.20325  -2.64304  -0.12646
H     0.77827  -1.72979  -1.59249
H    -0.44956  -2.73191  -0.78443
H     0.89631   0.89747   1.21763
H     2.55597  -0.68794  -0.82105
H     3.07348   1.86148   0.90391
H     4.38773  -0.61208  -1.66294
H     5.37754   0.71204  -2.33070
H     6.02561  -0.29444  -1.03403
H     6.46959   1.82880   0.39792
H     5.10764   2.93816   0.73604
H     5.82494   2.83715  -0.89941
H    -4.43514  -1.52081   0.36767
H    -3.88669  -0.95118  -1.21919
H    -4.06696   0.21047   0.12765
