23
Generated by autodE on: 2022-06-18. E = -351.519661 Ha
C     3.27424  -0.70132   1.76161
C     2.42788  -0.17934   0.82916
C     2.93232   0.71340  -0.27651
C     0.99800  -0.48081   0.88874
C     0.05723  -0.02333   0.02750
C    -1.35059  -0.34724   0.12758
C    -2.32370   0.09836  -0.70550
C    -3.76013  -0.28287  -0.49517
C    -2.04320   1.01869  -1.86954
H     4.34757  -0.49239   1.74028
H     2.90397  -1.34817   2.56319
H     4.02048   0.85322  -0.21034
H     2.69660   0.29100  -1.26745
H     2.45251   1.70548  -0.23593
H     0.67989  -1.13414   1.71011
H     0.36464   0.63163  -0.79287
H    -1.63944  -1.00544   0.95558
H    -4.17130  -0.77487  -1.39486
H    -4.38165   0.61653  -0.33122
H    -3.89146  -0.95694   0.36414
H    -1.19623   0.67045  -2.48132
H    -2.92120   1.10540  -2.52632
H    -1.79118   2.03629  -1.52325
