43
Generated by autodE on: 2022-06-18. E = -904.372365 Ha. Imaginary frequency = -491.0 cm-1
C    -0.31379   0.82506  -2.57383
C    -1.39596  -0.03902  -1.97195
O    -1.92611  -0.93919  -2.64371
C    -1.71723   0.19176  -0.58732
C    -1.10370   1.15024   0.28244
O    -0.33383   2.08314   0.11825
O    -1.57644   0.84668   1.56720
C    -2.26149  -0.35085   1.50075
C    -3.20875  -0.60367   2.62932
C    -0.79063  -1.65237   1.78881
C     0.21130  -1.45878   0.81771
C     0.26744  -2.34838  -0.39543
C     1.24417  -0.49188   1.05908
C     2.26787  -0.18029   0.20848
C     3.23959   0.84310   0.49007
C     4.25629   1.24299  -0.32182
C     4.53400   0.66301  -1.67747
C     5.19092   2.33647   0.10501
N    -2.61883  -0.53413   0.19082
C    -3.46022  -1.63951  -0.23164
H    -0.56051   1.89404  -2.49634
H     0.63612   0.68220  -2.03089
H    -0.18131   0.54223  -3.62638
H    -3.54292  -1.64851   2.63613
H    -4.08538   0.05699   2.53540
H    -2.70354  -0.38874   3.57956
H    -1.37295  -2.57756   1.73310
H    -0.56922  -1.30649   2.80260
H     0.95328  -3.19223  -0.19761
H     0.64291  -1.83441  -1.28997
H    -0.71673  -2.77205  -0.63161
H     1.16986   0.06599   1.99867
H     2.35257  -0.72375  -0.73545
H     3.13060   1.35321   1.45416
H     3.82634  -0.11996  -1.97787
H     4.51034   1.45999  -2.44146
H     5.55350   0.23979  -1.70965
H     5.16463   3.17436  -0.61470
H     6.23503   1.97521   0.11286
H     4.94763   2.72585   1.10417
H    -2.92502  -2.59979  -0.15240
H    -3.75785  -1.48613  -1.27098
H    -4.35278  -1.67706   0.40565
