24
Generated by autodE on: 2022-06-19. E = -605.594722 Ha
C    -3.07121  -2.32479  -0.37736
N    -2.39164  -1.06654  -0.16871
N    -1.12836  -1.16785  -0.17797
C    -0.16889  -0.22568  -0.03446
C    -0.52783   1.16888   0.29798
O    -1.49013   1.45705   1.02169
N     0.27899   2.13369  -0.22012
C     0.03526   3.53839   0.04487
C     1.17483  -0.81951  -0.13624
O     1.30123  -2.03089  -0.42356
N     2.25485  -0.04777   0.11220
C     3.59761  -0.59133   0.07728
H    -3.68357  -2.56716   0.50761
H    -3.76713  -2.22927  -1.22676
H    -2.38429  -3.16793  -0.57222
H    -0.67556  -2.09457  -0.35030
H     0.89883   1.89000  -0.98600
H    -0.88646   3.89799  -0.44390
H     0.88442   4.12390  -0.32973
H    -0.06667   3.71188   1.12583
H     2.11990   0.90688   0.42498
H     3.76687  -1.32335   0.88492
H     3.79246  -1.09658  -0.88077
H     4.31372   0.23147   0.19377
