24
Generated by autodE on: 2022-07-27. E = -605.608016 Ha
C    -1.03557  -0.54033  -3.51844
N    -0.51499  -0.87373  -2.21236
N    -0.49128   0.10019  -1.39334
C    -0.07486   0.14563  -0.11178
C    -0.23521   1.50345   0.45371
O    -0.71183   2.41879  -0.25358
N     0.14616   1.69274   1.72502
C     0.03141   2.98177   2.37094
C     0.46498  -1.01064   0.61395
O     0.84478  -0.91808   1.80517
N     0.53512  -2.17860  -0.05452
C     1.05382  -3.37502   0.57289
H    -1.92083  -1.16145  -3.73385
H    -0.28217  -0.77808  -4.28724
H    -1.31521   0.52404  -3.60984
H    -0.83133   1.04480  -1.68536
H     0.52181   0.86946   2.20316
H    -1.01483   3.32749   2.40263
H     0.40275   2.89747   3.39976
H     0.62097   3.75161   1.84663
H     0.21145  -2.18396  -1.02428
H     0.46335  -3.65410   1.46064
H     1.01329  -4.19948  -0.14972
H     2.09868  -3.24115   0.89741
