44
Generated by autodE on: 2022-06-19. E = -1063.299452 Ha. Imaginary frequency = -415.4 cm-1
C     1.93389   2.41291   2.44009
N     1.86268   1.15179   1.73352
C     1.35844   1.06497   0.49699
O     0.95447   2.05531  -0.13865
C     1.24474  -0.30751  -0.11027
C     2.07537  -1.44071   0.41478
O     2.51101  -1.44127   1.58540
N     2.29617  -2.46444  -0.42240
C     2.98652  -3.65994   0.01416
N     0.97953  -0.21222  -1.44986
N     0.45679  -1.27595  -2.05317
C     0.01767  -0.95344  -3.39352
C    -1.22720  -1.54009  -0.74423
C    -0.62890  -1.22037   0.50122
C    -1.28056  -0.17077   1.38148
C    -1.92374   0.90170   0.52830
C    -2.12538   2.28326   0.98148
N    -1.77687   2.55922   2.26716
O    -2.61815   3.17221   0.25850
C    -2.38105   0.56145  -0.70832
N    -2.19855  -0.67391  -1.26622
C    -3.04728  -1.08983  -2.37474
H     2.62272   3.11837   1.94673
H     2.29174   2.22842   3.46064
H     0.94238   2.88834   2.49059
H     2.20975   0.27423   2.13261
H     1.74698  -2.45121  -1.28989
H     2.43006  -4.18744   0.80772
H     3.10122  -4.33605  -0.84232
H     3.98513  -3.41894   0.40880
H     0.62963   0.72377  -1.70716
H    -0.53915  -1.80509  -3.80372
H     0.88553  -0.76702  -4.05013
H    -0.62587  -0.05195  -3.41931
H    -1.31024  -2.57420  -1.07102
H    -0.19724  -2.06897   1.03406
H    -0.53420   0.24685   2.07286
H    -2.03815  -0.65567   2.03221
H    -1.81367   3.52434   2.57674
H    -1.27422   1.89468   2.84200
H    -2.94083   1.27661  -1.31476
H    -3.15251  -0.27477  -3.10556
H    -2.60603  -1.95746  -2.87724
H    -4.05353  -1.37010  -2.01884
