37
Generated by autodE on: 2022-06-18. E = -916.954159 Ha
C    -4.05616   1.89911   2.01928
C    -3.40725   1.32910   0.98403
C    -3.92796   1.41279  -0.42618
C    -2.15174   0.61048   1.22515
C    -1.41379  -0.00054   0.28201
C    -0.10948  -0.67043   0.57392
C     1.06286  -0.03310  -0.24145
C     0.99415   1.46201  -0.45811
O     1.02916   2.19646   0.52978
N     0.88298   1.86015  -1.73143
C     0.77658   3.25162  -2.12647
O     1.09219  -0.83249  -1.43744
N     1.24860  -2.09836  -0.83761
O     2.42408  -1.84433   0.02511
C     2.34045  -0.54308   0.42219
O     3.13158  -0.02098   1.15518
C     0.04051  -2.16364   0.09059
C    -1.10828  -2.65022  -0.78780
C     0.28938  -3.13382   1.23473
H    -3.66436   1.83158   3.03874
H    -4.99190   2.44640   1.87485
H    -4.86929   1.97821  -0.47061
H    -3.19541   1.90320  -1.08881
H    -4.10561   0.40771  -0.84354
H    -1.80336   0.58581   2.26409
H    -1.72893   0.02071  -0.76355
H     0.10738  -0.59459   1.64724
H     0.87566   1.14754  -2.45558
H     1.63703   3.55008  -2.74483
H     0.75299   3.87506  -1.22536
H    -0.14517   3.41982  -2.70325
H    -0.92674  -3.69076  -1.09356
H    -2.04743  -2.61278  -0.21854
H    -1.22422  -2.03378  -1.68869
H    -0.63871  -3.23020   1.81690
H     0.55826  -4.12872   0.84892
H     1.08223  -2.78593   1.90999
