14
Generated by autodE on: 2022-06-18. E = -565.379702 Ha
C    -3.26587   0.30037   0.93766
N    -1.85440   0.02747   0.75665
C    -1.13938   0.50660  -0.27905
O    -1.56868   1.22400  -1.18382
C     0.27736   0.08913  -0.25339
O     1.08302   0.49333  -1.23470
N     2.30911   0.05804  -1.10350
O     2.32831  -0.66010   0.00093
C     1.04272  -0.70426   0.63758
O     0.84948  -1.31121   1.66219
H    -3.84909  -0.63345   0.92088
H    -3.61046   0.94988   0.12499
H    -3.44440   0.80507   1.89970
H    -1.38465  -0.56422   1.43921
