37
Generated by autodE on: 2022-06-18. E = -916.902480 Ha. Imaginary frequency = -346.9 cm-1
C    -3.53768   2.35652   1.12191
C    -3.06991   1.36057   0.33276
C    -3.53882   1.18773  -1.08736
C    -2.04727   0.46896   0.85104
C    -1.47408  -0.55882   0.16075
C    -0.41374  -1.34888   0.70501
C     1.36465   0.24354  -0.41606
C     0.63334   1.45781  -0.77472
O     0.04665   1.55554  -1.86024
N     0.61974   2.39701   0.19292
C    -0.14536   3.62028   0.07878
O     1.46367  -0.75359  -1.31670
N     1.88816  -1.87218  -0.67707
O     2.54666  -1.41520   0.44037
C     2.13055  -0.10488   0.72996
O     2.43852   0.46487   1.75879
C     0.10903  -2.53073   0.12042
C    -0.48324  -3.05480  -1.16246
C     0.69296  -3.56489   1.04925
H    -4.28747   3.06558   0.76106
H    -3.17780   2.47919   2.14747
H    -3.95139   0.17927  -1.25329
H    -2.69338   1.30728  -1.78437
H    -4.31141   1.92581  -1.34352
H    -1.70101   0.66731   1.87113
H    -1.80986  -0.77653  -0.85470
H    -0.11829  -1.12601   1.73485
H     1.10744   2.19655   1.06400
H     0.33889   4.40850   0.67012
H    -0.18767   3.93302  -0.97260
H    -1.18028   3.49029   0.44184
H     0.14220  -3.85899  -1.57528
H    -0.58361  -2.26545  -1.92051
H    -1.48751  -3.46842  -0.97091
H    -0.11845  -4.21598   1.41698
H     1.42046  -4.20419   0.52692
H     1.17725  -3.10344   1.92113
