46
Generated by autodE on: 2022-05-31. E = -1205.233421 Ha
C     4.66395  -1.93623  -1.32381
O     3.73015  -1.69825  -0.25738
C     2.89962  -0.66418  -0.40264
O     2.92440   0.09021  -1.35325
C     1.91752  -0.56078   0.76979
C     0.69145  -1.41929   0.51240
C     0.78301  -2.90730   0.52393
C    -0.37925  -0.62884   0.28877
C    -1.78466  -1.04807   0.11877
C    -2.31924  -2.03861   0.96683
C    -3.64738  -2.45027   0.84291
C    -4.47454  -1.87393  -0.12559
C    -3.96208  -0.87867  -0.96346
C    -2.63410  -0.46581  -0.84243
C     0.06021   0.84265   0.30276
C     0.21571   1.47396  -1.10060
O     0.50636   2.64093  -1.26487
O     0.09476   0.59416  -2.08896
C     0.40218   1.05582  -3.41285
C    -0.96006   1.68713   1.08332
O    -1.85944   2.30008   0.54670
O    -0.79591   1.60312   2.39649
C    -1.77055   2.27412   3.21231
N     1.35711   0.75723   0.95438
C     2.22478   1.90813   1.06619
H     5.24161  -2.81945  -1.02856
H     4.12872  -2.12749  -2.26491
H     5.32862  -1.06963  -1.44872
H     2.45907  -0.90294   1.66989
H     0.91505  -3.28151   1.55388
H     1.66412  -3.24045  -0.04628
H    -0.11242  -3.37852   0.09854
H    -1.69149  -2.47210   1.74678
H    -4.03977  -3.21804   1.51401
H    -5.51498  -2.19294  -0.22216
H    -4.60106  -0.41793  -1.72061
H    -2.25349   0.30632  -1.50919
H    -0.24884   1.89765  -3.68730
H     0.22404   0.20291  -4.07735
H     1.45482   1.36744  -3.46554
H    -1.47037   2.09259   4.25039
H    -1.77153   3.35201   2.99716
H    -2.77163   1.86025   3.02478
H     3.02188   1.67583   1.79000
H     2.70286   2.21559   0.11884
H     1.65677   2.76572   1.45664
