29
Generated by autodE on: 2022-05-31. E = -857.261441 Ha
C     4.50791   0.03279  -0.53910
O     3.56428  -0.17793   0.51860
C     2.27482  -0.28419   0.15825
O     1.89646  -0.20603  -1.00038
C     1.45692  -0.57455   1.33122
N     0.13608  -0.70464   1.32539
C    -0.43024  -1.43297   2.48987
C    -0.70409  -0.18275   0.37601
C    -0.29918   1.06270  -0.30390
O     0.41553   1.91780   0.19488
O    -0.81320   1.18503  -1.53183
C    -0.51909   2.40185  -2.22887
C    -2.01173  -0.80379   0.18179
O    -2.28832  -1.96283   0.46530
O    -2.92310   0.03807  -0.33974
C    -4.20379  -0.51940  -0.64970
H     4.51134  -0.82300  -1.23024
H     5.48660   0.13193  -0.05568
H     4.26342   0.94899  -1.09637
H     1.97661  -0.83283   2.25123
H     0.26975  -1.32567   3.32498
H    -1.40087  -1.00453   2.75656
H    -0.54263  -2.49200   2.23514
H     0.56601   2.50758  -2.37254
H    -0.90025   3.27143  -1.67390
H    -1.02389   2.32242  -3.19873
H    -4.70578  -0.87565   0.26204
H    -4.10517  -1.35565  -1.35775
H    -4.78348   0.29236  -1.10504
