46
Generated by autodE on: 2022-05-31. E = -1205.124777 Ha. Imaginary frequency = -457.4 cm-1
C     3.73204  -2.10469  -2.10811
O     3.48180  -1.42910  -0.86605
C     2.34123  -0.73193  -0.78373
O     1.56049  -0.62640  -1.70475
C     2.20675  -0.22006   0.62320
C     0.94640  -1.70835   1.14188
C     1.78817  -2.68426   1.87890
C    -0.18988  -1.46063   0.67584
C    -1.46940  -1.35164   0.08219
C    -2.60312  -0.96849   0.83770
C    -3.84758  -0.85314   0.22429
C    -3.99054  -1.11187  -1.14409
C    -2.87663  -1.49931  -1.89994
C    -1.62744  -1.62431  -1.29936
C     0.37173   1.30554   0.42790
C     0.39156   1.65248  -0.99765
O     1.36865   2.10115  -1.58198
O    -0.78240   1.44675  -1.61645
C    -0.83610   1.74342  -3.01267
C    -0.79247   1.61949   1.23223
O    -1.81420   2.16514   0.82520
O    -0.69146   1.20256   2.51722
C    -1.73539   1.60478   3.40590
N     1.57095   0.91184   1.01281
C     1.99556   1.42556   2.32927
H     4.69233  -2.61736  -1.98297
H     2.93328  -2.83221  -2.31295
H     3.78963  -1.38040  -2.93292
H     3.11057  -0.42554   1.19963
H     2.17654  -2.23845   2.80788
H     2.65540  -2.98233   1.27022
H     1.20624  -3.58260   2.13189
H    -2.48997  -0.76911   1.90312
H    -4.71493  -0.55624   0.81835
H    -4.96844  -1.01361  -1.62067
H    -2.98439  -1.70381  -2.96767
H    -0.75469  -1.90996  -1.88745
H    -0.63195   2.80864  -3.19782
H    -1.85422   1.49389  -3.33497
H    -0.10594   1.13375  -3.56502
H    -1.47524   1.18627   4.38576
H    -1.79214   2.70210   3.46967
H    -2.70911   1.21388   3.07825
H     1.71785   0.73336   3.13528
H     3.08687   1.54688   2.31353
H     1.53257   2.40010   2.50657
