29
Generated by autodE on: 2022-07-27. E = -762.888572 Ha
C     2.92339  -0.55772   0.39061
C     2.10939  -0.47300   1.66445
O     2.61099  -0.85270   2.72517
C     0.80705   0.19642   1.64655
N     0.00617   0.28283   0.54929
C    -0.16355  -0.47212  -0.53060
C     0.41256  -1.77303  -0.56846
N     0.82028  -2.86300  -0.60456
C    -1.00944  -0.02799  -1.63928
C    -1.37563   1.32742  -1.77727
C    -2.21157   1.72500  -2.81845
C    -2.67945   0.78891  -3.74744
C    -2.30378  -0.55361  -3.62993
C    -1.47544  -0.96219  -2.58742
C     0.30463   1.05023   2.73182
C     1.03211   1.13708   4.04200
O    -0.72337   1.71504   2.53223
H     3.90704  -0.11945   0.62026
H     2.48773  -0.02921  -0.46757
H     3.08758  -1.61059   0.11546
H    -0.66304   1.06468   0.66875
H    -0.98917   2.08426  -1.09198
H    -2.48552   2.77767  -2.91485
H    -3.32638   1.10760  -4.56761
H    -2.66075  -1.28898  -4.35395
H    -1.19583  -2.01358  -2.49890
H     2.09683   1.37021   3.89487
H     0.55462   1.90965   4.65877
H     0.99133   0.16759   4.56080
