20
Generated by autodE on: 2022-06-29. E = -1429.971317 Ha
F    -1.23004  -1.79364  -2.37670
C    -1.22854  -1.81856  -1.00381
F    -1.38630  -3.13074  -0.65589
C     0.03438  -1.25983  -0.50895
C     0.71261  -0.36615  -0.05344
C     1.02558   0.92896   0.50661
Cl    2.59773   1.57460  -0.13088
Cl    1.17140   0.76160   2.31835
C    -0.12179   1.89345   0.15240
C    -1.54335   1.37030   0.44195
C    -2.26134   0.53672  -0.65641
C    -2.38552  -0.98714  -0.46040
H     0.06751   2.82382   0.70772
H    -0.01763   2.12298  -0.91942
H    -1.54939   0.82645   1.40072
H    -2.15194   2.27026   0.61317
H    -1.81468   0.74278  -1.64341
H    -3.29272   0.91274  -0.71967
H    -3.28288  -1.36567  -0.97546
H    -2.48640  -1.23552   0.60729
