49
Generated by autodE on: 2022-06-29. E = -2192.854791 Ha. Imaginary frequency = -207.4 cm-1
C     4.10789  -0.38077  -0.15727
C     2.87356  -0.37944   0.71246
O     2.75036  -1.14030   1.65119
C     1.89630   0.74178   0.44080
C     2.03656   2.01021   1.20857
C     2.69408   1.95317   2.55335
O     1.63831   3.05745   0.70353
N     1.40173   0.95179  -0.79853
C     0.95449   0.05748  -1.69444
C     1.56950  -1.23136  -1.76478
N     2.07783  -2.27463  -1.85735
C     0.09476   0.51377  -2.80143
C    -0.80573   1.57712  -2.59830
C    -1.63324   2.00284  -3.63632
C    -1.58411   1.36884  -4.88271
C    -0.70198   0.30246  -5.08490
C     0.13192  -0.12526  -4.05246
C    -0.54776  -0.88696   0.00670
C    -0.24081  -0.32811   1.07023
C    -0.74405   0.01802   2.40317
Cl   -0.76462   1.83513   2.62420
Cl    0.29264  -0.68371   3.72182
C    -2.17309  -0.51279   2.59971
C    -3.22424   0.00303   1.59395
C    -3.70087  -0.98252   0.51228
C    -2.90765  -1.08246  -0.79389
C    -1.53531  -1.72769  -0.69893
F    -1.12020  -2.06235  -1.96691
F    -1.62793  -2.93448  -0.03547
H     4.84825   0.25822   0.35663
H     3.94540   0.04491  -1.15521
H     4.51464  -1.39845  -0.22919
H     3.77307   1.76848   2.41215
H     2.29655   1.12639   3.15600
H     2.55690   2.90984   3.07215
H     1.05360   1.91615  -0.89595
H    -0.88973   2.05320  -1.61894
H    -2.33206   2.82443  -3.46523
H    -2.23874   1.70005  -5.69185
H    -0.66128  -0.19956  -6.05392
H     0.81804  -0.95826  -4.21669
H    -2.46154  -0.24725   3.62649
H    -2.10114  -1.61037   2.55622
H    -4.10934   0.28260   2.18402
H    -2.87701   0.93762   1.12555
H    -4.71710  -0.67908   0.21671
H    -3.80301  -1.98911   0.94928
H    -2.77214  -0.09203  -1.25467
H    -3.47095  -1.70421  -1.50829
