25
Generated by autodE on: 2022-06-01. E = -573.280979 Ha
C     5.31663  -0.07842  -0.43968
N     4.15161   0.42057   0.25312
C     2.87301   0.07706  -0.06921
O     2.60891  -0.72401  -1.00230
C     1.82850   0.68083   0.71622
N     0.56952   0.33560   0.37954
C    -0.60273   0.69316   0.87543
C    -1.86412   0.21179   0.36576
C    -3.05610   0.65015   0.99020
C    -4.30282   0.21755   0.54249
C    -4.40036  -0.66418  -0.54053
C    -3.22928  -1.10623  -1.17060
C    -1.97922  -0.67810  -0.73001
H     5.88972   0.73692  -0.91263
H     4.99018  -0.77141  -1.22414
H     5.99460  -0.61828   0.24243
H     4.28665   1.07765   1.01383
H     1.99050   1.38061   1.53464
H     0.57717  -0.32711  -0.41004
H    -0.58878   1.39081   1.71501
H    -2.98782   1.33821   1.83670
H    -5.20758   0.57133   1.04310
H    -5.37736  -1.00365  -0.89147
H    -3.29188  -1.79345  -2.01802
H    -1.08651  -1.04025  -1.24688
