27
Generated by autodE on: 2022-06-01. E = -603.306037 Ha
F    -0.96909  -0.67456   2.16337
C    -1.23826  -0.57976   0.85120
C    -0.36394  -0.32324  -0.14554
C     1.07478  -0.06690  -0.09276
C     1.74005   0.49655  -1.20157
C     3.11145   0.75767  -1.16147
C     3.85520   0.45835  -0.01652
C     3.21026  -0.10500   1.09133
C     1.84070  -0.36333   1.05759
C    -1.26327  -0.11730  -1.37058
C    -1.97686   1.25765  -1.17202
C    -2.93602   0.97935   0.02296
C    -2.65620  -0.52711   0.35047
C    -2.42415  -1.08775  -1.06704
H     1.17662   0.73987  -2.10365
H     3.60148   1.19838  -2.03323
H     4.92848   0.66010   0.01351
H     3.78119  -0.34682   1.99137
H     1.35482  -0.80507   1.92772
H    -0.76469  -0.23698  -2.33977
H    -2.53722   1.53238  -2.07828
H    -1.25489   2.06054  -0.96581
H    -3.98983   1.10845  -0.26547
H    -2.74235   1.62318   0.89265
H    -3.40186  -1.01232   0.99244
H    -3.28945  -0.94874  -1.73311
H    -2.11548  -2.14316  -1.06739
