52
Generated by autodE on: 2022-06-01. E = -1176.582643 Ha. Imaginary frequency = -278.5 cm-1
C    -2.81591   2.28550   2.94012
N    -1.65179   1.43119   2.89770
C    -0.62631   1.60001   2.01591
O    -0.55985   2.59407   1.26203
C     0.37464   0.54837   2.05163
N     1.53853   0.62627   1.36019
C     1.65941   1.04151   0.07701
C     2.92582   0.94621  -0.64414
C     3.03425   1.62187  -1.87789
C     4.18088   1.50378  -2.66220
C     5.25169   0.71217  -2.23184
C     5.15911   0.03907  -1.00832
C     4.01084   0.14944  -0.22347
C     0.27330  -0.33918  -0.95358
F     0.00971   0.52076  -1.98903
C     1.06418  -1.58166  -1.31104
C     0.07151  -2.51988  -2.06564
C    -0.91252  -2.96348  -0.94079
C    -0.40041  -2.16572   0.30116
C     1.11888  -2.26162   0.06561
C    -0.71240  -0.69796  -0.01697
C    -2.06853  -0.16505   0.07463
C    -2.47311   1.02311  -0.57948
C    -3.78783   1.48234  -0.49249
C    -4.74424   0.78037   0.24750
C    -4.36128  -0.39073   0.91194
C    -3.04816  -0.85124   0.83165
H    -3.72555   1.74294   2.63685
H    -2.97675   2.69229   3.95219
H    -2.66410   3.12244   2.24858
H    -1.69131   0.55269   3.40356
H     0.39686  -0.12082   2.91260
H     2.26104  -0.00465   1.69941
H     0.97708   1.83407  -0.21530
H     2.19813   2.23540  -2.21969
H     4.24156   2.03580  -3.61476
H     6.15193   0.62130  -2.84383
H     5.98900  -0.58143  -0.66155
H     3.97112  -0.39661   0.72175
H     2.01409  -1.39676  -1.82752
H     0.60985  -3.37725  -2.49697
H    -0.42922  -1.98971  -2.88871
H    -0.83996  -4.04546  -0.75038
H    -1.96183  -2.73303  -1.17174
H    -0.76697  -2.53875   1.26500
H     1.72809  -1.73713   0.80718
H     1.46502  -3.30402   0.00375
H    -1.75136   1.58632  -1.16540
H    -4.06765   2.40222  -1.01262
H    -5.77292   1.14262   0.31048
H    -5.09225  -0.94942   1.50209
H    -2.77436  -1.76262   1.36455
