41
Generated by autodE on: 2022-06-13. E = -1035.793435 Ha
C    -0.00960   1.26334  -5.51162
N     0.45344   1.55234  -4.16794
C    -0.09523   1.01703  -3.07417
O    -1.06230   0.24910  -3.06375
C     0.52628   1.45801  -1.73699
F     1.74769   2.10936  -1.97714
C     0.73821   0.32196  -0.84772
C     0.63519  -0.32086   0.17218
C     0.16295  -0.67399   1.50447
C     1.22426  -1.51141   2.25897
O     2.39936  -1.49943   1.87897
N     0.80621  -2.16357   3.34822
C     1.71812  -2.93254   4.17178
C    -1.22607  -1.35891   1.46272
O    -1.76851  -1.71515   2.51854
N    -1.80266  -1.51432   0.26654
C    -3.13453  -2.07380   0.12665
C     0.00103   0.69961   2.25876
C    -0.81683   1.78245   1.52897
C    -0.11323   2.68921   0.47996
C    -0.42091   2.43760  -1.00959
H     0.06545   2.16713  -6.13129
H     0.58699   0.46469  -5.98212
H    -1.05689   0.93929  -5.47238
H     1.27669   2.13324  -4.04157
H    -0.19657  -2.14872   3.53891
H     2.18045  -3.75607   3.60327
H     2.52804  -2.29740   4.56333
H     1.16076  -3.35599   5.01605
H    -1.34952  -1.11481  -0.55147
H    -3.32150  -2.27842  -0.93452
H    -3.21785  -3.01152   0.69389
H    -3.90612  -1.37863   0.49643
H     1.01385   1.07375   2.47395
H    -0.47691   0.46957   3.22163
H    -1.19113   2.44356   2.32573
H    -1.71853   1.33050   1.08240
H    -0.43531   3.72200   0.68153
H     0.97780   2.68688   0.63890
H    -1.44284   2.04564  -1.12285
H    -0.36819   3.37860  -1.57992
