22
Generated by autodE on: 2022-06-13. E = -591.899908 Ha
C     3.61605  -1.71630  -0.09535
O     2.60683  -0.70870  -0.05815
C     3.04214   0.58580  -0.04681
O     4.24051   0.86943  -0.06661
C     1.97586   1.53500  -0.01059
N     0.70743   1.13066   0.00710
C    -0.38437   0.71195   0.02058
C    -1.69367   0.18260   0.03526
C    -1.87085  -1.21985   0.04249
C    -3.16087  -1.74349   0.05549
C    -4.27373  -0.89408   0.06266
C    -4.09404   0.49416   0.05609
C    -2.81417   1.04272   0.04180
H     4.23331  -1.62831  -1.00276
H     4.27086  -1.65707   0.78774
H     3.08761  -2.67795  -0.09969
H     2.17519   2.60528   0.00182
H    -0.99812  -1.87461   0.03756
H    -3.29870  -2.82687   0.06059
H    -5.28159  -1.31420   0.07336
H    -4.96075   1.15864   0.06154
H    -2.66747   2.12370   0.03573
