63
Generated by autodE on: 2022-06-13. E = -1627.710513 Ha. Imaginary frequency = -205.0 cm-1
C   -10.88418   0.24003  18.84492
N   -10.92044   0.84707  17.52885
C   -10.84140   0.11944  16.40816
O   -10.55927  -1.08201  16.37401
C   -11.06846   0.91276  15.09897
F   -11.76655   2.09654  15.43000
C    -9.73018   1.36928  14.48366
C    -8.72054   0.29353  14.05906
C    -8.94857  -0.47737  12.73947
C    -9.71092  -1.81494  12.80945
C   -11.23115  -1.76121  12.40747
C   -11.33999  -1.32469  10.92272
O   -11.57999  -0.14474  10.63723
N   -11.08927  -2.26687  10.00690
C   -11.20144  -2.00355   8.58737
C   -11.78198  -3.18316  12.67173
O   -11.51086  -4.12719  11.91366
N   -12.49134  -3.34942  13.79350
C   -13.08489  -4.62348  14.14720
C   -11.86145  -0.74735  13.26306
C   -11.82427   0.10897  14.14468
C   -14.31609   0.40442  14.79634
C   -14.07628  -0.29453  16.04989
O   -13.92799   0.27382  17.12304
O   -14.01173  -1.63734  15.91684
C   -13.70767  -2.38544  17.10272
N   -14.59187  -0.26430  13.70011
C   -14.27773  -0.97206  12.78228
C   -14.76970  -1.94980  11.85192
C   -15.50555  -3.05002  12.34046
C   -15.90633  -4.05272  11.46124
C   -15.60095  -3.95831  10.09764
C   -14.88641  -2.85853   9.61093
C   -14.45283  -1.86183  10.48342
H   -10.14114  -0.56748  18.86259
H   -11.86752  -0.18043  19.11422
H   -10.60716   0.99808  19.58898
H   -11.31588   1.77759  17.43792
H    -9.25814   2.01980  15.23679
H    -9.99028   2.00314  13.62095
H    -8.56250  -0.42038  14.88305
H    -7.76576   0.83163  13.94930
H    -9.41168   0.18895  11.99401
H    -7.94971  -0.71445  12.34225
H    -9.66770  -2.21718  13.83276
H    -9.23909  -2.55719  12.15009
H   -11.05457  -3.22680  10.36029
H   -10.70656  -2.81022   8.03125
H   -10.71829  -1.04886   8.33742
H   -12.25505  -1.94965   8.26321
H   -12.69875  -2.53986  14.37566
H   -12.36524  -5.28116  14.66248
H   -13.43902  -5.13804  13.24360
H   -13.93834  -4.44649  14.81232
H   -14.50206   1.47762  14.83075
H   -12.66837  -2.20381  17.41041
H   -14.39135  -2.11369  17.91889
H   -13.83869  -3.44040  16.83724
H   -15.73547  -3.11202  13.40510
H   -16.46521  -4.91111  11.84004
H   -15.92171  -4.74641   9.41281
H   -14.65150  -2.78324   8.54715
H   -13.87866  -1.01060  10.11917
