39
Generated by autodE on: 2022-05-29. E = -918.309225 Ha
C     3.83261  -1.78951   0.70783
N     2.47865  -1.27230   0.68406
C     2.19123  -0.08144   0.14916
O     3.02944   0.69034  -0.32377
C     0.71131   0.29925   0.15313
N     0.46184   1.68899  -0.09208
C    -0.96091   1.65492   0.29032
C    -1.66005   2.98849   0.37055
C    -0.87701   0.91881   1.62905
O    -1.55048   1.01506   2.62623
O     0.15625   0.05515   1.51228
C    -1.52858   0.57715  -0.72887
C    -1.93173   1.24784  -2.04187
C    -2.76395  -0.12259  -0.13949
C    -0.23931  -0.37881  -0.88090
C     0.43902  -0.34081  -2.26427
C    -0.55989  -1.84564  -0.59124
C    -1.39688  -2.58137  -1.60617
O    -0.10933  -2.44662   0.37304
H     4.51648  -1.06587   1.17589
H     4.20425  -1.99865  -0.30901
H     3.84813  -2.71976   1.28845
H     1.69160  -1.86923   0.93957
H     1.01535   2.27178   0.54086
H    -1.59943   3.52541  -0.58469
H    -2.71852   2.84947   0.63269
H    -1.19614   3.61076   1.15071
H    -1.13614   1.88201  -2.45283
H    -2.82405   1.87127  -1.88481
H    -2.19104   0.48729  -2.79208
H    -2.52640  -0.78909   0.70211
H    -3.28344  -0.71624  -0.90250
H    -3.47479   0.63297   0.22757
H     1.28253  -1.04792  -2.28902
H     0.82808   0.66240  -2.47012
H    -0.25433  -0.61789  -3.06616
H    -0.70140  -3.14015  -2.25563
H    -2.03263  -3.31368  -1.08989
H    -1.99923  -1.92502  -2.24424
