19
Generated by autodE on: 2022-07-26. E = -568.917766 Ha
C     3.12644  -2.40123  -0.05998
N     1.84523  -1.74115   0.07878
C     1.62370  -0.46893  -0.30236
O     2.46353   0.28802  -0.80960
C     0.25852   0.02202  -0.08082
N    -0.16581   1.23589  -0.38972
C    -1.48730   1.39891  -0.06464
C    -2.27028   2.64069  -0.28476
C    -1.91829   0.17666   0.49445
O    -2.96734  -0.25895   0.95363
O    -0.74575  -0.66798   0.45535
H     3.84633  -1.69421  -0.48785
H     3.04933  -3.27582  -0.72493
H     3.49998  -2.74111   0.91846
H     1.07065  -2.26134   0.48100
H     0.44357   1.93761  -0.81281
H    -3.28694   2.49231   0.10495
H    -1.82659   3.50614   0.23523
H    -2.34887   2.89696  -1.35493
