30
Generated by autodE on: 2022-05-31. E = -746.809162 Ha
C    -2.84502  -2.57654  -0.32215
N    -1.84691  -1.52610  -0.33191
C    -2.11474  -0.29190   0.14138
O    -3.25341   0.02822   0.52074
C    -1.01803   0.70096   0.14700
C     0.33287   0.63149   0.14931
C     1.28881  -0.47001   0.23757
C     1.04790  -1.60476   1.03891
C     1.97994  -2.64022   1.09992
C     3.16966  -2.56384   0.36682
C     3.42768  -1.43610  -0.41892
C     2.50232  -0.39310  -0.47582
C     0.78181   2.11763  -0.02826
C     0.39522   2.54181  -1.45895
C    -0.93999   2.60456  -1.44327
C    -1.33579   2.20991  -0.00515
O    -0.23923   2.77677   0.73441
H    -3.19278  -2.79247   0.70132
H    -3.72405  -2.29675  -0.92403
H    -2.40372  -3.48743  -0.74486
H    -0.90113  -1.75229  -0.61825
H     0.13408  -1.66048   1.63202
H     1.78040  -3.50941   1.73095
H     3.89770  -3.37680   0.41634
H     4.35733  -1.36583  -0.98833
H     2.71297   0.48263  -1.09343
H     1.78954   2.36102   0.32392
H     1.09442   2.67900  -2.28301
H    -1.63960   2.80871  -2.25311
H    -2.31174   2.53551   0.36708
