9
Generated by autodE on: 2022-05-31. E = -280.430044 Ha
C    -0.62487  -1.73456   0.38712
C    -0.13142  -0.34075   0.07942
C    -0.98561   0.78282   0.02852
N    -1.73391   1.67911  -0.00075
N     1.14095  -0.13185  -0.16124
N     2.24821   0.01190  -0.36312
H    -1.12661  -1.75658   1.36676
H     0.21964  -2.43651   0.41195
H    -1.33843  -2.07223  -0.38061
