39
Generated by autodE on: 2022-05-31. E = -1027.223378 Ha. Imaginary frequency = -382.8 cm-1
C     2.14044  -1.98917   2.61075
N     1.76249  -1.17630   1.47268
C     1.57289   0.15929   1.57979
O     1.93064   0.80764   2.57649
C     0.94104   0.84808   0.43576
N     2.52367   0.36518  -1.00902
N     1.89769  -0.07250  -1.87413
C     0.60306  -0.35301  -2.22620
C     0.04232   0.41426  -3.39800
C     0.29823  -1.74440  -2.10495
N    -0.00235  -2.85992  -1.95808
C    -0.26172   0.53401  -0.22311
C    -1.30754  -0.43429   0.18698
C    -1.39480  -0.91287   1.50889
C    -2.43073  -1.76572   1.89654
C    -3.41344  -2.14704   0.97922
C    -3.36033  -1.65261  -0.32773
C    -2.32385  -0.80383  -0.71578
C    -0.73924   1.93258  -0.72890
C    -1.19404   2.69211   0.53097
C    -0.06275   2.97866   1.18619
C     1.05834   2.38456   0.31762
O     0.51437   2.56987  -1.00103
H     1.28227  -2.18345   3.27901
H     2.92029  -1.48020   3.19217
H     2.53272  -2.95167   2.25711
H     1.33664  -1.64878   0.68076
H     0.40877   0.01268  -4.35581
H    -1.05223   0.32837  -3.38636
H     0.32257   1.47155  -3.31550
H    -0.67433  -0.58974   2.25903
H    -2.47560  -2.12068   2.92883
H    -4.22367  -2.81335   1.28424
H    -4.13106  -1.92869  -1.05109
H    -2.30118  -0.42627  -1.73866
H    -1.40991   1.94132  -1.59285
H    -2.23009   2.86437   0.81987
H     0.08092   3.45160   2.15672
H     2.06336   2.80657   0.41576
