14
Generated by autodE on: 2022-06-20. E = -270.683219 Ha
C    -0.70078  -1.04832   0.96544
C    -0.78380   0.27806   0.26588
C    -2.03319   1.06818   0.49548
C     0.20161   0.76481  -0.53744
C     1.45908   0.09872  -0.84135
O     1.82982  -0.99690  -0.42582
H     0.17265  -1.08489   1.63587
H    -0.55879  -1.86679   0.24213
H    -1.60854  -1.24472   1.55282
H    -2.03446   2.02674  -0.04137
H    -2.16362   1.25782   1.57557
H    -2.91281   0.47757   0.18413
H     0.06354   1.74129  -1.01085
H     2.12587   0.67710  -1.52612
