57
Generated by autodE on: 2022-06-06. E = -1582.079198 Ha
C    -5.71341  -7.25371   1.02211
N    -5.80834  -6.63216  -0.28520
C    -6.51656  -7.18574  -1.28115
O    -7.01027  -8.30584  -1.20076
C    -6.64023  -6.29954  -2.58750
C    -5.14504  -6.15156  -2.95796
C    -4.46631  -7.34811  -3.55797
O    -4.53283  -5.13592  -2.67732
C    -7.50924  -7.11041  -3.59162
C    -7.49375  -6.76283  -5.08224
C    -7.72432  -5.30325  -5.46770
C    -6.48268  -4.41909  -5.24723
C    -6.60651  -3.31175  -4.16024
C    -7.34711  -2.16318  -4.87171
O    -6.81104  -1.13134  -5.21678
O    -8.60756  -2.47067  -5.14598
C    -9.36739  -1.50675  -5.89682
C    -5.20343  -2.74733  -3.85487
O    -4.24859  -2.86043  -4.58813
O    -5.18792  -2.09171  -2.70126
C    -3.93223  -1.54503  -2.27219
C    -7.29142  -3.75902  -2.88301
C    -7.29909  -4.96444  -2.26959
C    -8.18207  -4.73454  -1.00734
C    -8.81379  -5.85224  -0.33090
N    -9.34987  -6.70042   0.24817
N    -9.12494  -3.71303  -1.49908
C    -8.09754  -2.81916  -1.95605
C    -8.52631  -1.42574  -2.29774
O    -7.20890  -2.67486  -0.69135
C    -7.27867  -3.84448  -0.07570
O    -6.75898  -4.12902   0.97371
H    -6.71453  -7.39586   1.45831
H    -5.12609  -6.60172   1.67876
H    -5.22246  -8.23682   0.95647
H    -5.39008  -5.71661  -0.40994
H    -4.81417  -8.28428  -3.09788
H    -4.71254  -7.40396  -4.62978
H    -3.37958  -7.24276  -3.44897
H    -8.54080  -7.03482  -3.21264
H    -7.23079  -8.16563  -3.48408
H    -6.55238  -7.10444  -5.54214
H    -8.28472  -7.37952  -5.53917
H    -8.59469  -4.90700  -4.92707
H    -7.99085  -5.26609  -6.53424
H    -6.20585  -3.90787  -6.18007
H    -5.60727  -5.03483  -5.01412
H   -10.36613  -1.94108  -6.01400
H    -9.42324  -0.55691  -5.34689
H    -8.90081  -1.34094  -6.87769
H    -4.12469  -1.08833  -1.29499
H    -3.18608  -2.34699  -2.18060
H    -3.57929  -0.78866  -2.98742
H    -9.64229  -3.29190  -0.71960
H    -9.30352  -1.44548  -3.06840
H    -8.94209  -0.96136  -1.39264
H    -7.67679  -0.82317  -2.63876
