44
Generated by autodE on: 2022-06-06. E = -1128.947800 Ha
C     1.06413   2.93550   3.13236
N     0.60895   1.71116   2.50107
C     1.09951   0.51718   2.85705
O     1.93771   0.37529   3.75055
C     0.55149  -0.72311   2.08672
C    -0.29378  -1.55932   3.07979
C     0.42605  -2.33784   4.13778
O    -1.50564  -1.57048   2.96792
C    -0.23672  -0.33478   0.92280
C    -0.47315  -0.02657  -0.22321
C    -0.22022   0.18650  -1.64342
C    -0.65077   1.59212  -2.08153
O    -0.85921   2.51249  -1.32331
O    -0.71351   1.67425  -3.40664
C    -1.05698   2.95297  -3.96932
C    -0.98208  -0.85162  -2.48791
O    -0.46883  -1.62065  -3.26716
O    -2.28815  -0.78490  -2.24349
C    -3.13595  -1.68511  -2.97741
C     1.32510   0.05691  -1.84118
C     1.99715  -1.11831  -1.10135
C     2.51339  -0.87453   0.34579
C     1.76637  -1.53311   1.52375
H     0.49087   3.77715   2.72575
H     2.13570   3.10988   2.94389
H     0.91287   2.89298   4.22159
H    -0.01966   1.76666   1.70471
H    -0.29600  -2.72964   4.86559
H     1.18492  -1.71232   4.62708
H     0.95806  -3.17937   3.66446
H    -1.05493   2.81227  -5.05578
H    -2.05347   3.26243  -3.62419
H    -0.31222   3.70670  -3.67791
H    -4.15695  -1.48227  -2.63555
H    -2.85983  -2.72706  -2.76272
H    -3.04782  -1.49317  -4.05620
H     1.77838   1.00363  -1.50891
H     1.49939  -0.02637  -2.92266
H     2.87086  -1.38880  -1.71362
H     1.33907  -2.00167  -1.12690
H     3.53890  -1.27195   0.39179
H     2.61454   0.20864   0.52933
H     1.40336  -2.52863   1.22456
H     2.46729  -1.67742   2.35716
