37
Generated by autodE on: 2022-10-23. E = -937.905830 Ha
C    -2.25798   2.02357   2.11513
O    -1.80200   0.93841   1.29089
C    -0.72264   1.16471   0.55617
O    -0.13981   2.22532   0.49402
C    -0.36656  -0.04278  -0.28227
C    -1.46826  -0.86484  -0.80307
C    -2.58818  -0.24001  -1.38384
C    -3.64082  -1.01058  -1.87431
C    -3.60145  -2.40486  -1.76340
C    -2.50281  -3.02885  -1.16312
C    -1.43573  -2.26661  -0.69025
N     0.89196  -0.23847  -0.59868
C     1.27955  -1.19353  -1.65133
C     1.94267   0.24111   0.23707
C     1.76216  -0.04268   1.63936
C     2.91746   0.13970   2.59459
O     0.66680  -0.43881   2.09080
C     3.02293   1.00201  -0.33187
C     2.86115   1.55671  -1.73915
O     4.06009   1.29172   0.29262
H    -3.14887   1.65220   2.63321
H    -1.47777   2.29698   2.83970
H    -2.50919   2.89488   1.49418
H    -2.62419   0.84831  -1.46662
H    -4.49872  -0.52093  -2.33974
H    -4.43289  -3.00589  -2.13844
H    -2.47781  -4.11560  -1.05889
H    -0.58860  -2.75300  -0.20549
H     1.43938  -2.18588  -1.20983
H     0.50691  -1.24065  -2.42632
H     2.22470  -0.85810  -2.08825
H     2.62199  -0.26247   3.57310
H     3.14858   1.21173   2.69536
H     3.83384  -0.34669   2.23623
H     1.82456   1.57109  -2.09972
H     3.25754   2.58269  -1.73748
H     3.47639   0.97395  -2.44431
