37
Generated by autodE on: 2022-10-26. E = -937.905040 Ha
C    -1.19086  -0.60734  -3.29314
O    -0.97640  -0.11130  -1.96192
C    -0.53188  -0.98208  -1.06728
O    -0.41753  -2.17243  -1.26528
C    -0.29031  -0.37075   0.29502
C    -0.51992  -1.26915   1.43756
C     0.45076  -1.40363   2.44667
C     0.23561  -2.27868   3.51017
C    -0.95098  -3.01585   3.58439
C    -1.91694  -2.89143   2.57996
C    -1.69875  -2.03503   1.50200
N     0.04949   0.88837   0.43614
C     0.01568   1.54805   1.75622
C     0.72524   1.60816  -0.59928
C     0.17266   2.89471  -0.94044
C     0.85158   3.80709  -1.93982
O    -0.90741   3.27151  -0.44190
C     1.81342   0.87758  -1.19656
C     2.85622   1.56664  -2.04990
O     1.94842  -0.35177  -1.00710
H    -1.95670  -1.39578  -3.28930
H    -0.25048  -1.00576  -3.69985
H    -1.52867   0.25273  -3.88168
H     1.38417  -0.84380   2.37866
H     0.99954  -2.38826   4.28282
H    -1.11969  -3.69571   4.42258
H    -2.84189  -3.46940   2.63320
H    -2.45017  -1.94467   0.71542
H     0.99861   1.46276   2.23689
H    -0.75476   1.09066   2.38551
H    -0.22325   2.60106   1.58895
H     0.97251   3.32347  -2.91946
H     1.84914   4.11723  -1.59633
H     0.22100   4.69796  -2.05763
H     2.45240   1.76648  -3.05441
H     3.20057   2.51768  -1.62621
H     3.70548   0.87882  -2.15391
