22
Generated by autodE on: 2022-10-23. E = -574.825615 Ha
C    -0.22070   2.73936  -1.54180
O     0.52301   1.73254  -0.83438
C    -0.06413   0.59229  -0.52900
C     0.46423  -0.47826   0.13427
C     1.75854  -0.70163   0.73020
C     2.83882   0.32992   0.50317
O     1.97637  -1.71221   1.41457
C    -0.74286  -1.42736   0.28351
C    -1.74074  -0.77304   1.26253
C    -2.23979   0.27848   0.60494
C    -1.55463   0.23140  -0.77778
O    -1.41898  -1.18129  -0.97193
H     0.45355   3.59814  -1.63763
H    -1.11454   3.03101  -0.97164
H    -0.50536   2.37596  -2.53987
H     2.55407   1.28382   0.97659
H     2.96965   0.53564  -0.57036
H     3.78364  -0.02514   0.93607
H    -0.50670  -2.48599   0.42933
H    -1.91396  -1.09514   2.28901
H    -2.92428   1.05751   0.93755
H    -2.05639   0.72503  -1.61518
