21
Generated by autodE on: 2022-05-28. E = -736.286368 Ha
C     3.96535   0.15548  -0.20478
O     2.53975   0.25685  -0.34308
C     1.81546  -0.69806   0.23858
O     2.27848  -1.64627   0.84400
C     0.37395  -0.50083   0.03851
C    -0.59902  -1.40256   0.25621
N    -1.82962  -0.84593  -0.10524
C    -2.90118  -1.49004  -0.55219
N    -3.87869  -2.02295  -0.89904
O    -1.49064   0.34091  -0.92410
N    -0.23689   0.71931  -0.41973
C    -0.25727   1.83608   0.45656
C    -1.40768   2.77735   0.28838
O     0.67356   1.97974   1.22403
H     4.24855   0.18565   0.85713
H     4.37991   1.02075  -0.73402
H     4.32902  -0.77877  -0.65600
H    -0.54516  -2.41818   0.64441
H    -1.55718   3.03295  -0.77052
H    -2.33090   2.29406   0.64553
H    -1.21149   3.68053   0.87851
