10
Generated by autodE on: 2022-05-28. E = -305.347603 Ha
C     2.56752  -0.03879  -0.56553
C     1.40891  -0.03708  -0.21098
C     0.04203  -0.04681   0.27635
O    -0.25555  -0.22074   1.44078
O    -0.83334   0.15726  -0.70812
C    -2.22329   0.16726  -0.33656
H     3.59810  -0.03974  -0.88419
H    -2.77897   0.34100  -1.26474
H    -2.41930   0.97381   0.38428
H    -2.50688  -0.79856   0.10536
