21
Generated by autodE on: 2022-05-28. E = -736.160322 Ha. Imaginary frequency = -334.8 cm-1
C     3.30625  -0.64514  -1.12959
O     2.06986  -1.00486  -0.48499
C     1.71657  -0.27606   0.56584
O     2.36225   0.63131   1.04485
C     0.42413  -0.69797   1.09662
C    -0.44162  -1.20259   1.82078
N    -2.33801  -0.60347   0.78756
C    -2.27278  -1.63168  -0.08303
N    -2.37444  -2.58742  -0.74520
O    -1.84873   0.53167   0.33466
N    -0.82172   0.42012  -0.48481
C    -0.27600   1.72031  -0.74245
C    -1.00133   2.93329  -0.25666
O     0.77219   1.72383  -1.35631
H     4.14414  -0.73198  -0.42385
H     3.42653  -1.35352  -1.95647
H     3.24242   0.38352  -1.51015
H    -0.96612  -1.73548   2.60017
H    -2.03686   2.94090  -0.62848
H    -1.04590   2.91662   0.84401
H    -0.46396   3.82574  -0.59794
