45
Generated by autodE on: 2022-06-19. E = -922.687182 Ha
C    -3.01729   2.60662   0.58049
N    -2.07882   1.50908   0.52120
C    -2.42662   0.21766   0.45468
O    -3.59345  -0.19540   0.43171
C    -1.24608  -0.76339   0.35540
C    -1.45348  -1.98422   1.30014
C    -2.33727  -1.86445   2.51051
O    -0.82227  -3.00704   1.09152
C    -1.03968  -1.25544  -1.12202
C    -2.21958  -1.10382  -2.07237
C     0.23736  -0.53941  -1.58487
C     0.96558  -1.22897  -2.72799
C     1.05102  -0.44956  -0.28794
C     2.18303   0.55127  -0.34198
C     3.50987   0.10876  -0.42194
C     4.56477   1.02174  -0.52702
C     4.30275   2.39422  -0.54617
C     2.98029   2.84646  -0.46296
C     1.92970   1.93196  -0.36423
N     0.03022  -0.10695   0.70003
C     0.46720  -0.10052   2.08420
H    -2.83760   3.32174  -0.23721
H    -2.93739   3.14893   1.53631
H    -4.03575   2.20948   0.48565
H    -1.07172   1.66726   0.55555
H    -3.37402  -2.06868   2.20075
H    -2.32581  -0.85312   2.93859
H    -2.03128  -2.60778   3.25860
H    -0.79259  -2.32352  -1.03915
H    -3.10961  -1.63210  -1.70398
H    -2.48873  -0.04661  -2.22334
H    -1.95693  -1.52557  -3.05465
H    -0.02271   0.49116  -1.88348
H     1.89507  -0.69593  -2.98329
H     0.34209  -1.26522  -3.63435
H     1.23169  -2.26389  -2.45664
H     1.48760  -1.44812  -0.07595
H     3.71593  -0.96456  -0.39925
H     5.59370   0.65878  -0.58863
H     5.12451   3.11034  -0.62303
H     2.76750   3.91835  -0.47581
H     0.90047   2.29175  -0.30165
H     1.32408   0.58113   2.18713
H     0.78556  -1.09639   2.45372
H    -0.33327   0.27482   2.73728
