12
Generated by autodE on: 2022-06-19. E = -157.300302 Ha
C    -1.96211   0.01577  -0.08830
C    -0.50540   0.15878  -0.40993
C     0.50540  -0.15885   0.40990
C     1.96211  -0.01572   0.08833
H    -2.46617  -0.65629  -0.80552
H    -2.48494   0.98621  -0.15840
H    -2.11897  -0.38557   0.92530
H    -0.26551   0.55755  -1.40563
H     0.26551  -0.55763   1.40559
H     2.48513  -0.98601   0.15899
H     2.46597   0.65684   0.80523
H     2.11898   0.38514  -0.92546
