33
Generated by autodE on: 2022-07-27. E = -765.326208 Ha
C    -4.94418   0.43512   1.12116
N    -3.67605  -0.25448   1.22401
C    -2.54070   0.28482   0.69970
O    -2.60089   1.41977   0.16883
C    -1.27597  -0.43956   0.74570
C    -0.94653  -1.76188   1.17396
C    -2.00951  -2.65177   1.80086
O     0.20926  -2.24307   1.06833
N    -0.16565   0.35787   0.29745
C     0.12610   1.59733   1.03312
C     0.63815  -0.14426  -0.59842
C     1.93193   0.30886  -1.07806
C     2.64574  -0.65413  -1.83121
C     3.90215  -0.36854  -2.35572
C     4.46637   0.89641  -2.15922
C     3.76453   1.86814  -1.43812
C     2.51205   1.58557  -0.89648
H    -5.22289   0.62960   0.07208
H    -4.92708   1.40615   1.64312
H    -5.72220  -0.19023   1.57764
H    -3.66074  -1.16711   1.65325
H    -2.83670  -2.85027   1.10111
H    -2.42703  -2.21325   2.72151
H    -1.53965  -3.60980   2.05789
H    -0.59069   1.69046   1.85237
H     0.03682   2.46974   0.37498
H     1.14256   1.54295   1.44758
H     0.27714  -1.06466  -1.05572
H     2.19934  -1.63837  -1.98899
H     4.44047  -1.12959  -2.92432
H     5.44904   1.12885  -2.57588
H     4.19560   2.86161  -1.29800
H     1.98756   2.37275  -0.36398
