45
Generated by autodE on: 2022-06-19. E = -922.605270 Ha. Imaginary frequency = -440.0 cm-1
C    -4.32753   1.15975   2.47678
N    -3.08926   0.46164   2.19546
C    -2.38668   0.69547   1.06583
O    -2.70827   1.61684   0.30060
C    -1.20108  -0.19457   0.82583
C    -1.28654  -1.61616   1.09726
C    -2.65749  -2.27709   1.11257
O    -0.29902  -2.35118   1.31603
C    -1.20380  -1.13221  -1.56174
C    -2.21564  -0.18574  -2.12314
C     0.17598  -0.97507  -1.76670
C     1.03298  -2.20792  -1.97113
C     1.00155  -0.26200  -0.04699
C     2.29194   0.36386  -0.41795
C     3.48090  -0.25519   0.00950
C     4.72877   0.25176  -0.36081
C     4.80979   1.38163  -1.17977
C     3.63518   1.99583  -1.62950
C     2.38917   1.49117  -1.25656
N     0.00415   0.44466   0.58748
C     0.09484   1.90250   0.73353
H    -4.74246   0.78139   3.41898
H    -5.06605   1.00200   1.67376
H    -4.16154   2.24442   2.57259
H    -2.79473  -0.28122   2.81817
H    -3.44829  -1.69595   0.62257
H    -2.96163  -2.48486   2.15177
H    -2.55719  -3.24971   0.60842
H    -1.56315  -2.13837  -1.32782
H    -3.17711  -0.22723  -1.59244
H    -1.85735   0.85343  -2.10680
H    -2.41650  -0.44815  -3.18083
H     0.45196  -0.11017  -2.38256
H     2.10497  -1.99176  -1.84183
H     0.75493  -2.99653  -1.25508
H     0.89940  -2.61521  -2.98762
H     1.10708  -1.26390   0.35839
H     3.41929  -1.14270   0.64374
H     5.63978  -0.23977  -0.01130
H     5.78413   1.77828  -1.47482
H     3.69051   2.87058  -2.28183
H     1.48286   1.96684  -1.63380
H    -0.49314   2.21372   1.60419
H    -0.27285   2.43911  -0.15049
H     1.13847   2.17727   0.91730
