43
Generated by autodE on: 2022-10-07. E = -1166.236297 Ha
C     1.93540   3.09164   2.01441
O     1.74354   2.04521   1.05428
C     0.53567   1.47472   1.02307
O    -0.38590   1.87593   1.71098
C     0.35535   0.41115  -0.08164
C     1.66912  -0.04691  -0.73574
C     2.77332  -0.46022   0.02911
C     3.92993  -0.94520  -0.58525
C     4.01060  -1.03179  -1.97945
C     2.91421  -0.63682  -2.74917
C     1.75602  -0.15300  -2.13116
C    -0.41620  -0.80760   0.49411
C    -0.09818  -1.19586   1.95152
O    -0.88407  -2.01852   2.48890
O     0.91175  -0.68595   2.51174
C    -1.89868  -0.50579   0.27513
C    -2.79781  -1.73859   0.06505
O    -2.28459  -2.79126  -0.39773
O    -4.02377  -1.57822   0.32663
C    -1.96218   0.48178  -0.93170
C    -2.96885   1.59770  -0.61737
C    -2.35936  -0.19488  -2.25471
N    -0.56873   0.96157  -1.06381
C    -0.32302   2.29093  -1.56688
H     2.96962   3.43314   1.88881
H     1.23587   3.92004   1.83153
H     1.78429   2.70545   3.03305
H     2.70757  -0.41969   1.11435
H     4.77494  -1.26141   0.03208
H     4.91738  -1.40872  -2.45904
H     2.95535  -0.70558  -3.83941
H     0.89549   0.13781  -2.73372
H    -0.16470  -1.68042  -0.12730
H    -2.28776   0.02331   1.15488
H    -3.10107   2.28875  -1.46407
H    -3.94411   1.13984  -0.39393
H    -2.65360   2.17557   0.26325
H    -3.41199  -0.51720  -2.23878
H    -2.23453   0.51592  -3.08691
H    -1.73111  -1.07446  -2.45161
H    -0.59623   3.10481  -0.86300
H     0.74517   2.41003  -1.80501
H    -0.88407   2.45802  -2.49968
