43
Generated by autodE on: 2022-10-07. E = -1166.163369 Ha. Imaginary frequency = -308.9 cm-1
C     2.89728   1.97828   2.24443
O     2.31638   1.32482   1.11724
C     1.03920   1.67990   0.81138
O     0.50297   2.60818   1.41006
C     0.46344   0.82398  -0.22370
C     1.42187  -0.04515  -0.96767
C     2.10858  -1.10548  -0.34754
C     3.02198  -1.88168  -1.05974
C     3.27769  -1.61514  -2.41092
C     2.62246  -0.54915  -3.03285
C     1.71253   0.23258  -2.31563
C    -0.80688  -0.73467   1.27728
C    -0.59504   0.08834   2.51275
O     0.46728  -0.13995   3.17030
O    -1.47897   0.93129   2.83925
C    -2.01380  -0.77781   0.58921
C    -2.54782  -2.08431   0.03875
O    -1.75474  -3.05986  -0.08563
O    -3.78015  -2.11368  -0.25173
C    -1.61467   0.25483  -1.32029
C    -2.98114   0.71898  -1.75479
C    -1.11618  -0.90715  -2.14498
N    -0.73819   1.19720  -0.83433
C    -1.27381   2.55315  -0.62205
H     3.89346   1.53534   2.36982
H     2.99058   3.06144   2.07312
H     2.29313   1.80254   3.14574
H     1.91952  -1.31332   0.70553
H     3.53561  -2.70573  -0.55794
H     3.98789  -2.22933  -2.96974
H     2.82297  -0.31895  -4.08235
H     1.21319   1.06983  -2.80704
H    -0.12250  -1.57411   1.14844
H    -2.78357  -0.06916   0.90738
H    -2.94299   1.19972  -2.74953
H    -3.62638  -0.16471  -1.82975
H    -3.45040   1.41473  -1.04964
H    -1.96707  -1.54478  -2.41147
H    -0.67980  -0.52119  -3.08180
H    -0.36842  -1.52761  -1.64957
H    -1.89083   2.61006   0.28591
H    -0.44811   3.25943  -0.52918
H    -1.87145   2.83988  -1.49322
