23
Generated by autodE on: 2022-10-22. E = -663.301911 Ha
C    -1.58061   2.28261   1.21620
C    -1.94930   1.00626   0.48664
O    -3.13084   0.70234   0.36513
C    -0.86126   0.10183   0.04099
C    -1.04785  -1.36038  -0.11736
C    -2.40394  -1.96647   0.13123
O    -0.12237  -2.07514  -0.50186
N     0.32782   0.64482  -0.34958
C     0.35158   1.93172  -1.07973
C     1.51733   0.02222  -0.19691
C     2.65263   0.43845  -0.93975
N     3.60909   0.75114  -1.52692
C     1.73681  -0.95295   0.80869
N     1.98112  -1.70567   1.66267
H    -1.86026   3.15293   0.60228
H    -0.52202   2.35870   1.49149
H    -2.19493   2.31881   2.12842
H    -2.30398  -3.05583   0.04311
H    -2.77901  -1.69812   1.12933
H    -3.13855  -1.59642  -0.59699
H     0.81335   1.75540  -2.06121
H     0.93881   2.66974  -0.52029
H    -0.67087   2.27644  -1.24506
