42
Generated by autodE on: 2022-06-18. E = -974.600212 Ha
C     4.15860   0.69723   1.59865
O     3.17724   0.42212   0.58300
C     1.90995   0.66155   0.88580
O     1.52806   1.13349   1.93102
C     0.96095   0.23549  -0.26726
C     1.65138   0.54021  -1.54195
N     2.13501   0.84994  -2.54973
N    -0.28578   0.96738  -0.16217
C    -0.35373   2.30539  -0.72317
C    -1.43834   0.10856  -0.23537
C    -1.93353  -0.01330  -1.63158
N    -2.27197  -0.00254  -2.74177
C    -2.65162   0.61044   0.60714
C    -2.40971   1.57070   1.73332
O    -3.75519   0.18819   0.32485
C    -0.92227  -1.26705   0.35147
C    -0.97183  -1.23749   1.89038
C    -1.78422  -2.44340  -0.11092
C     0.56873  -1.31840  -0.18059
C     0.66185  -1.97042  -1.57077
C     1.50491  -2.10848   0.74172
H     5.12824   0.45091   1.15251
H     3.97057   0.06992   2.48137
H     4.12234   1.75828   1.88133
H     0.49697   2.89947  -0.35895
H    -1.27447   2.80334  -0.39295
H    -0.33797   2.31052  -1.82922
H    -3.04196   1.28725   2.58641
H    -2.74067   2.56698   1.39373
H    -1.35621   1.63557   2.02226
H    -2.00720  -1.13904   2.24537
H    -0.59854  -2.19250   2.28148
H    -0.37048  -0.43026   2.32351
H    -1.35406  -3.38577   0.25856
H    -1.87962  -2.51227  -1.20127
H    -2.79588  -2.34689   0.30971
H     0.03475  -1.47987  -2.32570
H     0.36069  -3.02366  -1.50307
H     1.70098  -1.94990  -1.92623
H     1.13286  -3.13883   0.83806
H     2.51131  -2.15296   0.30389
H     1.59019  -1.68592   1.75028
