24
Generated by autodE on: 2022-06-18. E = -738.579203 Ha
C     3.47194   1.49807  -0.29856
O     2.57472   0.39651  -0.52240
C     1.46775   0.37219   0.21044
O     1.17540   1.19150   1.05428
C     0.68615  -0.87136  -0.05211
C     1.41164  -2.01759  -0.46319
N     2.04663  -2.92917  -0.81631
N    -0.61611  -0.97077   0.25251
C    -1.19624  -2.29582   0.56610
C    -1.45478   0.10693   0.27793
C    -2.67859  -0.02998   0.97688
N    -3.68809  -0.10237   1.55658
C    -1.26293   1.26423  -0.61045
C    -2.38096   2.27082  -0.65287
O    -0.26416   1.37651  -1.31801
H     4.30633   1.34919  -0.99254
H     3.83024   1.49204   0.74043
H     2.95990   2.44728  -0.51005
H    -1.43549  -2.32015   1.63800
H    -2.10523  -2.44240  -0.02766
H    -0.46716  -3.07916   0.34321
H    -2.52797   2.70327   0.35026
H    -3.33102   1.80060  -0.94972
H    -2.12156   3.06504  -1.36338
