50
Generated by autodE on: 2022-06-03. E = -1241.737869 Ha
C    -1.98834   4.59795   0.95651
N    -1.15704   3.44390   0.68239
C    -1.70149   2.24037   0.41764
O    -2.91740   2.02835   0.32696
N    -0.80676   1.19783   0.23439
N     0.53928   1.37818   0.23856
C     1.14016   0.27053  -0.04314
C     2.60215   0.18138  -0.12101
C     3.40229   1.30062   0.18836
C     4.78996   1.22338   0.10893
C     5.41097   0.02878  -0.27920
C     4.62880  -1.08669  -0.58676
C     3.23593  -1.01336  -0.51025
C     0.18007  -0.87823  -0.33445
C     0.39512  -2.07371   0.61837
C     0.79095  -1.77506   2.03819
O     0.26334  -3.21573   0.21972
C     0.09502  -1.32299  -1.82747
C     0.18323  -0.09379  -2.75367
C    -1.18750   0.61491  -2.53162
C    -1.90402  -0.30329  -1.52043
C    -1.39300  -1.68778  -1.95686
C    -1.23476  -0.15075  -0.12050
C    -2.08155  -0.69645   1.03881
O    -2.02964  -0.26790   2.17203
O    -2.85613  -1.71009   0.67222
C    -3.65266  -2.32504   1.69837
H    -2.52184   4.50637   1.91770
H    -1.35082   5.48982   0.99575
H    -2.73875   4.73843   0.16418
H    -0.14950   3.50259   0.78230
H     2.92184   2.23089   0.49344
H     5.39469   2.09989   0.35295
H     6.50008  -0.02963  -0.33977
H     5.10219  -2.02304  -0.89030
H     2.64926  -1.89802  -0.75764
H     0.38655  -0.82236   2.39971
H     0.48442  -2.60373   2.69025
H     1.89125  -1.70114   2.06688
H     0.80832  -2.12084  -2.06070
H     1.04314   0.55269  -2.53472
H     0.28914  -0.43516  -3.79343
H    -1.08368   1.64862  -2.17725
H    -1.77408   0.64719  -3.46053
H    -2.98927  -0.16489  -1.47669
H    -1.70518  -2.50779  -1.30287
H    -1.67552  -1.92281  -2.99389
H    -4.34918  -1.59193   2.12856
H    -3.00484  -2.72829   2.48940
H    -4.20356  -3.13359   1.20542
