28
Generated by autodE on: 2022-06-03. E = -653.567836 Ha
C     3.82913  -0.57722   0.37661
O     2.50789  -0.79722  -0.13347
C     1.58425   0.12889   0.16512
O     1.83515   1.12102   0.83101
C     0.26708  -0.20815  -0.39627
C    -0.87821   0.49379  -0.20522
C    -1.11907   1.74824   0.55836
C    -0.54335   3.02605   0.02421
O    -1.85341   1.71147   1.53784
C    -2.02066  -0.37964  -0.70366
C    -2.13162  -1.54276   0.33950
C    -0.82210  -2.34610   0.10741
C    -0.11452  -1.53656  -1.02867
C    -1.32713  -1.10183  -1.87548
H     4.42739  -1.43489   0.04797
H     3.81453  -0.52217   1.47495
H     4.24813   0.35573  -0.02788
H     0.49784   2.88995  -0.29546
H    -1.13043   3.30746  -0.86808
H    -0.62570   3.82526   0.77369
H    -2.96090   0.14868  -0.90089
H    -2.23194  -1.15114   1.36034
H    -3.02236  -2.14812   0.11586
H    -0.19124  -2.41468   1.00485
H    -1.03381  -3.36870  -0.23763
H     0.69878  -2.06974  -1.53249
H    -1.91266  -1.94883  -2.26335
H    -1.05706  -0.42477  -2.69910
