50
Generated by autodE on: 2022-06-03. E = -1241.634118 Ha. Imaginary frequency = -297.5 cm-1
C    -3.24021   3.13267   2.11967
N    -2.44010   2.69660   0.99347
C    -1.18123   2.25529   1.16834
O    -0.57274   2.30751   2.23911
N    -0.63590   1.72860  -0.03280
N     0.56638   1.34554   0.06826
C     1.33870   0.42544  -0.07294
C     2.76522   0.22387  -0.19059
C     3.61120   1.35391  -0.21314
C     4.98900   1.18787  -0.32174
C     5.53781  -0.09675  -0.41639
C     4.70278  -1.21777  -0.39843
C     3.32137  -1.06435  -0.28429
C    -0.10874  -1.24856  -0.39605
C     0.31100  -2.03830   0.81242
C     0.54687  -1.38458   2.14908
O     0.52607  -3.23666   0.66837
C     0.20781  -1.80509  -1.80323
C     0.57952  -0.65806  -2.77593
C    -0.73788   0.16092  -2.86508
C    -1.72824  -0.67895  -2.01433
C    -1.22546  -2.11701  -2.30400
C    -1.35344  -0.60578  -0.53343
C    -2.37698  -0.46113   0.51143
O    -2.25595  -0.75349   1.69125
O    -3.53792   0.00936   0.01373
C    -4.64687   0.07712   0.91756
H    -4.26729   3.30716   1.77837
H    -3.25120   2.37412   2.91852
H    -2.84693   4.06851   2.54750
H    -2.88930   2.50618   0.10358
H     3.17533   2.35178  -0.14265
H     5.63908   2.06531  -0.33586
H     6.61913  -0.22279  -0.50522
H     5.12806  -2.22055  -0.47310
H     2.68259  -1.94553  -0.27163
H     0.11926  -0.38355   2.23919
H     0.15985  -2.03867   2.94330
H     1.64072  -1.31627   2.27857
H     0.92285  -2.63455  -1.78457
H     0.84299  -1.09630  -3.74992
H     1.44161  -0.06663  -2.44780
H    -0.63907   1.18146  -2.47680
H    -1.10307   0.22393  -3.90049
H    -2.78296  -0.46815  -2.21245
H    -1.26840  -2.39408  -3.36956
H    -1.73297  -2.88167  -1.69831
H    -4.38760   0.63927   1.82348
H    -5.45129   0.58426   0.37220
H    -4.96568  -0.93671   1.20294
