52
Generated by autodE on: 2022-06-06. E = -1409.265357 Ha
C    -3.20417   3.67082   0.92236
N    -2.84349   2.27463   0.78326
C    -1.57130   1.87329   0.78950
O    -0.62079   2.61971   1.03883
C    -1.28836   0.38409   0.40808
C    -2.41482  -0.53967   0.93282
O    -3.60361  -0.31606   0.65068
N    -2.00494  -1.56877   1.66946
C    -2.90002  -2.59204   2.16775
N     0.01257  -0.02941   0.90548
C     1.06944   0.16117  -0.08711
C     1.67679   1.58122   0.02941
O     1.75404   2.39226  -0.86857
O     2.16258   1.77832   1.25358
C     2.68603   3.08193   1.54281
C     2.21701  -0.83836   0.07698
C     2.06825  -2.00584   0.83180
C     3.11067  -2.93551   0.90943
C     4.31063  -2.70918   0.23088
C     4.46381  -1.54383  -0.52801
C     3.42373  -0.61608  -0.60449
C     0.35874   0.01651  -1.45078
C     0.32443  -1.41589  -2.06865
C    -0.27741  -1.26531  -3.45595
C    -1.58626  -1.07188  -3.25627
C    -1.76584  -1.11953  -1.74729
O    -0.75104  -2.02629  -1.33480
C    -1.17232   0.24478  -1.16992
C    -1.71347   1.39645  -1.87648
N    -2.13882   2.30258  -2.46428
H    -4.29106   3.74829   1.04869
H    -2.90790   4.24636   0.02905
H    -2.70973   4.11719   1.79739
H    -3.54558   1.56581   0.56284
H    -0.99464  -1.68122   1.73026
H    -3.87098  -2.14551   2.41915
H    -2.46819  -3.04819   3.06800
H    -3.06474  -3.38257   1.41656
H     0.24246   0.43445   1.78300
H     3.02888   3.04679   2.58313
H     1.89637   3.83777   1.42656
H     3.52520   3.31699   0.87279
H     1.13224  -2.19280   1.35589
H     2.97998  -3.84285   1.50402
H     5.12400  -3.43595   0.29265
H     5.39708  -1.35588  -1.06402
H     3.55218   0.28557  -1.20817
H     0.77349   0.74116  -2.15595
H     1.24950  -1.99008  -1.97508
H     0.29136  -1.22672  -4.38478
H    -2.37121  -0.83839  -3.97430
H    -2.75085  -1.38427  -1.35800
