38
Generated by autodE on: 2022-07-27. E = -1009.385924 Ha
C    -2.77029   3.45526   1.40527
N    -2.71134   2.11930   0.85567
C    -1.52807   1.49972   0.65026
O    -0.44196   2.09540   0.82454
C    -1.57581   0.09017   0.24618
N    -0.38994  -0.58671   0.10233
C     0.81845  -0.16635  -0.24196
C     0.94272   1.11446  -1.00049
O     0.18078   1.43998  -1.89018
O     2.04046   1.79029  -0.67056
C     2.26875   3.01962  -1.37443
C     1.96619  -1.03807  -0.00824
C     1.94703  -1.98168   1.04215
C     3.01213  -2.86367   1.22356
C     4.12142  -2.81348   0.37443
C     4.15950  -1.87106  -0.66057
C     3.09832  -0.99052  -0.85254
C    -2.79742  -0.70747   0.20886
O    -3.90423  -0.28436   0.61252
N    -2.69376  -1.97871  -0.28151
C    -3.86093  -2.83695  -0.35164
H    -3.79998   3.82820   1.32992
H    -2.10792   4.13310   0.84679
H    -2.46427   3.48999   2.46612
H    -3.53021   1.50666   0.86881
H    -0.43416  -1.57956   0.35913
H     3.20374   3.42726  -0.97398
H     1.43827   3.71646  -1.19138
H     2.36416   2.83456  -2.45389
H     1.11268  -2.00468   1.74651
H     2.98182  -3.58219   2.04566
H     4.95804  -3.49984   0.52253
H     5.02241  -1.82687  -1.32876
H     3.13711  -0.27507  -1.67464
H    -1.92287  -2.20803  -0.89922
H    -4.34279  -2.91470   0.63332
H    -3.54445  -3.83860  -0.66902
H    -4.61252  -2.46037  -1.06682
