14
Generated by autodE on: 2022-06-06. E = -399.800818 Ha
N     2.92424  -0.39489   1.45734
C     1.90678  -0.38790   0.88785
C     0.68386  -0.34298   0.18642
C    -0.23997  -1.30415   0.01131
C    -1.37820  -0.61087  -0.76630
C    -2.03916   0.38965   0.20893
C    -1.13033   1.35372   0.37976
C     0.06983   0.92603  -0.49071
O    -0.60620   0.29056  -1.58272
H    -0.24102  -2.33033   0.37494
H    -2.03450  -1.25469  -1.36028
H    -3.01253   0.25351   0.67822
H    -1.15417   2.23175   1.02376
H     0.77617   1.69519  -0.81724
