52
Generated by autodE on: 2022-06-06. E = -1409.184204 Ha. Imaginary frequency = -249.8 cm-1
C    -2.89571   3.88304   0.97826
N    -2.58400   2.48442   1.18209
C    -1.39633   1.97617   0.82158
O    -0.49676   2.68958   0.34093
C    -1.20402   0.51655   0.99006
C    -2.29710  -0.38392   1.45569
O    -3.35582   0.04788   1.94494
N    -2.07855  -1.71655   1.32390
C    -3.11936  -2.65910   1.69255
N     0.03494  -0.02882   0.97229
C     1.16142   0.26767   0.27849
C     1.67996   1.69123   0.19394
O     2.05497   2.24982  -0.81521
O     1.90689   2.15084   1.42850
C     2.42963   3.48383   1.52471
C     2.25137  -0.74308   0.30392
C     2.15512  -1.94725   1.02953
C     3.16219  -2.90959   0.95377
C     4.29153  -2.69506   0.15854
C     4.40531  -1.49995  -0.55684
C     3.40159  -0.53481  -0.48500
C     0.23298   0.02970  -1.77475
C     0.34577  -1.49310  -2.00632
C    -0.22205  -1.78697  -3.40559
C    -1.54171  -1.59667  -3.29983
C    -1.76679  -1.17907  -1.83770
O    -0.74834  -1.95460  -1.17971
C    -1.13950   0.23621  -1.67931
C    -1.84915   1.40957  -1.99606
N    -2.47685   2.35491  -2.27209
H    -3.92935   4.06397   1.29811
H    -2.79884   4.15946  -0.08266
H    -2.22699   4.53655   1.56224
H    -3.25480   1.83146   1.59298
H    -1.42734  -2.02081   0.59581
H    -3.42731  -2.50379   2.73600
H    -2.72580  -3.67769   1.58598
H    -4.01264  -2.55305   1.05375
H     0.02010  -1.00136   1.27500
H     2.53666   3.68961   2.59597
H     1.72707   4.19576   1.06878
H     3.40560   3.55419   1.02370
H     1.30659  -2.16298   1.68218
H     3.06247  -3.83227   1.52960
H     5.07775  -3.45096   0.10179
H     5.28207  -1.31457  -1.18136
H     3.50182   0.38247  -1.06411
H     0.94943   0.75358  -2.15722
H     1.28892  -1.97469  -1.73725
H     0.37873  -2.03441  -4.28005
H    -2.31773  -1.64707  -4.06262
H    -2.75814  -1.33622  -1.40170
