20
Generated by autodE on: 2022-06-16. E = -345.498393 Ha
C    -2.35897  -0.87220  -0.37225
C    -1.23292  -0.05646   0.25077
C    -0.93228   1.26450  -0.40837
N     0.32192   1.52616  -0.49175
N     1.04719   0.48638   0.08165
C     2.33205   0.27071  -0.55234
C     0.16465  -0.70001   0.17310
C     0.51684  -1.63515   1.31407
H    -2.15615  -1.07502  -1.43613
H    -3.32005  -0.33854  -0.30280
H    -2.47407  -1.83852   0.14400
H    -1.47998   0.14271   1.31364
H    -1.67828   1.99319  -0.73682
H     2.89453   1.21439  -0.58154
H     2.91306  -0.45787   0.03055
H     2.23432  -0.11430  -1.58849
H     0.23446  -1.25487  -0.78847
H    -0.18627  -2.48246   1.33961
H     0.46271  -1.10937   2.28040
H     1.53103  -2.04815   1.19911
