12
Generated by autodE on: 2022-06-16. E = -157.300303 Ha
C    -1.94129  -0.11111   0.27680
C    -0.45970  -0.31555   0.37121
C     0.45970   0.31562  -0.37115
C     1.94129   0.11106  -0.27685
H    -2.36076   0.22852   1.24054
H    -2.46105  -1.05445   0.03177
H    -2.20251   0.63341  -0.49166
H    -0.11739  -1.04685   1.11685
H     0.11740   1.04693  -1.11678
H     2.20254  -0.63304   0.49201
H     2.36056  -0.22924  -1.24045
H     2.46120   1.05448  -0.03250
