20
Generated by autodE on: 2022-06-16. E = -345.384152 Ha. Imaginary frequency = -410.8 cm-1
C    -2.12868  -0.65113  -1.07752
C    -1.38788  -0.60053   0.23660
C    -0.75657   1.58645   0.11907
N     0.44400   1.45418  -0.04190
N     1.38183   0.61756  -0.02985
C     2.10608   0.48613  -1.28814
C    -0.18951  -1.24019   0.43278
C     0.36144  -1.55612   1.79389
H    -1.42661  -0.69837  -1.92551
H    -2.77512   0.22790  -1.22569
H    -2.77656  -1.54534  -1.13368
H    -1.98567  -0.35841   1.12454
H    -1.35594   2.46683   0.36080
H     2.75627   1.35867  -1.47834
H     2.74622  -0.40350  -1.22099
H     1.42281   0.37316  -2.14957
H     0.28598  -1.73050  -0.42395
H     0.05877  -2.56843   2.12285
H    -0.01000  -0.84450   2.54931
H     1.46122  -1.52827   1.81529
