49
Generated by autodE on: 2022-06-24. E = -1277.865710 Ha
C     1.03322   3.25158   1.71241
N     1.16743   1.84201   1.39909
C     1.17292   1.36891   0.14953
O     1.11780   2.07269  -0.86121
C     1.19822  -0.17796   0.00326
C     2.39798  -0.44566  -0.94262
O     3.53164  -0.53558  -0.46833
N     2.14832  -0.48699  -2.25695
C     3.22169  -0.66614  -3.21662
N     1.41134  -0.83059   1.29222
C     0.30492  -1.27621   1.75623
C     0.16222  -1.99978   3.04351
C    -0.91049  -0.99244   0.86913
O    -1.77516  -2.09647   0.88214
C    -2.94656  -1.99343   0.07886
C    -1.65069   0.24913   1.44186
O    -2.04896   0.18866   2.59439
C    -1.92527   1.42272   0.58939
C    -2.57282   2.60245   1.24459
C    -1.66229   1.40853  -0.74916
C    -2.05283   2.55104  -1.63091
C    -0.94740   0.27951  -1.38983
O    -0.88692   0.16173  -2.60428
C    -0.21550  -0.72454  -0.49956
O    -0.10853  -1.89421  -1.26438
C     0.59881  -3.01942  -0.75520
H     0.58018   3.77001   0.85902
H     0.38835   3.36866   2.59369
H     2.01160   3.71173   1.92576
H     1.28680   1.17903   2.15964
H     1.18755  -0.48884  -2.59003
H     3.98528   0.11840  -3.10153
H     3.71628  -1.64304  -3.09013
H     2.80290  -0.60955  -4.22871
H     1.13463  -2.10901   3.53988
H    -0.27519  -2.99359   2.86057
H    -0.53884  -1.45906   3.69668
H    -3.49836  -2.93275   0.21495
H    -3.58912  -1.15449   0.39473
H    -2.69514  -1.88062  -0.98767
H    -2.04217   3.52942   0.97941
H    -3.61292   2.71821   0.89558
H    -2.58620   2.49039   2.33474
H    -1.51002   3.46190  -1.32963
H    -1.82605   2.33579  -2.68105
H    -3.12716   2.77237  -1.53160
H     1.64479  -2.78381  -0.50565
H     0.10594  -3.44533   0.13086
H     0.59217  -3.76403  -1.56240
