23
Generated by autodE on: 2022-06-24. E = -588.345058 Ha
C    -0.13343   3.99397   0.63281
C    -0.08632   2.57048   0.40195
N    -0.04133   1.42338   0.22145
C    -0.06723   0.09181   0.00274
C    -1.40974  -0.46129  -0.20364
O    -2.42596   0.26490  -0.16540
N    -1.48835  -1.79160  -0.43551
C    -2.75554  -2.45138  -0.64819
C     1.18233  -0.65306  -0.00764
O     1.21970  -1.89017  -0.21969
N     2.33699   0.02948   0.21446
C     3.61524  -0.64862   0.26653
H     0.37556   4.24597   1.57659
H    -1.19246   4.28812   0.71462
H     0.32690   4.54412  -0.20276
H    -0.60148  -2.29787  -0.44865
H    -3.42804  -2.34277   0.21975
H    -2.57617  -3.52165  -0.81328
H    -3.28733  -2.04970  -1.52749
H     2.30659   1.01278   0.45462
H     3.80770  -1.21169  -0.66016
H     3.67517  -1.36031   1.10775
H     4.40733   0.10090   0.38867
