33
Generated by autodE on: 2022-10-07. E = -1060.434767 Ha
C     3.78181   0.15878   0.59795
N     2.74206  -0.13473  -0.36933
C     1.60817  -0.73517   0.03487
O     1.48965  -1.26989   1.14510
C     0.45202  -0.76889  -0.99955
C     0.93894  -1.37590  -2.31859
C    -0.21857   0.61276  -1.20515
C     0.56248   1.85998  -1.65812
O     1.73433   1.72025  -2.12237
O    -0.07730   2.93667  -1.63078
C    -1.06617   0.80466   0.05582
C    -0.37931   1.50676   1.26432
O    -1.11800   1.67470   2.26636
O     0.81145   1.87736   1.14281
C    -1.52690  -0.67291   0.37158
C    -2.95172  -0.85085  -0.01298
N    -4.05080  -0.99052  -0.35736
C    -1.44989  -1.04935   1.81255
N    -1.41993  -1.51098   2.87653
N    -0.70016  -1.51506  -0.47752
C    -0.63996  -2.93366  -0.19272
H     4.12533  -0.76006   1.09481
H     4.63607   0.61818   0.08321
H     3.42304   0.85256   1.37848
H     2.59758   0.53747  -1.14296
H     0.08349  -1.52920  -2.99302
H     1.64237  -0.68782  -2.80210
H     1.44468  -2.34014  -2.16300
H    -0.92400   0.44587  -2.03746
H    -1.95598   1.40887  -0.15593
H    -1.66357  -3.33137  -0.10015
H    -0.16382  -3.45447  -1.03444
H    -0.08503  -3.18237   0.72815
