23
Generated by autodE on: 2022-10-13. E = -605.335508 Ha
C     3.38161   1.32748   0.47256
N     2.29216   1.00597  -0.43144
C     1.46843  -0.02131  -0.18719
O     1.60636  -0.80281   0.75757
C     0.36627  -0.24395  -1.19628
C     0.72055  -0.37927  -2.63937
N    -0.86630  -0.42746  -0.78185
C    -1.87714  -0.90610  -1.74616
C    -1.32964  -0.10723   0.51396
C    -2.44656  -0.76765   1.05012
N    -3.37831  -1.29334   1.52780
C    -0.69565   0.87762   1.28544
N    -0.18717   1.71060   1.93282
H     4.08155   0.48270   0.56012
H     2.99674   1.56203   1.47759
H     3.92004   2.19870   0.08184
H     2.09623   1.62214  -1.21513
H     0.64062  -1.43223  -2.96066
H     0.04470   0.21093  -3.27790
H     1.75234  -0.05346  -2.81266
H    -1.49721  -1.78564  -2.27739
H    -2.09695  -0.10412  -2.46376
H    -2.79247  -1.16891  -1.20936
