23
Generated by autodE on: 2022-10-07. E = -605.333752 Ha
C     2.46973  -1.80488  -0.35996
N     2.44670  -0.56971   0.40184
C     1.35462   0.05793   0.85579
O     1.34469   1.20755   1.30298
C     0.07428  -0.74696   0.95484
C     0.03438  -1.87388   1.93176
N    -1.00474  -0.34005   0.33359
C    -2.30552  -0.94093   0.69016
C    -0.99877   0.59706  -0.72649
C     0.13349   0.75253  -1.53833
N     1.06574   0.87415  -2.23715
C    -2.13728   1.37487  -0.98839
N    -3.07278   2.03513  -1.23701
H     3.13205  -2.54729   0.10939
H     2.82089  -1.61182  -1.38524
H     1.46032  -2.22930  -0.43042
H     3.29763  -0.00983   0.41729
H     1.05038  -2.14357   2.24365
H    -0.45657  -2.76198   1.50377
H    -0.53448  -1.58212   2.83153
H    -2.45376  -0.88621   1.77463
H    -3.10577  -0.39766   0.18103
H    -2.31742  -1.99017   0.36621
