10
Generated by autodE on: 2022-10-07. E = -455.046459 Ha
O    -1.12195   0.79281   1.92747
C    -1.32411   0.20677   0.83208
O    -1.94785  -0.87197   0.66147
C    -0.85385   0.93578  -0.41293
C     0.28463   0.74154  -1.09964
C     1.35429  -0.27529  -0.77481
O     2.29449  -0.37667  -1.61398
O     1.24697  -0.94479   0.29105
H    -1.54689   1.71307  -0.76397
H     0.48335   1.34895  -1.99028
