33
Generated by autodE on: 2022-10-07. E = -1060.366359 Ha. Imaginary frequency = -370.6 cm-1
C     3.13566   0.62599   1.21243
N     2.08289   0.37782   0.25138
C     1.69359  -0.85977  -0.02896
O     2.27722  -1.87804   0.37228
C     0.49364  -1.10264  -0.95990
C     0.96814  -1.51217  -2.33216
C    -0.59749   0.65201  -1.29990
C     0.35946   1.64124  -1.95429
O     1.00759   2.43699  -1.20999
O     0.43156   1.59270  -3.20511
C    -1.29095   0.95465  -0.11482
C    -0.99306   2.10933   0.82406
O    -1.74762   3.09451   0.60438
O    -0.11121   2.02890   1.70972
C    -1.01833  -1.36238   0.86664
C    -2.38390  -1.56465   1.17250
N    -3.51806  -1.67510   1.43501
C    -0.18225  -1.15411   1.99192
N     0.44877  -0.99612   2.96234
N    -0.51662  -1.82059  -0.36778
C    -1.45211  -2.55980  -1.21595
H     2.81133   0.34541   2.22920
H     3.37838   1.69622   1.20182
H     4.04225   0.05062   0.97122
H     1.56204   1.19212  -0.11312
H     1.73515  -0.80302  -2.66876
H     1.42322  -2.51496  -2.29013
H     0.15848  -1.51493  -3.07195
H    -1.19881   0.13650  -2.05399
H    -2.32962   0.62314  -0.05526
H    -2.14321  -1.87949  -1.74158
H    -0.89896  -3.15037  -1.95301
H    -2.03432  -3.25073  -0.59648
