32
Generated by autodE on: 2022-06-12. E = -893.515101 Ha
C    -1.75671   2.49201  -1.44020
N    -1.84095   2.33003   0.00179
C    -1.31104   1.34303   0.72879
O    -1.33338   1.27536   1.96048
C    -0.66503   0.18222   0.00130
O     0.57790  -0.08175   0.21694
C     1.58348   0.59337   0.81847
C     1.46826   1.93758   1.18878
N     1.38423   3.06819   1.48285
C     2.85150  -0.11567   0.95312
O     3.84604   0.46377   1.42764
N     2.88713  -1.40439   0.53988
C     4.08705  -2.20463   0.67212
C    -1.41249  -0.78517  -0.76688
C    -2.81836  -0.68166  -0.87352
C    -3.53380  -1.61660  -1.61683
C    -2.86670  -2.66122  -2.26573
C    -1.47240  -2.77056  -2.16793
C    -0.74647  -1.84444  -1.42898
H    -1.54367   3.54451  -1.67301
H    -2.69553   2.20261  -1.93733
H    -0.93877   1.88274  -1.84511
H    -2.32177   3.05169   0.53736
H     2.02329  -1.85538   0.26038
H     4.95057  -1.69462   0.21936
H     3.93390  -3.16042   0.15574
H     4.33385  -2.41151   1.72761
H    -3.35233   0.12258  -0.36598
H    -4.61976  -1.53040  -1.68946
H    -3.43145  -3.38990  -2.85131
H    -0.95058  -3.58224  -2.67904
H     0.33970  -1.92128  -1.36725
