32
Generated by autodE on: 2022-07-27. E = -893.513640 Ha
C    -2.07653  -2.58368  -0.50657
N    -2.42613  -1.58643   0.49070
C    -1.65212  -0.59434   0.93744
O    -2.00367   0.27991   1.73385
C    -0.21170  -0.53682   0.47167
O     0.19420   0.47157  -0.21377
C    -0.41966   1.50424  -0.83102
C    -1.80959   1.57245  -0.96032
N    -2.96907   1.66298  -1.10893
C     0.53422   2.43532  -1.44117
O     1.76081   2.24714  -1.36533
N     0.01041   3.50625  -2.08279
C     0.86307   4.50414  -2.69546
C     0.80617  -1.44809   0.94132
C     0.46588  -2.53932   1.77164
C     1.45483  -3.41591   2.21098
C     2.78762  -3.22135   1.83293
C     3.13412  -2.13810   1.01234
C     2.15775  -1.25594   0.56706
H    -2.88184  -2.65569  -1.25137
H    -1.15601  -2.29246  -1.02790
H    -1.92635  -3.57392  -0.04989
H    -3.36772  -1.60919   0.88055
H    -0.99387   3.64874  -2.09638
H     1.50196   5.00724  -1.95072
H     0.23126   5.25826  -3.18033
H     1.52279   4.05641  -3.45559
H    -0.56891  -2.69889   2.07706
H     1.18402  -4.25654   2.85289
H     3.55928  -3.91313   2.17768
H     4.17500  -1.98554   0.71940
H     2.41935  -0.41017  -0.06997
