52
Generated by autodE on: 2022-06-12. E = -9386.042252 Ha. Imaginary frequency = -208.7 cm-1
C    -3.06489   1.15402  -2.73864
N    -3.91549   0.31323  -1.92149
C    -3.42781  -0.79546  -1.32277
O    -2.29121  -1.23086  -1.53054
C    -4.36271  -1.50279  -0.39777
C    -5.76333  -1.37628  -0.58505
N    -6.89809  -1.25180  -0.82638
O    -3.83942  -2.67191  -0.00496
C    -4.19124  -3.56157   0.87442
C    -5.65766  -3.67022   1.28157
O    -6.27433  -2.73605   1.78641
N    -6.22960  -4.84718   0.97709
C    -7.63677  -5.08123   1.24681
C    -3.21219  -4.62093   1.07330
C    -1.98376  -4.57210   0.37402
C    -1.01628  -5.54438   0.58853
C    -1.24744  -6.58212   1.50229
C    -2.45955  -6.64311   2.19417
C    -3.43758  -5.67345   1.98518
C    -3.64096  -1.65005   2.58983
C    -3.87854  -0.63710   1.91902
C    -3.98248   0.81958   1.88703
Cl   -5.46700   1.36705   0.98101
Br   -2.38215   1.57113   0.94205
C    -4.07554   1.41814   3.30140
C    -2.82656   1.38943   4.19122
C    -2.08841   0.06321   4.40676
C    -2.95983  -1.10727   4.90234
C    -3.16767  -2.20463   3.84714
Br   -4.44637  -3.53126   4.60204
Br   -1.41438  -3.12679   3.54831
H    -2.30197   1.67596  -2.13594
H    -3.68621   1.90305  -3.24527
H    -2.54635   0.55054  -3.49672
H    -4.77262   0.71889  -1.55864
H    -5.67991  -5.58029   0.54042
H    -8.26427  -4.35500   0.70695
H    -7.84980  -4.98377   2.32261
H    -7.89472  -6.09496   0.91891
H    -1.80003  -3.75614  -0.32438
H    -0.07094  -5.49515   0.04404
H    -0.48146  -7.34226   1.67139
H    -2.64411  -7.44663   2.90997
H    -4.36550  -5.72487   2.54967
H    -4.91034   0.88644   3.78519
H    -4.38882   2.46607   3.18973
H    -3.15853   1.77503   5.16951
H    -2.10121   2.12250   3.80604
H    -1.29521   0.24692   5.14673
H    -1.56133  -0.22455   3.48500
H    -3.96190  -0.74913   5.18545
H    -2.52851  -1.58022   5.79500
