41
Generated by autodE on: 2022-06-19. E = -957.335271 Ha
C     0.25159   2.76092   1.32560
O     0.79529   1.45614   1.05084
C     1.16419   1.21763  -0.19966
O     1.12439   2.03100  -1.09545
C     1.70165  -0.21499  -0.40985
C     3.24121  -0.05443  -0.45392
C     3.97563  -0.10731   0.84869
O     3.77819   0.13216  -1.52632
C     1.12845  -0.82549  -1.70371
C    -0.12725  -1.58510  -1.20128
C    -0.38967  -2.88431  -1.96931
C    -1.34720  -0.68370  -1.23626
C    -1.87985  -0.01642  -0.19416
C    -3.00830   0.89200  -0.30703
C    -3.55114   1.62957   0.69177
C    -3.06955   1.62008   2.11546
C    -4.71447   2.54338   0.42707
C     0.31669  -1.82220   0.23890
C    -0.34243  -2.78175   1.08577
N    -0.89871  -3.56831   1.73448
N     1.27617  -1.10217   0.68406
H    -0.63778   2.93446   0.70488
H    -0.01502   2.75520   2.38744
H     1.00514   3.53455   1.12226
H     3.93091  -1.13395   1.24566
H     3.48448   0.53959   1.59178
H     5.02150   0.19033   0.70119
H     0.90094  -0.06885  -2.46187
H     1.85669  -1.53538  -2.11884
H    -0.60296  -2.65362  -3.02402
H     0.48716  -3.54822  -1.92996
H    -1.25801  -3.41859  -1.55438
H    -1.78080  -0.55876  -2.23541
H    -1.43672  -0.13442   0.79801
H    -3.44521   0.98701  -1.30801
H    -2.21383   0.95625   2.29105
H    -2.78160   2.63928   2.42592
H    -3.88784   1.31301   2.79036
H    -4.45836   3.58593   0.68730
H    -5.03445   2.51546  -0.62482
H    -5.57650   2.27259   1.06259
