39
Generated by autodE on: 2022-06-19. E = -902.003934 Ha
C    -1.18660  -3.45691   1.02111
O    -0.76335  -2.08752   0.92051
C    -0.58717  -1.60197  -0.30537
O    -0.75705  -2.25239  -1.31517
C    -0.20488  -0.10770  -0.28511
C    -1.50450   0.65595  -0.03869
C    -2.60968   0.43385  -0.87540
C    -3.79365   1.15026  -0.69089
C    -3.88898   2.10006   0.33201
C    -2.79149   2.32515   1.16665
C    -1.60570   1.60613   0.98355
N     0.76758   0.09788   0.80717
C     1.93746   0.19283   0.29814
C     3.15095   0.38701   1.16494
C     2.96032   0.45091   2.65060
O     4.24514   0.48948   0.63021
C     2.03107   0.08335  -1.20499
C     2.62612  -1.26241  -1.64457
C     0.54866   0.29726  -1.60025
C     0.29451   1.74131  -2.02414
H    -2.15919  -3.59292   0.52676
H    -0.44345  -4.12256   0.55948
H    -1.27172  -3.66696   2.09332
H    -2.54321  -0.30100  -1.68046
H    -4.64518   0.96620  -1.35022
H    -4.81520   2.66106   0.47695
H    -2.85493   3.06511   1.96823
H    -0.75300   1.78193   1.63902
H     2.29320   1.28844   2.90833
H     2.46939  -0.46755   3.00756
H     3.93199   0.57885   3.14433
H     2.66794   0.89062  -1.59781
H     3.66151  -1.36588  -1.28896
H     2.04227  -2.10926  -1.25328
H     2.63024  -1.33061  -2.74304
H     0.25278  -0.38040  -2.41046
H    -0.75263   1.90751  -2.31278
H     0.53815   2.44603  -1.21289
H     0.92860   1.98909  -2.88935
