12
Generated by autodE on: 2022-06-19. E = -157.300301 Ha
C     1.95870  -0.07151   0.12781
C     0.50204  -0.42367   0.13095
C    -0.50204   0.42368  -0.13091
C    -1.95869   0.07150  -0.12784
H     2.51731  -0.68477  -0.60154
H     2.42055  -0.26895   1.11158
H     2.12196   0.98908  -0.12033
H     0.25615  -1.46786   0.37008
H    -0.25615   1.46788  -0.36999
H    -2.42030   0.26821  -1.11188
H    -2.12200  -0.98892   0.12099
H    -2.51751   0.68528   0.60091
