27
Generated by autodE on: 2022-06-19. E = -744.617335 Ha
C    -0.54072   4.01927  -0.08335
O    -0.07791   2.66522  -0.02622
C    -1.01780   1.70501  -0.10820
O    -2.20614   1.95666  -0.22600
C    -0.42902   0.35883  -0.03878
N     0.87692   0.31342   0.08692
C     2.04647   0.21891   0.20174
C     3.45137   0.01168   0.31990
C     4.30145   1.24754   0.39109
O     3.88796  -1.14055   0.35979
C    -1.16550  -0.91434  -0.10009
C    -2.57081  -0.96552  -0.21597
C    -3.23328  -2.19301  -0.26986
C    -2.52163  -3.39432  -0.21086
C    -1.12773  -3.35548  -0.09547
C    -0.45638  -2.13574  -0.04071
H    -1.05904   4.21295  -1.03393
H    -1.22344   4.23190   0.75242
H     0.35490   4.64686  -0.00758
H     4.85888   1.23620   1.34155
H     3.70708   2.16930   0.32327
H     5.03500   1.21764  -0.43045
H    -3.13833  -0.03961  -0.26280
H    -4.32227  -2.20604  -0.35952
H    -3.04622  -4.35141  -0.25399
H    -0.55446  -4.28436  -0.04798
H     0.63146  -2.13633   0.04939
