41
Generated by autodE on: 2022-06-02. E = -3639.210053 Ha
C    -3.08898   1.27936   2.37814
O    -2.32151   0.27629   1.68722
C    -2.45798   0.21938   0.37365
O    -3.20893   0.90417  -0.27892
C    -1.48516  -0.81525  -0.22398
C    -2.00348  -1.48449  -1.55244
C    -3.47387  -1.73386  -1.64705
O    -1.20486  -1.83422  -2.38890
N    -1.39698  -1.99130   0.67184
N    -0.20022  -2.17085   0.99623
C     0.64759  -1.17821   0.44818
C    -0.06539  -0.29404  -0.30097
C     0.34289   0.93891  -1.05826
C    -0.51937   1.22643  -2.27960
Br   -0.03888   2.46649   0.28555
C     1.83400   1.08413  -1.38187
C     2.42468   0.04886  -2.34614
C     2.37358  -1.41660  -1.91364
C     2.97279  -1.75486  -0.55065
C     2.13277  -1.33097   0.73822
C     2.67031  -0.12132   1.39631
N     3.11629   0.78640   1.96216
C     2.33376  -2.40150   1.74182
N     2.58765  -3.22974   2.51118
H    -2.83135   1.17310   3.43735
H    -2.81353   2.27868   2.01299
H    -4.16289   1.10827   2.22175
H    -3.87728  -2.06398  -0.67857
H    -3.66230  -2.48122  -2.42802
H    -3.97858  -0.79079  -1.90689
H    -0.22510   2.18921  -2.71766
H    -1.58953   1.26051  -2.04435
H    -0.35336   0.44027  -3.02983
H     1.95833   2.07955  -1.83183
H     2.42054   1.11330  -0.45878
H     1.94025   0.13859  -3.33096
H     3.47845   0.33754  -2.49339
H     2.95355  -2.00121  -2.64579
H     1.34777  -1.80691  -1.97852
H     3.07148  -2.84590  -0.48511
H     3.98021  -1.32949  -0.43637
