16
Generated by autodE on: 2022-06-02. E = -529.530917 Ha
C    -3.18342   0.61737   0.27716
O    -1.95835  -0.06340  -0.03301
C    -0.82018   0.58067   0.26048
O    -0.77720   1.68652   0.76417
C     0.35843  -0.21700  -0.10132
N     0.13817  -1.40485  -0.64859
N     0.01363  -2.41891  -1.11554
C     1.78655   0.12165   0.06453
C     2.12482   1.44954   0.67990
O     2.64717  -0.67451  -0.29642
H    -3.25029   1.56243  -0.28072
H    -3.98806  -0.06096  -0.02867
H    -3.24774   0.82172   1.35556
H     3.21743   1.53837   0.73588
H     1.70686   2.27058   0.07835
H     1.68314   1.53397   1.68396
