41
Generated by autodE on: 2022-06-02. E = -3639.122962 Ha. Imaginary frequency = -436.3 cm-1
C    -3.30023   1.98383   2.25202
O    -2.54931   0.80366   1.93056
C    -2.66802   0.34021   0.68435
O    -3.38383   0.83193  -0.16450
C    -1.78070  -0.81885   0.45340
C    -1.95985  -1.85635  -0.63991
C    -3.03079  -1.65115  -1.66898
O    -1.23877  -2.83858  -0.63260
N    -1.15772  -1.36261   1.51639
N    -0.09712  -1.71396   1.81213
C     1.06373  -0.84693   0.40800
C     0.39429  -0.02614  -0.25352
C     0.38289   1.08513  -1.20950
C    -0.56421   0.92249  -2.38389
Br   -0.25719   2.71293  -0.13436
C     1.82815   1.42836  -1.62399
C     2.53859   0.40114  -2.51856
C     2.78224  -1.01477  -1.96826
C     3.38793  -1.07124  -0.55378
C     2.36496  -1.56492   0.52916
C     2.93586  -1.36531   1.87661
N     3.39919  -1.17431   2.92121
C     2.11709  -3.01389   0.33609
N     1.92629  -4.13937   0.13872
H    -3.06148   2.21524   3.29610
H    -3.00105   2.81524   1.59815
H    -4.37750   1.79588   2.13920
H    -4.01152  -1.59937  -1.17096
H    -3.00284  -2.49717  -2.36707
H    -2.89859  -0.70682  -2.21032
H    -0.43055   1.75132  -3.09276
H    -1.60703   0.90464  -2.05055
H    -0.34233  -0.02416  -2.90114
H     1.79189   2.38338  -2.16937
H     2.41515   1.60610  -0.71154
H     2.00373   0.31283  -3.47741
H     3.51713   0.84972  -2.75850
H     3.47085  -1.52115  -2.66073
H     1.85102  -1.60093  -2.00395
H     4.24955  -1.75159  -0.50746
H     3.73952  -0.08280  -0.22639
