26
Generated by autodE on: 2022-06-25. E = -689.460853 Ha
C    -2.50009  -2.11281  -0.91118
O    -1.07343  -2.01216  -0.85096
C    -0.44307  -0.91615  -0.42974
C    -0.96199   0.28495  -0.04781
O    -2.29761   0.56686  -0.08820
C    -2.95716   0.65097   1.17955
C    -0.06702   1.38890   0.36008
O    -0.54906   2.48156   0.65390
C     1.41085   1.17130   0.39932
C     2.26900   2.30975   0.85267
C     1.93864  -0.01796   0.01694
C     3.41398  -0.27476   0.02271
C     1.04878  -1.12223  -0.42411
O     1.49553  -2.20598  -0.77430
H    -2.70187  -3.12957  -1.27139
H    -2.91902  -1.37930  -1.61205
H    -2.94679  -1.98118   0.08462
H    -4.01487   0.85768   0.96905
H    -2.87324  -0.30370   1.72501
H    -2.54179   1.46291   1.79458
H     1.66220   3.18058   1.12628
H     2.88075   2.01390   1.72088
H     2.97488   2.60499   0.05850
H     3.82738  -0.14686   1.03681
H     3.93800   0.44798  -0.62413
H     3.64184  -1.28924  -0.32492
