23
Generated by autodE on: 2022-06-25. E = -684.240110 Ha
C     1.02660  -1.61211   1.31800
N     0.99625  -0.48254   0.39372
C    -0.06246   0.12789  -0.10991
C    -1.47932  -0.15933   0.04957
C    -1.96536  -1.46675   0.24844
C    -3.33679  -1.68375   0.37606
C    -4.23226  -0.61233   0.30395
C    -3.75449   0.68574   0.09149
C    -2.38760   0.91548  -0.04082
O     0.31957   1.16795  -0.85448
C     1.75350   1.26061  -0.86839
O     2.30089   2.14459  -1.49693
C     2.15698   0.17596  -0.06068
C     3.45905  -0.20875   0.26774
N     4.55667  -0.51390   0.53202
H     1.07453  -2.55848   0.76273
H     0.13437  -1.59183   1.95233
H     1.91847  -1.51541   1.94817
H    -1.28555  -2.31749   0.26902
H    -3.70798  -2.70012   0.52226
H    -5.30516  -0.78982   0.40603
H    -4.45147   1.52408   0.03012
H    -2.01257   1.92667  -0.20336
