49
Generated by autodE on: 2022-06-25. E = -1373.670195 Ha. Imaginary frequency = -47.1 cm-1
C     2.27167  -0.93288   3.10044
O     1.25936  -0.15695   2.43377
C     1.25164   0.06728   1.12463
C     2.45810   0.01734   0.28585
O     3.54048  -0.41160   0.69020
C     2.33103   0.52522  -1.11197
C     3.38587   0.10816  -2.08490
C     1.35716   1.41412  -1.45025
C     1.30424   2.07005  -2.79454
C     0.32493   1.78993  -0.46145
O    -0.35297   2.79937  -0.56979
C     0.03922   0.80673   0.66182
O    -0.72394   1.34157   1.69103
C    -0.17359   2.45440   2.39920
C    -1.04173  -0.38440  -0.01134
C    -2.31954   0.22687  -0.49106
C    -3.44839   0.19230   0.34244
C    -4.64298   0.78665  -0.06576
C    -4.72464   1.42359  -1.30713
C    -3.60102   1.46851  -2.13626
C    -2.40117   0.88141  -1.73084
O    -1.25260  -1.19938   1.14684
C    -0.22599  -2.09805   1.22936
O    -0.05892  -2.82576   2.17693
C     0.54012  -1.90354  -0.00528
C     1.62285  -2.71580  -0.40047
N     2.55574  -3.34632  -0.69861
N    -0.27133  -1.19978  -0.87424
C    -0.31265  -1.35033  -2.32073
H     3.19613  -0.35201   3.20265
H     2.46889  -1.86395   2.55564
H     1.85057  -1.15462   4.08853
H     2.91611  -0.26820  -3.00785
H     4.01528   0.96600  -2.37692
H     4.03220  -0.66987  -1.66289
H     1.16395   1.31733  -3.58838
H     0.48473   2.79652  -2.84721
H     2.25173   2.58680  -3.01723
H    -0.73082   2.52689   3.34293
H    -0.29932   3.38647   1.82924
H     0.89310   2.30697   2.62601
H    -3.39018  -0.29992   1.31196
H    -5.51405   0.75106   0.59216
H    -5.66062   1.88775  -1.62607
H    -3.65147   1.96969  -3.10510
H    -1.53746   0.95047  -2.38868
H     0.06828  -0.47056  -2.85220
H     0.31537  -2.21071  -2.58321
H    -1.34024  -1.55893  -2.64921
