20
Generated by autodE on: 2022-06-26. E = -457.715315 Ha
C    -3.02728   0.67662   0.68973
N    -1.81706   0.21828   0.02757
C    -1.87931  -0.21119  -1.30411
C    -0.79190  -0.58689  -1.99586
C     0.59861  -0.58814  -1.40984
C     0.57180  -0.07574   0.02078
C     1.80612   0.04938   0.81208
N     2.95200  -0.33293   0.19405
O     1.83187   0.48113   1.98274
C    -0.59513   0.28351   0.62653
H    -3.81008  -0.09693   0.64849
H    -3.42137   1.59286   0.21868
H    -2.80522   0.89214   1.74233
H    -2.88082  -0.21768  -1.73825
H    -0.92121  -0.91257  -3.03055
H     1.27617   0.02604  -2.03734
H     1.02994  -1.60954  -1.45765
H     2.96987  -0.70560  -0.74664
H     3.82461  -0.26824   0.70669
H    -0.58487   0.64695   1.65527
