54
Generated by autodE on: 2022-06-26. E = -1410.408046 Ha. Imaginary frequency = -330.8 cm-1
C    -1.45793   3.99061   1.63943
O    -1.13355   3.08884   0.57323
C    -1.05636   1.79150   0.89305
O    -1.38073   1.35356   1.97891
C    -0.72658   0.95676  -0.32535
C    -1.94030   0.33609  -0.91383
C    -3.23559   0.66138  -0.46168
C    -4.35680  -0.00124  -0.95929
C    -4.21306  -1.00652  -1.92090
C    -2.93667  -1.33246  -2.38936
C    -1.81508  -0.67122  -1.89220
C     0.37327  -0.72953   0.60864
N    -0.43234  -1.84015   0.39288
C    -1.63768  -2.03031   1.18581
C     0.00126  -2.86480  -0.43358
C     1.08322  -2.74871  -1.22633
C     1.78689  -1.41987  -1.34003
C     1.66140  -0.67832  -0.02300
C     2.82868  -0.50827   0.88132
N     4.06478  -0.64263   0.34161
O     2.68705  -0.26152   2.09199
C     1.56676   1.53512  -0.83330
C     2.52495   1.54773  -1.89063
N     3.31544   1.49030  -2.74447
C     2.02296   2.13898   0.43952
O     1.33127   2.35811   1.41541
O     3.33839   2.38152   0.40632
C     3.94856   2.83328   1.62476
N     0.23954   1.45063  -1.20747
C    -0.07656   1.68847  -2.63182
H    -2.45314   3.76454   2.04882
H    -0.70701   3.91798   2.43897
H    -1.44842   4.99485   1.19998
H    -3.37994   1.44002   0.28789
H    -5.34931   0.27079  -0.59315
H    -5.09145  -1.53010  -2.30518
H    -2.80965  -2.11501  -3.14075
H    -0.83196  -0.95149  -2.26202
H     0.29992  -0.31840   1.61414
H    -1.48894  -2.80783   1.95544
H    -2.48060  -2.32776   0.54464
H    -1.89571  -1.08996   1.68384
H    -0.58651  -3.78297  -0.36935
H     1.42430  -3.60209  -1.81476
H     1.32965  -0.82282  -2.15044
H     2.83370  -1.55897  -1.63567
H     4.21034  -0.59735  -0.65986
H     4.85057  -0.39354   0.93448
H     5.01840   2.92406   1.40569
H     3.78123   2.09849   2.42339
H     3.53646   3.80862   1.92048
H     0.24000   0.86470  -3.28411
H     0.42694   2.61112  -2.94848
H    -1.15565   1.83421  -2.73258
