36
Generated by autodE on: 2022-10-21. E = -953.898363 Ha
C     4.43746   1.82238  -0.44534
O     3.06150   1.87864  -0.81723
C     2.45785   0.69684  -0.99455
C     2.87939  -0.57976  -0.91795
C     1.60097  -1.38836  -1.07825
O     0.82225  -0.56551  -1.97869
C     0.95450   0.64558  -1.22274
C     0.32457   0.24515   0.14775
C     0.78132  -1.24490   0.24052
C    -0.54108  -2.06055   0.22583
C    -0.85250  -2.58815   1.56424
N    -1.09863  -2.99088   2.62442
N    -1.61654  -1.17548  -0.23777
C    -1.22880   0.17751   0.17813
C    -1.84099   1.29402  -0.68901
C    -2.38717   0.95146  -2.04149
O    -1.83831   2.42982  -0.24754
C    -1.75497   0.44987   1.61655
C    -3.19611   0.11258   1.87756
O    -1.03345   0.91566   2.47513
H     4.77981   2.85839  -0.33096
H     5.03046   1.31929  -1.22683
H     4.55936   1.28026   0.50681
H     3.85885  -0.97842  -0.66409
H     1.69026  -2.41179  -1.46058
H     0.52115   1.50869  -1.73940
H     0.68765   0.88483   0.95756
H     1.39293  -1.47029   1.12081
H    -0.46863  -2.93011  -0.44395
H    -1.61889  -1.22467  -1.25437
H    -3.27205   0.30390  -1.92611
H    -1.64740   0.38790  -2.63158
H    -2.66881   1.87216  -2.56755
H    -3.27163  -0.96383   2.09977
H    -3.55179   0.67588   2.75040
H    -3.83038   0.30997   1.00179
