17
Generated by autodE on: 2022-10-21. E = -422.092814 Ha
C     2.91925   0.65639   0.00620
O     1.90145  -0.11861  -0.62372
C     0.64585   0.16754  -0.25612
C     0.10387   1.04533   0.60587
C    -1.39987   0.69137   0.56027
C    -1.58655  -0.70380   1.20641
C    -1.02964  -1.56269   0.34716
C    -0.52303  -0.67443  -0.81313
O    -1.54829   0.33369  -0.83687
H     3.87980   0.31284  -0.39772
H     2.78353   1.72802  -0.21558
H     2.89851   0.50852   1.09868
H     0.57103   1.76266   1.27564
H    -2.10429   1.47667   0.85695
H    -2.02367  -0.88785   2.18781
H    -0.88096  -2.63893   0.42761
H    -0.36135  -1.14453  -1.78969
