36
Generated by autodE on: 2022-10-21. E = -953.812202 Ha. Imaginary frequency = -320.7 cm-1
C     4.56034   2.18356  -0.91464
O     3.14181   2.11642  -1.05007
C     2.60945   0.89120  -0.97907
C     3.12366  -0.34142  -0.81081
C     1.87166  -1.23360  -0.71561
O     0.98132  -0.56223  -1.63912
C     1.07822   0.72545  -1.01029
C     0.64579   0.36485   0.42682
C     1.15620  -0.90468   0.61259
C    -0.77938  -2.26761   0.40925
C    -0.81334  -2.39769   1.82234
N    -0.77521  -2.53509   2.97961
N    -1.50919  -1.36341  -0.26715
C    -1.74121  -0.07502   0.10822
C    -1.97694   0.82249  -1.04216
C    -2.24714   2.28056  -0.80336
O    -1.91495   0.35974  -2.18371
C    -2.23739   0.28419   1.46182
C    -3.25489  -0.62692   2.11042
O    -1.94528   1.35431   1.98401
H     4.87466   1.78267   0.06313
H     5.05342   1.60936  -1.71641
H     4.83911   3.24186  -0.99122
H     4.15133  -0.66516  -0.66707
H     1.99238  -2.29216  -0.96957
H     0.52870   1.50342  -1.54837
H     0.38922   1.09593   1.19040
H     1.43383  -1.34714   1.56727
H    -0.47733  -3.15663  -0.14877
H    -1.44361  -1.44029  -1.28875
H    -1.40155   2.74656  -0.27652
H    -2.40074   2.77449  -1.77113
H    -3.13522   2.41773  -0.16791
H    -3.35445  -1.60699   1.63016
H    -3.02615  -0.74950   3.17827
H    -4.22464  -0.10628   2.03002
