32
Generated by autodE on: 2022-06-14. E = -823.066748 Ha
C    -1.96068   3.69612   0.07894
O    -1.28675   2.43817   0.05183
C    -2.07678   1.32957   0.00371
O    -3.30247   1.41945  -0.01603
C    -1.30407   0.10826  -0.01872
N     0.03011   0.26382   0.01119
C     1.18883   0.39851   0.03715
C     2.58848   0.57656   0.06412
C     3.44421  -0.54767   0.05951
C     4.82221  -0.35123   0.08482
C     5.35567   0.94296   0.11520
C     4.50353   2.05384   0.12029
C     3.12206   1.88473   0.09471
C    -1.83028  -1.25913  -0.06869
C    -0.94581  -2.36403  -0.07333
C    -1.42418  -3.67278  -0.12122
C    -2.79870  -3.92923  -0.16641
C    -3.68497  -2.84744  -0.16256
C    -3.21691  -1.53359  -0.11467
H    -2.57098   3.83791  -0.82599
H    -2.60955   3.77874   0.96410
H    -1.17503   4.46060   0.12104
H     3.01954  -1.55234   0.03607
H     5.48683  -1.21767   0.08104
H     6.43801   1.08630   0.13502
H     4.91916   3.06338   0.14410
H     2.44949   2.74369   0.09792
H     0.13294  -2.20102  -0.03934
H    -0.71131  -4.50138  -0.12326
H    -3.17198  -4.95508  -0.20407
H    -4.76315  -3.02488  -0.19750
H    -3.92188  -0.70595  -0.11268
