58
Generated by autodE on: 2022-06-14. E = -6956.763369 Ha. Imaginary frequency = -263.2 cm-1
C     2.25089  -1.32073  -6.32585
O     3.12222  -1.01533  -5.23515
C     3.15208   0.26748  -4.83030
O     2.47473   1.13558  -5.34924
C     4.12130   0.46865  -3.72634
C     4.56649   1.78471  -3.23431
C     4.07438   3.00129  -3.74791
C     4.49230   4.21752  -3.20798
C     5.40408   4.25399  -2.14821
C     5.90727   3.05269  -1.63783
C     5.49977   1.83436  -2.17764
N     4.85187  -0.59304  -3.42832
C     5.04812  -1.56031  -2.73468
C     5.88932  -2.73855  -2.77495
C     7.27446  -2.65936  -2.55325
C     8.04018  -3.82408  -2.58901
C     7.43762  -5.05892  -2.85511
C     6.05953  -5.13139  -3.08506
C     5.27854  -3.97783  -3.03421
C     3.50120  -1.15292  -1.14155
C     2.61184  -0.48002  -1.70210
C     1.24624  -0.00548  -1.74187
Br    0.30173  -0.94469  -3.27412
Br    1.16904   1.94537  -2.07841
C     0.43401  -0.31557  -0.47656
C     0.59651  -1.76547   0.01335
C     1.48731  -1.91851   1.25305
C     2.84477  -1.20641   1.27257
C     3.92842  -1.61151   0.22132
C     5.22842  -0.86704   0.63412
F     6.22844  -1.00713  -0.25032
F     5.68604  -1.31233   1.81563
F     5.00090   0.44754   0.75567
C     4.16793  -3.14498   0.30069
F     3.28426  -3.80009  -0.46649
F     4.02395  -3.59975   1.55568
F     5.39693  -3.51205  -0.08893
H     1.21237  -1.05326  -6.08561
H     2.33462  -2.40209  -6.48611
H     2.56237  -0.77902  -7.23156
H     3.35111   2.98438  -4.55822
H     4.09532   5.14874  -3.61951
H     5.72305   5.20992  -1.72635
H     6.62199   3.06086  -0.81148
H     5.90928   0.91208  -1.76974
H     7.73793  -1.69337  -2.34917
H     9.11653  -3.76665  -2.41235
H     8.04412  -5.96694  -2.88183
H     5.58782  -6.09384  -3.29508
H     4.19910  -4.02514  -3.18640
H    -0.61681  -0.07215  -0.68346
H     0.77015   0.39021   0.29895
H    -0.39631  -2.16552   0.26829
H     0.96858  -2.39832  -0.80512
H     0.94278  -1.50471   2.11815
H     1.61316  -2.98981   1.46902
H     2.70064  -0.12529   1.15652
H     3.28438  -1.35686   2.26830
