23
Generated by autodE on: 2022-06-19. E = -351.521383 Ha
C     2.05801   2.77942  -1.52976
C     1.49118   2.03983  -0.55126
C     1.69107   2.38040   0.90352
C     0.66592   0.88363  -0.89523
C     0.04645   0.06284  -0.01009
C    -0.76288  -1.07197  -0.40495
C    -1.41279  -1.93704   0.41419
C    -1.39955  -1.85920   1.91451
C    -2.21905  -3.07223  -0.15077
H     1.91121   2.52960  -2.58511
H     2.67982   3.64933  -1.30058
H     2.32740   3.26889   1.02061
H     0.72717   2.57621   1.40205
H     2.16122   1.54362   1.44644
H     0.55035   0.67967  -1.96659
H     0.15786   0.26027   1.05950
H    -0.85108  -1.23695  -1.48566
H    -0.80421  -1.02589   2.30919
H    -1.00331  -2.79732   2.34184
H    -2.42940  -1.75907   2.30062
H    -2.20191  -3.08811  -1.25043
H    -1.84138  -4.04266   0.21870
H    -3.27088  -3.00855   0.18155
