19
Generated by autodE on: 2022-06-19. E = -568.927467 Ha
C    -2.95950   0.01233  -0.77728
N    -2.37499   1.05139   0.05810
C    -1.04633   1.30292   0.20599
O    -0.64128   2.44862   0.49167
C    -0.06894   0.23569   0.04108
N     1.27973   0.61738  -0.04277
C     2.06428  -0.42644  -0.07900
C     3.53245  -0.46287  -0.18860
O     1.33610  -1.53101  -0.00489
C    -0.07558  -1.17099   0.10667
O    -0.88369  -2.07603   0.24159
H    -2.61911  -0.98328  -0.47218
H    -4.05075   0.05235  -0.66517
H    -2.71690   0.15398  -1.84520
H    -2.92675   1.90067   0.15322
H     1.58141   1.59119  -0.05970
H     3.95832  -0.98859   0.68046
H     3.82478  -1.01644  -1.09493
H     3.93185   0.55791  -0.23551
