19
Generated by autodE on: 2022-07-27. E = -568.935239 Ha
C     1.36641   3.46264  -0.51850
N     1.01155   2.13602  -0.06639
C     0.16346   1.31736  -0.73670
O    -0.39490   1.62431  -1.80732
C    -0.06625   0.02347  -0.12057
N    -0.91600  -0.92302  -0.69812
C    -0.96581  -2.00615   0.03705
C    -1.73693  -3.23728  -0.20233
O    -0.18759  -1.85861   1.10383
C     0.43252  -0.54399   1.05841
O     1.19426  -0.20198   1.95391
H     2.45219   3.55254  -0.68554
H     1.06784   4.23054   0.21383
H     0.85030   3.66461  -1.46460
H     1.41435   1.78559   0.79913
H    -1.42137  -0.77679  -1.57163
H    -2.30161  -3.15103  -1.13915
H    -2.43326  -3.41066   0.63354
H    -1.05568  -4.10098  -0.25905
