57
Generated by autodE on: 2022-06-14. E = -2029.136794 Ha
C     1.85656  -3.20507  -1.78929
O     1.70298  -3.55383  -0.39920
C     2.79955  -3.87639   0.25826
O     3.90103  -3.92219  -0.24890
C     2.52774  -4.28592   1.73610
C     2.66142  -5.83828   1.53267
C     1.44607  -6.59657   1.08975
O     3.76049  -6.34203   1.62828
C     1.12779  -3.73111   2.15536
C     0.75733  -3.65163   3.63354
C     0.71523  -4.95421   4.42002
C     2.01052  -5.76275   4.48422
C     3.33945  -5.06604   4.90267
C     4.48083  -6.19365   4.84285
F     5.45041  -5.87320   3.97762
F     5.06817  -6.38873   6.03294
F     3.99806  -7.37881   4.45935
C     3.14622  -4.63500   6.38756
F     2.24371  -3.64937   6.48384
F     2.70127  -5.65809   7.12888
F     4.27063  -4.19680   6.97384
C     3.80820  -3.90495   3.99756
C     3.60662  -3.74277   2.67053
C     4.64556  -2.71873   2.16185
C     4.06085  -1.63635   1.33629
N     3.57010  -0.76947   0.74639
C     5.76918  -3.39954   1.46073
N     6.74267  -3.89287   1.07181
O     5.18381  -2.10821   3.31024
C     4.79391  -2.80608   4.50237
C     6.04502  -3.35768   5.07469
N     7.05768  -3.74430   5.48170
C     4.17685  -1.74018   5.41971
C     4.71778  -1.41827   6.66786
C     4.14084  -0.40836   7.44313
C     3.02637   0.28880   6.97318
C     2.49868  -0.01533   5.71333
C     3.07375  -1.02030   4.93745
H     2.49594  -2.31615  -1.87861
H     2.30075  -4.04463  -2.34107
H     0.84591  -2.99268  -2.15378
H     0.65535  -6.55628   1.85381
H     1.03142  -6.14071   0.17695
H     1.72633  -7.63893   0.89457
H     0.36678  -4.30256   1.60932
H     1.07951  -2.70775   1.75969
H    -0.24926  -3.20473   3.66763
H     1.40412  -2.92783   4.14485
H     0.35999  -4.73906   5.43795
H    -0.03299  -5.62946   3.97287
H     1.86084  -6.58946   5.18883
H     2.19092  -6.26297   3.53570
H     5.58823  -1.95266   7.04859
H     4.56999  -0.16828   8.41821
H     2.57315   1.07410   7.58233
H     1.63571   0.53372   5.33073
H     2.66212  -1.23553   3.95091
