20
Generated by autodE on: 2022-06-14. E = -661.819424 Ha
N     1.03682  -0.26766  -2.83610
C     0.61697  -0.15932  -1.75691
C     0.02545  -0.02857  -0.46402
O     0.74580  -0.11136   0.60761
C     2.05617  -0.28561   0.85410
C     2.38978  -0.34988   2.21937
N     2.68912  -0.40907   3.34711
C     3.03486  -0.38505  -0.14820
N     3.89210  -0.46693  -0.93858
C    -1.39380   0.19398  -0.31017
C    -2.22448   0.29369  -1.44919
C    -3.58963   0.51294  -1.29492
C    -4.14230   0.63298  -0.01488
C    -3.32305   0.53332   1.11918
C    -1.95828   0.31666   0.98086
H    -1.79848   0.20067  -2.44963
H    -4.22700   0.59097  -2.17765
H    -5.21435   0.80568   0.10190
H    -3.75673   0.62732   2.11670
H    -1.31885   0.24114   1.86083
