57
Generated by autodE on: 2022-06-14. E = -2029.046305 Ha. Imaginary frequency = -253.8 cm-1
C     2.77390  -2.69539  -1.72699
O     2.35387  -3.16658  -0.43266
C     3.01241  -4.18257   0.09821
O     3.95830  -4.73306  -0.42409
C     2.44317  -4.63488   1.45824
C     2.86526  -6.14551   1.51340
C     2.21252  -7.06167   0.51165
O     3.66132  -6.55399   2.32769
C     0.89077  -4.47545   1.50080
C     0.12671  -5.19232   2.62187
C     0.32027  -4.73284   4.07722
C     1.50103  -5.37712   4.83595
C     2.70219  -4.43081   5.14572
C     3.80546  -5.26698   5.84311
F     4.96441  -4.60070   5.95135
F     4.06469  -6.39194   5.17253
F     3.42104  -5.61651   7.08252
C     2.22581  -3.30026   6.11996
F     3.19089  -2.88932   6.95564
F     1.20627  -3.70772   6.88656
F     1.80325  -2.22679   5.43472
C     3.17624  -3.87945   3.85156
C     3.02108  -3.91219   2.61957
C     3.73286  -1.71799   1.94404
C     2.54768  -1.07404   1.48421
N     1.56034  -0.55342   1.15410
C     4.78874  -1.96684   1.02481
N     5.65242  -2.14917   0.26487
O     4.04124  -1.33219   3.20506
C     4.82814  -1.98208   4.04003
C     5.79986  -2.92013   3.55227
N     6.60894  -3.68107   3.21014
C     5.01709  -1.36629   5.34108
C     6.01647  -1.83853   6.21740
C     6.17018  -1.25767   7.47209
C     5.34161  -0.20034   7.86301
C     4.35938   0.28514   6.98886
C     4.19388  -0.28797   5.73463
H     3.83326  -2.40848  -1.70473
H     2.61675  -3.48348  -2.47641
H     2.14369  -1.82583  -1.94216
H     1.83190  -6.54754  -0.37911
H     2.92949  -7.84309   0.22556
H     1.36052  -7.55187   1.01122
H     0.49828  -4.83606   0.53921
H     0.67939  -3.39759   1.53791
H     0.29276  -6.28056   2.56561
H    -0.93670  -5.04787   2.37284
H    -0.59502  -5.00200   4.62419
H     0.36925  -3.63430   4.10976
H     1.16107  -5.79415   5.79284
H     1.90710  -6.21271   4.25472
H     6.66687  -2.66063   5.91831
H     6.94199  -1.62978   8.14840
H     5.46452   0.25216   8.84941
H     3.72017   1.11669   7.29193
H     3.42845   0.08580   5.05530
