23
Generated by autodE on: 2022-06-20. E = -351.521382 Ha
C    -3.29045  -1.83699   0.30837
C    -2.44413  -0.78369   0.32101
C    -2.93006   0.60804   0.63569
C    -1.02653  -0.98341   0.02668
C    -0.07713  -0.01429   0.00937
C     1.31727  -0.27020  -0.28916
C     2.32650   0.63640  -0.32366
C     2.15994   2.10403  -0.04893
C     3.73025   0.21184  -0.65092
H    -4.35560  -1.71640   0.52475
H    -2.93471  -2.84641   0.07987
H    -4.01090   0.61688   0.83510
H    -2.41161   1.01985   1.51753
H    -2.72601   1.29862  -0.19945
H    -0.72481  -2.01382  -0.19683
H    -0.36930   1.01569   0.23158
H     1.56958  -1.31481  -0.50841
H     2.49634   2.69587  -0.91852
H     2.80287   2.40966   0.79545
H     1.12798   2.39592   0.18441
H     4.41867   0.46642   0.17500
H     4.10595   0.75271  -1.53813
H     3.80391  -0.86832  -0.84482
