29
Generated by autodE on: 2022-06-20. E = -596.535437 Ha
C     3.53011  -1.50721  -1.05218
C     2.51171  -0.48427  -0.71778
N     1.33457  -0.76503  -0.24072
C     0.94392  -2.17527  -0.06373
C     0.48545   0.25308   0.30200
C     1.10985   1.20709   1.14559
C     0.27185   2.30556   1.78340
O     2.34736   1.21358   1.40808
C    -0.92942   0.14999  -0.06999
C    -1.99529   0.43729   0.81456
C    -3.32615   0.32336   0.40909
C    -3.64703  -0.10794  -0.88265
C    -2.60898  -0.42672  -1.76508
C    -1.27819  -0.29527  -1.36886
H     3.74434  -2.15803  -0.18755
H     3.17181  -2.16530  -1.86344
H     4.45960  -1.02456  -1.37805
H     2.72487   0.57220  -0.87594
H    -0.09193  -2.22093   0.28138
H     1.04406  -2.72349  -1.00929
H     1.59762  -2.63711   0.69077
H    -0.09990   1.98911   2.77211
H     0.92605   3.17578   1.93903
H    -0.59343   2.60518   1.17768
H    -1.78187   0.72460   1.84345
H    -4.12304   0.55480   1.12089
H    -4.68995  -0.20399  -1.19331
H    -2.83684  -0.77099  -2.77742
H    -0.48503  -0.53300  -2.08153
