29
Generated by autodE on: 2022-07-27. E = -596.538196 Ha
C     2.03672   0.63008   2.25937
C     2.25539  -0.44859   1.28147
N     1.36743  -0.89613   0.45141
C     1.72227  -1.95871  -0.50252
C    -0.01238  -0.47142   0.46270
C    -0.82496  -0.88047   1.54594
C    -0.24622  -1.78059   2.63313
O    -2.04159  -0.56139   1.67404
C    -0.40970   0.34885  -0.67604
C     0.56950   0.91527  -1.53408
C     0.21596   1.70116  -2.63122
C    -1.12701   1.96939  -2.91542
C    -2.10861   1.43232  -2.07364
C    -1.76569   0.63929  -0.97915
H     1.94181   0.18992   3.26830
H     1.12938   1.20853   2.04242
H     2.92820   1.27603   2.28318
H     3.23910  -0.92822   1.24036
H     2.81245  -2.04465  -0.59204
H     1.29224  -2.90439  -0.14236
H     1.28469  -1.72062  -1.47918
H    -0.00163  -1.17794   3.52436
H    -1.03399  -2.48860   2.93047
H     0.64988  -2.34719   2.34689
H     1.62933   0.74875  -1.33217
H     1.00384   2.11588  -3.26601
H    -1.40331   2.58796  -3.77244
H    -3.16530   1.63096  -2.27420
H    -2.53974   0.23448  -0.33246
