52
Generated by autodE on: 2022-06-20. E = -948.018952 Ha. Imaginary frequency = -485.6 cm-1
C     5.23052   1.16954  -1.28040
C     3.88218   1.23964  -1.28903
C     3.12031   1.56010  -2.54972
C     3.12465   0.98963  -0.06137
C     1.77851   1.03412   0.04048
C     1.02899   0.73637   1.27168
C     0.85648  -1.26118   1.27463
C     0.64478  -1.55664   2.73522
N    -0.07422  -1.55448   0.29956
C     0.47563  -2.21138  -0.89619
C    -1.37319  -1.01907   0.33350
C    -2.24289  -1.32217   1.45152
C    -2.10864  -2.65409   2.17015
O    -3.20431  -0.59085   1.77770
C    -1.94492  -0.45133  -0.90069
C    -1.13312   0.02098  -1.96125
C    -1.67821   0.54373  -3.13395
C    -3.06299   0.63191  -3.29873
C    -3.88858   0.17802  -2.26385
C    -3.34549  -0.35480  -1.09566
C    -0.27152   1.26679   1.48873
C    -0.98476   2.13680   0.50167
C    -0.83135   1.35726   2.87538
H     5.77896   0.93305  -0.36325
H     5.81760   1.34546  -2.18614
H     2.42303   0.74569  -2.80917
H     2.50746   2.46821  -2.42476
H     3.80121   1.71654  -3.39816
H     3.71608   0.73792   0.82746
H     1.19693   1.28567  -0.84690
H     1.65820   0.69941   2.16826
H     1.85922  -1.56994   0.95629
H     0.63032  -2.64862   2.88303
H    -0.28388  -1.14943   3.14249
H     1.48880  -1.15328   3.31201
H    -0.32209  -2.40091  -1.62097
H     1.26261  -1.61107  -1.37689
H     0.90991  -3.17938  -0.60395
H    -2.11091  -2.51943   3.26207
H    -3.01936  -3.22255   1.91388
H    -1.24049  -3.24730   1.86695
H    -0.05096   0.00312  -1.86664
H    -1.00671   0.89825  -3.92029
H    -3.49165   1.04865  -4.21304
H    -4.97552   0.23153  -2.36847
H    -4.01988  -0.69749  -0.31385
H    -0.72613   3.19352   0.71135
H    -0.73050   1.94090  -0.54411
H    -2.07601   2.04511   0.61618
H    -0.17371   0.92305   3.63819
H    -1.82371   0.87460   2.93526
H    -0.99666   2.41969   3.13369
