58
Generated by autodE on: 2022-12-30. E = -1450.774922 Ha
C     3.20653  -3.15723  -1.56029
N     2.84162  -2.09237  -0.65033
C     2.11673  -2.33561   0.46637
O     1.76157  -3.48636   0.77541
C     1.78702  -1.17390   1.30222
C     2.26076   0.09955   1.27974
O     3.09509   0.62476   0.38558
C     3.53875   1.97841   0.56290
C     1.51635   0.83945   2.39186
O     1.30297  -0.20713   3.33898
C     0.74388  -1.16445   2.40731
C    -0.52459  -0.35952   1.96453
C     0.06277   1.06747   1.84701
N    -0.02983   1.39710   0.43239
C    -0.21068   2.67995  -0.05727
C     0.04005   3.80012   0.76742
C    -0.13164   5.09309   0.27119
C    -0.54399   5.31322  -1.04732
C    -0.77259   4.20564  -1.87118
C    -0.60297   2.90540  -1.39521
N    -0.42925   0.28528  -0.34250
C    -1.16321  -0.60124   0.57625
C    -2.65489  -0.16444   0.64433
O    -3.37625  -0.52926   1.57851
N    -3.07018   0.57952  -0.38660
C    -4.42581   1.06215  -0.53848
C    -1.15245  -2.04436   0.09833
C    -0.82793  -2.37373  -1.22507
C    -0.81365  -3.70940  -1.63781
C    -1.14615  -4.72724  -0.74090
C    -1.50448  -4.40105   0.57091
C    -1.50953  -3.06924   0.98714
H     2.31633  -3.61608  -2.02277
H     3.84187  -2.74547  -2.35430
H     3.76197  -3.95412  -1.04100
H     3.09096  -1.13332  -0.87020
H     4.20551   2.19087  -0.28088
H     4.09141   2.08384   1.50807
H     2.68534   2.67164   0.54219
H     2.00165   1.70995   2.84253
H     0.54472  -2.12284   2.89429
H    -1.27608  -0.43173   2.75638
H    -0.46694   1.80523   2.46265
H     0.38196   3.66176   1.79333
H     0.06659   5.94169   0.93115
H    -0.67397   6.32818  -1.42842
H    -1.08349   4.35120  -2.90916
H    -0.76282   2.05408  -2.05550
H     0.40898  -0.19782  -0.66990
H    -2.35981   0.82068  -1.07386
H    -4.92875   1.04814   0.43697
H    -5.00549   0.43636  -1.23757
H    -4.41394   2.09210  -0.92204
H    -0.57784  -1.59241  -1.94352
H    -0.54319  -3.95150  -2.66817
H    -1.13039  -5.77090  -1.06321
H    -1.77321  -5.18908   1.27817
H    -1.78535  -2.82492   2.01348
