34
Generated by autodE on: 2022-12-30. E = -820.473174 Ha
C    -2.68789   3.95392   0.05152
N    -2.35474   2.54572  -0.02471
C    -1.07685   2.12659  -0.08921
O    -0.12040   2.92917  -0.08212
C    -0.82186   0.66778  -0.12653
N     0.47717   0.40075  -0.00546
N     1.06745  -0.75153  -0.03931
C     2.43838  -0.74000   0.19199
C     3.17655   0.34103   0.72978
C     4.55483   0.22916   0.91543
C     5.23120  -0.95160   0.58869
C     4.50522  -2.03344   0.07381
C     3.12999  -1.93241  -0.11903
C    -1.83812  -0.38681  -0.24180
C    -1.80650  -1.51804   0.59919
C    -2.78490  -2.50561   0.49581
C    -3.80944  -2.39161  -0.45128
C    -3.84712  -1.27954  -1.29660
C    -2.87069  -0.28636  -1.19587
H    -3.77595   4.06488  -0.03036
H    -2.21023   4.51423  -0.76644
H    -2.35737   4.39977   1.00447
H    -3.10080   1.86124   0.02657
H     1.02240   1.28094   0.07897
H     2.68260   1.26697   1.03278
H     5.10520   1.07510   1.33505
H     6.30942  -1.03122   0.74296
H     5.01734  -2.96493  -0.18022
H     2.55737  -2.76974  -0.52328
H    -1.01255  -1.61601   1.33940
H    -2.74965  -3.37132   1.16146
H    -4.57267  -3.16912  -0.53128
H    -4.63611  -1.18541  -2.04633
H    -2.89870   0.56746  -1.87497
