24
Generated by autodE on: 2022-12-30. E = -630.223218 Ha
C     3.77832  -0.63382   0.24400
N     2.42424  -0.15928   0.05649
C     1.38678  -1.01602  -0.10774
O     1.55597  -2.25106  -0.12494
C     0.06335  -0.42402  -0.26943
C    -0.37949   0.85136  -0.14166
O     0.34192   1.93577   0.12322
C    -0.31803   3.20797   0.19538
C    -1.92614   0.77016  -0.25141
C    -2.41363   0.07840   1.04244
C    -1.99248  -1.18466   0.92712
C    -1.23668  -1.23804  -0.42070
O    -2.03343  -0.30742  -1.19112
H     4.45208   0.22948   0.31128
H     3.88039  -1.23043   1.16620
H     4.10265  -1.26636  -0.59802
H     2.23147   0.83617   0.10002
H     0.45553   3.93543   0.46775
H    -0.75051   3.47496  -0.78032
H    -1.10145   3.19570   0.96749
H    -2.45566   1.66930  -0.58073
H    -2.93053   0.57675   1.86133
H    -2.07649  -2.01219   1.63101
H    -1.14310  -2.21235  -0.91058
