61
Generated by autodE on: 2022-06-12. E = -2379.131779 Ha
C    -3.02920  -8.70541   5.21922
O    -3.40913  -9.64283   4.19833
C    -2.43981 -10.37522   3.66799
O    -1.28083 -10.32418   4.02047
C    -2.94117 -11.35075   2.57925
C    -4.43907 -11.25039   2.28707
O    -2.68688 -12.64482   3.14739
C    -1.96703 -13.46968   2.25057
C    -2.98589 -14.57047   1.85941
O    -3.11607 -15.61983   2.44679
O    -3.80113 -14.14460   0.90364
C    -4.86674 -15.02040   0.51115
C    -0.75545 -14.07940   2.99335
O    -0.34345 -15.20469   2.83895
O    -0.21123 -13.18182   3.80441
C     0.98695 -13.57161   4.49125
C    -1.53695 -12.53019   1.11663
C    -2.05307 -11.29736   1.33197
C    -1.96217 -10.02211   0.48462
C    -2.48289  -8.75456   1.21976
C    -0.49925  -9.63514   0.18572
C     0.49240  -9.86804   1.15068
C     1.80622  -9.43724   0.95245
C     2.15589  -8.75163  -0.21317
C     1.17105  -8.48957  -1.17045
C    -0.14290  -8.91934  -0.96826
C    -2.89832 -10.20795  -0.75967
C    -3.00925 -11.57538  -1.43806
C    -1.76895 -12.13765  -2.13270
C    -0.49979 -12.30525  -1.29527
C    -0.62135 -13.04556   0.02800
Cl   -1.06003 -14.78438  -0.37721
Cl    1.09443 -13.11795   0.72645
H    -2.31750  -7.97312   4.81161
H    -3.95440  -8.20730   5.52959
H    -2.57143  -9.23131   6.06865
H    -4.73775 -10.25458   1.94408
H    -4.70347 -11.98742   1.51998
H    -4.99296 -11.48086   3.20737
H    -5.42336 -14.48494  -0.26594
H    -5.51801 -15.24032   1.36867
H    -4.45399 -15.95669   0.10857
H     0.79698 -14.44862   5.12588
H     1.27323 -12.70972   5.10412
H     1.77924 -13.80591   3.76575
H    -1.85005  -8.48965   2.07645
H    -2.43124  -7.91548   0.51165
H    -3.52471  -8.84120   1.54655
H     0.23803 -10.40017   2.06709
H     2.56072  -9.64585   1.71487
H     3.18436  -8.41942  -0.37304
H     1.42451  -7.94756  -2.08484
H    -0.88719  -8.70373  -1.73479
H    -2.64165  -9.43970  -1.50278
H    -3.90991  -9.95102  -0.41170
H    -3.39332 -12.31356  -0.72030
H    -3.79605 -11.48033  -2.20467
H    -1.49162 -11.48316  -2.97602
H    -2.03585 -13.11229  -2.57151
H     0.24671 -12.85570  -1.88491
H    -0.05181 -11.33381  -1.07806
