33
Generated by autodE on: 2022-06-12. E = -1501.897067 Ha
C    -1.93897   2.44715  -0.52819
C    -0.89178   1.53077   0.13531
C     0.38533   2.31313   0.47845
C     1.65498   1.90230   0.05036
C     2.79978   2.62875   0.39723
C     2.69320   3.77889   1.18155
C     1.43078   4.19659   1.61718
C     0.29004   3.47093   1.26874
C    -0.59907   0.36879  -0.70228
C    -0.40141  -0.77382  -1.05779
C    -0.23658  -2.18762  -0.82195
Cl   -1.75241  -3.07598  -1.34780
Cl    1.16008  -2.87031  -1.78070
C     0.01094  -2.42266   0.67748
C    -0.97904  -1.72567   1.63207
C    -0.68611  -0.26393   2.07472
C    -1.49612   0.88018   1.43098
H    -2.82377   1.86307  -0.82152
H    -2.26296   3.23088   0.17080
H    -1.52224   2.92893  -1.42493
H     1.75495   1.00359  -0.56035
H     3.77885   2.28888   0.05070
H     3.58612   4.34668   1.45362
H     1.33261   5.09385   2.23313
H    -0.68498   3.81136   1.62265
H    -0.00136  -3.51066   0.84002
H     1.03472  -2.07234   0.88264
H    -0.98310  -2.34395   2.54255
H    -1.99974  -1.80256   1.22234
H     0.39335  -0.05444   1.98305
H    -0.89890  -0.21628   3.15369
H    -2.50800   0.52065   1.18327
H    -1.62191   1.69493   2.16055
