28
Generated by autodE on: 2022-06-12. E = -877.108062 Ha
C    -3.69092  -1.94221   1.69670
O    -2.49657  -1.55396   1.01446
C    -2.15956  -0.24387   1.09777
O    -2.82145   0.56066   1.74354
C    -0.95043   0.06229   0.37012
O    -0.45536  -1.00373  -0.34948
C     0.70009  -1.24513  -0.82047
C     0.85833  -2.44024  -1.66775
C     1.90335  -0.44899  -0.38633
O     2.08035  -0.14570   0.77291
O     2.74924  -0.26073  -1.38105
C     3.97381   0.43345  -1.06661
C    -0.45847   1.40439   0.16972
O    -0.78814   2.39051   0.81376
O     0.39128   1.48315  -0.88260
C     1.01224   2.74677  -1.13510
H    -3.61050  -1.74153   2.77565
H    -3.80099  -3.01986   1.52454
H    -4.56612  -1.40819   1.29676
H     1.11241  -2.11877  -2.69415
H    -0.06858  -3.02698  -1.68225
H     1.70511  -3.04945  -1.31083
H     4.50503   0.54437  -2.01770
H     4.56841  -0.15971  -0.35814
H     3.74647   1.41692  -0.63310
H     1.57045   3.08503  -0.25025
H     1.69753   2.58143  -1.97454
H     0.25982   3.50209  -1.40424
