61
Generated by autodE on: 2022-06-12. E = -2379.008221 Ha. Imaginary frequency = -277.8 cm-1
C    -2.46214  -7.67436   3.93396
O    -2.90969  -8.88267   3.30286
C    -2.13935  -9.96044   3.45497
O    -1.08479  -9.96282   4.05843
C    -2.74961 -11.18268   2.83459
C    -4.20772 -11.23705   2.53247
O    -2.00189 -12.20840   3.13756
C    -1.89484 -13.47485   2.78695
C    -3.04184 -14.43383   2.79811
O    -3.01184 -15.48149   3.41442
O    -4.09330 -14.02712   2.09836
C    -5.24994 -14.87130   2.10910
C    -0.52756 -13.99761   3.01581
O    -0.20877 -15.17041   2.96500
O     0.35039 -13.00355   3.21544
C     1.72843 -13.37617   3.31253
C    -1.76210 -12.76581   0.43578
C    -1.84980 -11.53090   0.47335
C    -1.63786 -10.16462  -0.06080
C    -2.95964  -9.38121  -0.13555
C    -0.55867  -9.44829   0.76644
C     0.53989 -10.17699   1.25286
C     1.55757  -9.54839   1.96946
C     1.50484  -8.16961   2.20247
C     0.42848  -7.43245   1.70515
C    -0.59748  -8.06756   0.99477
C    -1.04363 -10.34164  -1.49845
C    -1.84732 -11.19786  -2.49174
C    -1.33266 -12.62813  -2.73056
C    -1.86840 -13.77069  -1.86429
C    -1.38860 -13.89886  -0.41133
Cl   -2.02781 -15.51292   0.17417
Cl    0.45182 -14.03549  -0.37280
H    -1.45122  -7.41450   3.59537
H    -2.46462  -7.79972   5.02655
H    -3.17659  -6.89829   3.63773
H    -4.58806 -10.21876   2.41268
H    -4.42889 -11.82377   1.63725
H    -4.73480 -11.70721   3.38147
H    -6.01876 -14.33376   1.54246
H    -5.58898 -15.05203   3.13894
H    -5.01977 -15.83035   1.62247
H     1.88846 -14.06310   4.15629
H     2.06176 -13.85793   2.38177
H     2.28048 -12.44298   3.47425
H    -3.30484  -9.07845   0.85935
H    -2.82773  -8.47563  -0.74415
H    -3.74287  -9.99230  -0.60412
H     0.59252 -11.25283   1.08069
H     2.39381 -10.13971   2.35084
H     2.29877  -7.67427   2.76631
H     0.37620  -6.35454   1.87638
H    -1.43366  -7.47146   0.62930
H    -0.02995 -10.75774  -1.39761
H    -0.92096  -9.32035  -1.89211
H    -2.91391 -11.22615  -2.21502
H    -1.81162 -10.68338  -3.46438
H    -0.23065 -12.63757  -2.70879
H    -1.61106 -12.91251  -3.75786
H    -2.96801 -13.72072  -1.81052
H    -1.61347 -14.72212  -2.35311
