46
Generated by autodE on: 2022-06-20. E = -960.740384 Ha
C    -1.51218   2.56708  -2.08836
C    -1.90461   1.67425  -1.17204
C    -3.25482   1.01409  -1.19628
C    -1.02199   1.24628  -0.01800
C    -0.63869  -0.25942  -0.07134
C    -1.53823  -1.16797   0.70590
C    -1.87344  -2.43120   0.38401
C    -2.73182  -3.26069   1.30074
C    -1.42498  -3.13616  -0.86760
C     0.82124  -0.25446   0.45241
C     1.57706  -1.49388   0.05895
C     1.69307  -2.55084   0.97193
C     2.28042  -3.76081   0.59040
C     2.76672  -3.92365  -0.71035
C     2.66525  -2.86834  -1.62409
C     2.07102  -1.66327  -1.24315
N     1.34391   0.97844  -0.15144
N     0.28057   1.91501   0.04377
C     0.53657   3.07703   0.68246
O     1.66270   3.46071   0.99178
O    -0.59135   3.77913   0.90957
C    -0.42790   5.04884   1.54731
H    -0.52654   3.03638  -2.04595
H    -2.17285   2.85188  -2.91235
H    -3.16162  -0.07497  -1.34265
H    -3.88636   1.41958  -1.99951
H    -3.77595   1.15265  -0.23360
H    -1.56209   1.44999   0.92123
H    -0.59431  -0.55934  -1.12725
H    -1.89900  -0.76368   1.65918
H    -3.01614  -2.71305   2.21147
H    -2.20240  -4.18266   1.59984
H    -3.65312  -3.58685   0.78654
H    -0.91936  -2.47625  -1.58384
H    -2.28477  -3.60846  -1.37284
H    -0.72415  -3.95101  -0.61397
H     0.78907  -0.18008   1.55518
H     1.30952  -2.42514   1.98733
H     2.35942  -4.57787   1.31167
H     3.22694  -4.86804  -1.01080
H     3.04688  -2.98752  -2.64118
H     1.98180  -0.84311  -1.95744
H     2.14313   1.33996   0.37439
H    -1.43625   5.46923   1.64218
H     0.02487   4.93281   2.54310
H     0.19992   5.71481   0.93709
