23
Generated by autodE on: 2022-06-20. E = -609.193309 Ha
C     4.67948  -0.26641  -0.78399
O     3.26147  -0.42970  -0.77837
C     2.57045   0.37094   0.06386
O     3.12301   1.20273   0.79231
N     1.24046   0.11622  -0.02604
N     0.56567   0.91610   0.80866
C    -0.72376   0.96946   1.00410
C    -1.76093   0.18227   0.37328
C    -3.09009   0.45145   0.77512
C    -4.15597  -0.25305   0.22357
C    -3.91747  -1.24082  -0.73990
C    -2.60734  -1.51710  -1.14608
C    -1.53211  -0.81713  -0.60020
H     5.10665  -0.47735   0.20837
H     5.06623  -0.98751  -1.51487
H     4.95951   0.75475  -1.08492
H     1.15282   1.56651   1.35732
H    -1.02273   1.71402   1.74368
H    -3.27287   1.22293   1.52677
H    -5.17695  -0.03375   0.54358
H    -4.75330  -1.79457  -1.17377
H    -2.42105  -2.28767  -1.89766
H    -0.51163  -1.02646  -0.91186
