48
Generated by autodE on: 2022-06-01. E = -1301.808009 Ha. Imaginary frequency = -411.0 cm-1
C     0.93345   2.72445   4.39168
N     0.29556   2.62484   3.09273
C     0.82526   1.91263   2.09564
O     1.91509   1.33391   2.14832
C     0.00669   1.86883   0.79260
F    -1.26702   2.42032   1.03001
C     0.67885   2.72073  -0.29702
C     0.14544   2.45039  -1.71474
C     1.09747   1.64799  -2.61634
C     1.73820   0.37173  -2.05711
C     0.77742  -0.80703  -1.67796
C     1.68580  -2.04369  -1.45167
C     2.63552  -1.97298  -0.28448
O     1.66098  -3.00200  -2.19883
C    -0.23185  -1.03810  -2.81737
C     0.27857  -1.38493  -4.18876
O    -1.42521  -0.91308  -2.60376
C     0.04998  -0.48803  -0.41121
C    -0.15200   0.47177   0.36986
N    -1.10078  -0.52120   2.10918
N    -0.57229  -1.72436   1.79142
C    -0.99610  -2.06668   0.54441
C    -0.78573  -3.40318  -0.06393
O    -2.24710  -1.50724   0.44126
C    -2.28071  -0.47323   1.38224
O    -3.22281   0.27581   1.47755
H     2.00456   2.94055   4.27401
H     0.46439   3.53688   4.95977
H     0.83244   1.78703   4.96336
H    -0.63776   3.00091   2.96049
H     1.76325   2.54793  -0.24147
H     0.51057   3.76552   0.00532
H    -0.04088   3.41296  -2.21485
H    -0.83483   1.95337  -1.65372
H     1.94128   2.30434  -2.88923
H     0.57909   1.42266  -3.56283
H     2.32609   0.60626  -1.15868
H     2.45371  -0.00336  -2.80483
H     2.27739  -1.31909   0.52128
H     3.58843  -1.55727  -0.65414
H     2.83300  -2.98685   0.08868
H     0.17854  -2.47432  -4.31588
H     1.33211  -1.12465  -4.34287
H    -0.35702  -0.89318  -4.93888
H     0.38724  -1.90566   2.08657
H     0.22622  -3.76420   0.15570
H    -1.51714  -4.10526   0.36700
H    -0.93990  -3.36272  -1.14838
