26
Generated by autodE on: 2022-06-05. E = -760.748380 Ha
C     5.37277   0.23324  -0.29564
N     4.00615  -0.17675  -0.04535
C     2.93937   0.56031  -0.39846
O     2.97075   1.65663  -0.97189
C     1.63232  -0.02273  -0.05233
N     0.47188   0.54898  -0.30590
C    -0.57539  -0.22847   0.14108
C    -1.97916   0.11620   0.01009
C    -2.97249  -0.75970   0.50164
C    -4.32414  -0.43962   0.37919
C    -4.72170   0.75438  -0.23202
C    -3.74573   1.62930  -0.72158
C    -2.39137   1.31850  -0.60448
C     0.01292  -1.38367   0.72334
O    -0.39167  -2.39796   1.26887
O     1.43320  -1.18300   0.56248
H     5.92576   0.35124   0.64926
H     5.89601  -0.51179  -0.91454
H     5.36480   1.19302  -0.82468
H     3.84251  -1.06214   0.42586
H     0.40698   1.45414  -0.77392
H    -2.67225  -1.69189   0.97950
H    -5.07516  -1.13253   0.76645
H    -5.78151   1.00131  -0.32612
H    -4.04024   2.56572  -1.20143
H    -1.65453   2.02236  -0.99750
