38
Generated by autodE on: 2022-10-13. E = -1010.054881 Ha
C     0.64397  -2.49787  -1.40666
N     0.01843  -1.35950  -0.76602
C     0.51250  -0.90564   0.55531
C     0.97065  -2.06576   1.44811
C     1.62912   0.13079   0.35047
C     2.43354   0.53859   1.42744
C     3.38052   1.55366   1.26841
C     3.54997   2.17364   0.02672
C     2.76838   1.76178  -1.05504
C     1.81716   0.74980  -0.89295
C    -0.78189  -0.26368   1.19168
C    -0.51151   0.90178   2.11609
O    -0.25939   0.72523   3.29892
C    -0.53506   2.25740   1.53103
C    -0.89963   2.47947   0.25386
C    -1.33353   1.39891  -0.65871
O    -1.46525   1.60416  -1.85254
C    -1.67286   0.06319  -0.00956
C    -1.40285  -1.17035  -0.90967
C    -2.19259  -2.33518  -0.38767
N    -2.71223  -3.27385   0.05297
C    -1.79181  -1.03165  -2.33457
N    -2.08307  -1.07375  -3.45551
H     1.73527  -2.38139  -1.35594
H     0.37166  -3.46722  -0.94871
H     0.36281  -2.52632  -2.47010
H     0.20062  -2.85031   1.46604
H     1.91708  -2.49723   1.09436
H     1.11318  -1.71425   2.47887
H     2.31469   0.07854   2.40832
H     3.99011   1.85962   2.12200
H     4.28937   2.96843  -0.09635
H     2.89458   2.23098  -2.03378
H     1.20600   0.43775  -1.73887
H    -1.26664  -1.03663   1.80116
H    -0.22316   3.07297   2.18792
H    -0.87138   3.47973  -0.18502
H    -2.73388   0.12505   0.27871
