26
Generated by autodE on: 2022-10-15. E = -628.385264 Ha
C    -0.08451  -0.93447   1.82014
C     0.16493  -0.28575   0.50494
C     1.24533   0.71373   0.39980
C     2.52480   0.42248   0.90845
C     3.54401   1.37118   0.83158
C     3.29271   2.62991   0.27573
C     2.01708   2.93548  -0.20969
C     0.99930   1.98381  -0.15557
N    -0.59230  -0.57285  -0.53799
C    -0.22642  -0.19341  -1.91468
C    -1.83399  -1.25442  -0.40311
C    -2.72002  -0.90228   0.62373
N    -3.45632  -0.59636   1.48335
C    -2.22816  -2.19258  -1.36967
N    -2.57584  -2.97886  -2.16673
H    -0.83243  -0.36934   2.40313
H    -0.47233  -1.95600   1.69048
H     0.84134  -0.94661   2.40876
H     2.72717  -0.55825   1.34278
H     4.53867   1.12722   1.21088
H     4.09010   3.37485   0.22561
H     1.81178   3.92192  -0.63110
H     0.00356   2.23227  -0.52559
H     0.84051   0.03625  -1.97406
H    -0.44452  -1.04859  -2.56690
H    -0.82681   0.66545  -2.24115
