12
Generated by autodE on: 2022-10-13. E = -381.636092 Ha
O     2.64358  -0.32892   0.11775
C     1.42743  -0.17748   0.06338
C     0.81894   1.17412   0.11482
C    -0.51390   1.33983   0.05525
C    -1.42743   0.17748  -0.06335
O    -2.64358   0.32892  -0.11776
C    -0.81894  -1.17412  -0.11482
C     0.51390  -1.33983  -0.05525
H     1.51136   2.01475   0.20214
H    -0.98457   2.32515   0.09031
H    -1.51136  -2.01475  -0.20216
H     0.98458  -2.32515  -0.09033
