21
Generated by autodE on: 2022-06-17. E = -516.627737 Ha
C     1.98008   1.57803   1.81675
N     1.48212   0.80419   1.06202
C     0.92111   0.06155   0.13246
C     1.85341  -0.66012  -0.74443
C     3.33216  -0.46296  -0.48959
O     1.47149  -1.39943  -1.65486
C    -0.55502   0.04686   0.06529
C    -1.30959   0.81455   0.98008
C    -2.70273   0.82807   0.93127
C    -3.38645   0.07338  -0.02788
C    -2.65233  -0.69329  -0.93671
C    -1.25652  -0.71100  -0.89639
H     2.33451   1.52466   2.85208
H     3.89755  -1.03100  -1.23888
H     3.60667   0.60262  -0.55059
H     3.60791  -0.81121   0.51858
H    -0.80320   1.40987   1.74190
H    -3.25820   1.43278   1.65235
H    -4.47823   0.08239  -0.06406
H    -3.16994  -1.28951  -1.69248
H    -0.69687  -1.30972  -1.60961
