18
Generated by autodE on: 2022-06-17. E = -235.968071 Ha
C    -1.74127  -0.91050   0.15807
C    -0.66198   0.11836  -0.07923
C    -1.23981   1.44369  -0.51446
C     0.66200  -0.11842   0.07909
C     1.74121   0.91062  -0.15774
C     1.23985  -1.44378   0.51420
H    -1.36957  -1.89086   0.47911
H    -2.33732  -1.05984  -0.76017
H    -2.45147  -0.55140   0.92449
H    -1.93869   1.82736   0.25052
H    -1.83829   1.31737  -1.43453
H    -0.49219   2.22271  -0.70567
H     2.33638   1.06048   0.76099
H     1.36950   1.89077  -0.47944
H     2.45222   0.55147  -0.92339
H     1.93955  -1.82677  -0.25036
H     1.83743  -1.31786   1.43493
H     0.49229  -2.22314   0.70425
