39
Generated by autodE on: 2022-06-17. E = -752.595246 Ha. Imaginary frequency = -331.4 cm-1
C    -0.45126  -0.97590  -3.02157
C     0.48016  -0.19339  -2.11594
O     1.06775   0.80960  -2.56414
C     0.62253  -0.64406  -0.74859
C     1.59023  -0.17314   0.24499
C     1.63661  -0.77290   1.52558
C     2.51165  -0.31272   2.50858
C     3.37043   0.76107   2.24979
C     3.33872   1.36234   0.98755
C     2.46700   0.90751  -0.00314
N    -0.19696  -1.65139  -0.37576
C    -1.27877  -1.95317   0.03928
C    -2.58805  -0.21484   0.45776
C    -2.73064  -0.57230   1.92809
C    -3.73780  -0.69633  -0.40880
C    -1.83362   0.89169   0.08847
C    -2.02248   1.60861  -1.21882
C    -0.98004   1.62158   1.08751
H    -0.43280  -0.52046  -4.01992
H    -1.48444  -0.96659  -2.64265
H    -0.14321  -2.03099  -3.09327
H     0.97862  -1.61298   1.75399
H     2.52161  -0.79945   3.48715
H     4.05462   1.12282   3.02073
H     4.00190   2.20285   0.76664
H     2.44507   1.38798  -0.97732
H    -1.81997  -2.88126   0.24829
H    -1.78289  -0.50376   2.47931
H    -3.44730   0.11302   2.41712
H    -3.12229  -1.59366   2.05331
H    -4.03825  -1.71887  -0.13184
H    -3.49741  -0.69543  -1.48086
H    -4.62315  -0.05026  -0.26676
H    -2.48971   0.99246  -1.99641
H    -1.06923   1.99710  -1.60968
H    -2.67852   2.48761  -1.06320
H    -0.48591   0.95161   1.80424
H    -0.20116   2.21709   0.58888
H    -1.60028   2.32355   1.67853
