24
Generated by autodE on: 2022-06-01. E = -721.577489 Ha
C    -3.77850   2.37590  -0.19865
N    -3.03777   1.13561  -0.28066
C    -1.70800   1.09590  -0.08694
O    -1.02403   2.09959   0.16734
C    -1.07931  -0.24927  -0.19674
N     0.22876  -0.26519  -0.00806
C     1.38476  -0.23709   0.16478
C     2.80726  -0.38559   0.35753
O     3.33965  -1.47353   0.28436
O     3.38588   0.77828   0.60678
C     4.81341   0.75324   0.81786
C    -1.74634  -1.51387  -0.48373
C    -0.89098  -2.75457  -0.54756
O    -2.96898  -1.57095  -0.66995
H    -3.69870   2.83039   0.80260
H    -3.41144   3.11412  -0.93006
H    -4.83599   2.17193  -0.40707
H    -3.49886   0.24656  -0.47906
H     5.10140   1.79403   0.99932
H     5.31908   0.36176  -0.07563
H     5.05404   0.12787   1.68871
H    -1.52591  -3.61951  -0.77632
H    -0.37338  -2.91948   0.41121
H    -0.11385  -2.65142  -1.32195
