20
Generated by autodE on: 2022-05-25. E = -552.779230 Ha
C     3.19703  -1.01674   0.93889
O     1.80045  -0.80529   0.71722
C     1.47593   0.19555  -0.13300
O     2.32083   0.89663  -0.68671
C     0.06036   0.35832  -0.31570
C    -0.42826   1.32502  -1.20389
N    -0.76578   2.14487  -1.96986
O    -0.73202  -0.53695   0.37292
C    -1.99118  -0.64113   0.54155
C    -2.95918   0.31186  -0.03746
C    -2.42045  -1.78775   1.36857
H     3.26807  -1.85560   1.64207
H     3.71173  -1.27103   0.00011
H     3.66690  -0.12233   1.37495
H    -2.69444   1.34311   0.24872
H    -3.97220   0.07800   0.30988
H    -2.93313   0.26073  -1.13889
H    -3.11035  -2.41890   0.78153
H    -3.00012  -1.41508   2.23088
H    -1.56206  -2.37834   1.71063
