39
Generated by autodE on: 2022-06-17. E = -677.556078 Ha. Imaginary frequency = -394.2 cm-1
C    -1.58865   3.93729  -0.88556
C    -1.18852   2.54824  -1.33598
O    -0.00955   2.32652  -1.66500
C    -2.23814   1.54235  -1.35867
C    -3.68746   1.94656  -1.32097
C    -1.59624   0.94346   0.79973
C    -0.93908  -0.28585   0.63371
C    -1.74239  -1.55764   0.83030
C     0.51104  -0.32820   0.83782
C     1.26588  -1.42464   1.09990
C     2.70648  -1.37522   1.27039
C     3.54654  -2.40802   1.52976
C     3.10579  -3.83667   1.69235
C     5.02695  -2.18481   1.67426
C    -0.84582  -0.39211  -1.62844
N    -1.97940   0.28935  -1.85846
H    -0.68467   4.54993  -0.77089
H    -2.24788   4.40656  -1.63466
H    -2.14306   3.91539   0.06467
H    -4.33429   1.05808  -1.25735
H    -3.90217   2.56878  -0.44101
H    -3.98898   2.52491  -2.21200
H    -1.02062   1.82811   1.08016
H    -2.65326   0.96244   1.07279
H    -2.76269  -1.43552   0.43550
H    -1.82968  -1.80790   1.90342
H    -1.29054  -2.42668   0.32983
H     1.02024   0.64016   0.75095
H     0.77328  -2.39722   1.18727
H     3.15453  -0.37800   1.17237
H     2.02224  -3.97720   1.58318
H     3.40157  -4.22255   2.68457
H     3.60983  -4.48368   0.95188
H     5.38355  -2.51876   2.66595
H     5.30144  -1.12676   1.54783
H     5.59159  -2.77964   0.93298
H     0.08908   0.15060  -1.67770
H    -0.85996  -1.45132  -1.88942
H    -2.81187  -0.28853  -1.96648
