38
Generated by autodE on: 2022-06-18. E = -901.786981 Ha
C    -2.39485   1.85895  -2.58663
O    -1.88577   0.90339  -1.64389
C    -1.49579   1.37288  -0.45929
O    -1.55854   2.54482  -0.15021
C    -0.92299   0.25794   0.43634
C    -1.91889  -0.88739   0.52031
C    -3.22598  -0.61948   0.95699
C    -4.15624  -1.65194   1.08785
C    -3.79025  -2.96879   0.78582
C    -2.49013  -3.24057   0.35229
C    -1.55857  -2.20482   0.21924
C    -0.53538   0.81802   1.82666
C     0.91866   1.25709   1.63189
C     1.32739   0.43230   0.42895
C     2.72962   0.30074  -0.01274
C     3.05786  -0.47806  -1.13948
C     4.38140  -0.59793  -1.55656
C     5.40166   0.06152  -0.85875
C     5.08777   0.84073   0.25776
C     3.76130   0.95929   0.67991
N     0.35396  -0.12491  -0.20306
H    -2.65621   1.28739  -3.48455
H    -1.62783   2.61056  -2.82287
H    -3.28583   2.35962  -2.18125
H    -3.51853   0.40707   1.19460
H    -5.17084  -1.42851   1.42645
H    -4.51714  -3.77814   0.88763
H    -2.19566  -4.26563   0.11383
H    -0.54562  -2.41777  -0.12268
H    -1.20548   1.62088   2.15495
H    -0.58813  -0.00113   2.55704
H     1.55554   1.07024   2.50756
H     1.01005   2.32764   1.38242
H     2.26028  -0.98561  -1.68277
H     4.62239  -1.20668  -2.43115
H     6.43933  -0.03239  -1.18757
H     5.87853   1.35937   0.80446
H     3.53093   1.57187   1.55266
