32
Generated by autodE on: 2022-06-18. E = -823.066749 Ha
C    -0.87711   3.86492   1.33004
O    -0.57198   2.54685   0.87480
C    -1.61747   1.67720   0.79776
O    -2.75684   2.02037   1.10574
C    -1.21008   0.37244   0.32799
N     0.09864   0.23504   0.05686
C     1.23546   0.11650  -0.17761
C     2.61367  -0.00855  -0.45359
C     3.46920   1.09414  -0.23129
C     4.82780   0.96486  -0.50552
C     5.34247  -0.24190  -0.99464
C     4.49077  -1.33158  -1.21288
C     3.12805  -1.22805  -0.94772
C    -2.07591  -0.79177   0.11834
C    -1.53206  -2.00683  -0.36218
C    -2.33669  -3.12588  -0.57246
C    -3.71024  -3.07667  -0.31154
C    -4.26171  -1.88325   0.16524
C    -3.46550  -0.75722   0.37902
H     0.07154   4.41574   1.32314
H    -1.59939   4.35744   0.66143
H    -1.28985   3.84583   2.35017
H     3.05759   2.02939   0.15084
H     5.49202   1.81471  -0.33507
H     6.40985  -0.33345  -1.20626
H     4.89215  -2.27272  -1.59441
H     2.45661  -2.07139  -1.11542
H    -0.46431  -2.08052  -0.57668
H    -1.88182  -4.04716  -0.94540
H    -4.33949  -3.95403  -0.47711
H    -5.33264  -1.82262   0.37651
H    -3.91355   0.16107   0.75026
