44
Generated by autodE on: 2022-10-21. E = -1108.821748 Ha
C    -1.89094   3.83457  -2.04296
N    -1.11736   2.71198  -1.56055
C    -1.02509   2.36040  -0.27029
O    -1.56300   2.96088   0.67096
C    -0.20183   1.13210  -0.00113
N     0.36051   0.46315  -0.93461
C     1.08841  -0.68660  -0.35860
C     2.57080  -0.56549  -0.64708
C     3.25347  -1.59495  -1.30672
C     4.62746  -1.49677  -1.55176
C     5.33253  -0.36218  -1.14147
C     4.65719   0.67258  -0.48315
C     3.28659   0.57058  -0.23737
C     0.74662  -0.70805   1.15502
C    -0.27709  -1.78658   1.64542
O    -0.86592  -1.10166   2.76437
C    -1.39210   0.00094   2.01736
C    -2.15059  -0.70940   0.89585
O    -3.10094  -0.12411   0.11840
C    -4.09212   0.64231   0.80415
C    -1.43953  -1.83636   0.66842
O    -1.46291  -2.80073  -0.27628
C    -2.42228  -2.66465  -1.32513
C    -0.07070   0.58929   1.39088
H    -2.31609   4.36831  -1.18479
H    -1.25882   4.52942  -2.61731
H    -2.71378   3.49764  -2.69356
H    -0.63000   2.11419  -2.22284
H     0.72386  -1.59409  -0.86048
H     2.70242  -2.48215  -1.62950
H     5.14657  -2.30879  -2.06678
H     6.40509  -0.28211  -1.33409
H     5.20220   1.56304  -0.16034
H     2.76580   1.38201   0.27751
H     1.64537  -0.75664   1.78061
H     0.15358  -2.75192   1.93500
H    -1.95497   0.69064   2.65309
H    -4.85354   0.90697   0.05855
H    -4.55919   0.05399   1.61107
H    -3.66061   1.56658   1.21879
H    -2.28652  -3.53041  -1.98608
H    -2.25399  -1.73668  -1.89250
H    -3.44742  -2.66652  -0.92296
H     0.38639   1.30929   2.08305
