44
Generated by autodE on: 2022-10-21. E = -1108.694026 Ha. Imaginary frequency = -317.6 cm-1
C    -2.64770   3.91836  -1.25372
N    -1.99563   2.66533  -0.92984
C    -0.66476   2.56601  -0.81749
O     0.13905   3.49789  -0.96542
C    -0.16711   1.24354  -0.39052
N     0.40853   0.35184  -0.98715
C     1.12191  -0.74518  -0.91423
C     2.57740  -0.67803  -0.85729
C     3.32390  -1.87299  -0.87836
C     4.71310  -1.84169  -0.75925
C     5.38284  -0.61988  -0.62323
C     4.64887   0.57296  -0.60954
C     3.25991   0.54995  -0.72774
C     0.62874  -0.76791   1.63238
C    -0.48128  -1.82065   1.84542
O    -1.25741  -1.17525   2.89001
C    -1.48006   0.03667   2.12571
C    -2.12818  -0.56736   0.86409
O    -2.99839   0.09943   0.04462
C    -4.27663   0.37265   0.62872
C    -1.47818  -1.73258   0.68267
O    -1.45180  -2.66704  -0.28680
C    -2.27083  -2.42787  -1.43248
C    -0.00901   0.43282   1.79655
H    -2.46285   4.68034  -0.47898
H    -2.28872   4.31823  -2.21480
H    -3.72807   3.74459  -1.32646
H    -2.53978   1.83028  -0.70199
H     0.63431  -1.68463  -1.18466
H     2.80057  -2.82706  -0.97941
H     5.27864  -2.77657  -0.77396
H     6.47124  -0.59649  -0.53329
H     5.16563   1.53071  -0.51047
H     2.69440   1.48465  -0.72801
H     1.69238  -0.98365   1.67670
H    -0.16442  -2.83299   2.12125
H    -2.07189   0.77390   2.67933
H    -4.85826   0.92511  -0.12172
H    -4.79237  -0.56893   0.87796
H    -4.17888   0.98745   1.53808
H    -2.12426  -3.28245  -2.10540
H    -1.97044  -1.49964  -1.94191
H    -3.33275  -2.36045  -1.14716
H     0.43055   1.38877   2.07432
