40
Generated by autodE on: 2022-05-29. E = -1122.625248 Ha
C     3.18549   2.84371  -0.74399
O     2.01677   2.14288  -0.27692
C     2.19450   0.90838   0.16726
O     3.25477   0.33112   0.22646
C     0.86146   0.31366   0.57065
C     0.17082   1.02820   1.75977
O     0.35973   2.13513   2.19355
O    -0.69915   0.14894   2.26638
N    -0.49649  -1.15789   1.38826
N     0.84520  -1.07293   1.07303
C     1.74475  -1.46086   2.15918
C    -1.14481  -0.88713   0.06970
C    -1.25756  -2.27885  -0.58926
C    -1.85649  -3.37058   0.24478
O    -0.90891  -2.44423  -1.73926
C    -2.51816  -0.15031   0.04579
C    -3.02546  -0.18092  -1.41903
C    -2.03611   0.77762  -2.15549
C    -1.14125   1.31925  -1.00995
C    -2.16828   1.35075   0.13265
C    -0.17586   0.15747  -0.61654
C     0.61756  -0.27942  -1.76802
N     1.35526  -0.47079  -2.64348
H     3.92325   2.92835   0.06564
H     3.62445   2.30684  -1.59646
H     2.83516   3.83454  -1.05196
H     2.76365  -1.50900   1.76323
H     1.43977  -2.45671   2.50286
H     1.71840  -0.75974   3.01026
H    -2.16308  -4.20020  -0.40504
H    -2.70618  -3.00013   0.83671
H    -1.09814  -3.73050   0.95846
H    -3.22161  -0.54754   0.78643
H    -4.04668   0.22256  -1.43295
H    -3.06625  -1.18124  -1.86495
H    -1.46152   0.26945  -2.94158
H    -2.56664   1.61617  -2.62607
H    -0.60805   2.24900  -1.23679
H    -3.03616   1.96207  -0.15223
H    -1.82790   1.72583   1.09633
