23
Generated by autodE on: 2022-05-29. E = -517.871700 Ha
C     2.54057  -1.60455  -0.34142
C     1.85268  -0.27170  -0.27215
O     2.47160   0.78107  -0.15976
C     0.37222  -0.27111  -0.34793
C    -0.43460   0.79565  -0.09035
C    -0.05275   2.10518   0.29586
N     0.17563   3.20368   0.61086
C    -1.87474   0.30164  -0.10342
C    -2.01789  -0.57047   1.18716
C    -1.10345  -1.79005   0.88855
C    -0.54110  -1.46761  -0.53684
C    -1.76703  -0.79151  -1.18618
H     3.62347  -1.47938  -0.21544
H     2.14170  -2.27758   0.43499
H     2.32875  -2.08117  -1.31283
H    -2.63573   1.08097  -0.22198
H    -3.06861  -0.87230   1.30474
H    -1.72110  -0.01449   2.08716
H    -1.67925  -2.72599   0.85126
H    -0.29696  -1.91661   1.62398
H    -0.09846  -2.32402  -1.05639
H    -2.65134  -1.44446  -1.22332
H    -1.55655  -0.38727  -2.18697
