17
Generated by autodE on: 2022-05-29. E = -604.763156 Ha
C     2.60522  -2.17791  -0.42240
O     1.30964  -1.61406  -0.16591
C     1.20703  -0.28508  -0.25294
O     2.13504   0.45333  -0.53094
C    -0.13529   0.21647   0.01528
C    -0.52854   1.58735  -0.02523
O     0.00648   2.64781  -0.25201
O    -1.90842   1.52404   0.30083
N    -2.30264   0.25491   0.51516
N    -1.25997  -0.48336   0.34423
C    -1.41735  -1.92832   0.52503
H     2.92800  -1.94497  -1.44713
H     2.48975  -3.26026  -0.29632
H     3.34224  -1.78623   0.29295
H    -2.46421  -2.10641   0.79184
H    -1.15881  -2.43225  -0.41261
H    -0.74563  -2.25884   1.32472
