52
Generated by autodE on: 2022-10-23. E = -1754.519333 Ha
C     6.90733 -11.14835  -8.97522
O     6.23435 -10.67402  -7.80083
C     5.26391 -11.45258  -7.31816
O     4.90868 -12.47581  -7.86036
C     4.63623 -10.84379  -6.05735
C     3.88856 -11.85963  -5.18811
C     4.58657 -12.06667  -4.05150
C     5.88803 -11.25613  -4.15178
C     7.09395 -12.06455  -4.67982
C     8.41588 -11.77221  -4.04215
O     6.95836 -12.84419  -5.60613
N     5.62307 -10.22709  -5.16680
C     5.12857  -8.98557  -4.57392
C     4.26746 -12.89969  -2.80197
C     5.10197 -14.21201  -2.82667
F     4.71686 -15.00094  -3.83701
F     4.95657 -14.91400  -1.69084
F     6.42095 -13.99834  -2.97647
C     4.66997 -12.09940  -1.52626
F     6.00162 -12.03962  -1.33062
F     4.15035 -12.63871  -0.41530
F     4.22993 -10.83286  -1.59758
C     2.78607 -13.34297  -2.64457
C     1.72412 -12.26756  -2.39168
C     1.62827 -11.11620  -3.39132
C     1.38460 -11.49330  -4.84986
C     2.48057 -12.26354  -5.60845
F     2.33967 -11.86489  -6.95775
O     2.20358 -13.62007  -5.56645
C     3.05378 -14.48719  -6.31960
H     6.19977 -11.26694  -9.80850
H     7.65911 -10.38925  -9.22054
H     7.39440 -12.11260  -8.76875
H     3.94317 -10.07498  -6.43470
H     6.17707 -10.76984  -3.21667
H     8.62181 -10.69124  -4.10505
H     8.35816 -12.02216  -2.97014
H     9.21899 -12.34234  -4.52646
H     4.95212  -8.24720  -5.36905
H     5.88627  -8.57642  -3.89096
H     4.18653  -9.12043  -4.00739
H     2.74977 -14.05018  -1.80621
H     2.52837 -13.90585  -3.54312
H     1.84919 -11.84324  -1.38357
H     0.75927 -12.80165  -2.37339
H     2.51985 -10.47713  -3.32356
H     0.78439 -10.47825  -3.08311
H     1.23719 -10.56533  -5.42015
H     0.46528 -12.09108  -4.95548
H     2.87124 -14.36666  -7.39740
H     2.79541 -15.50945  -6.01467
H     4.11474 -14.29752  -6.11163
