22
Generated by autodE on: 2022-10-26. E = -554.020959 Ha
C     1.29316  -0.16344  -2.56409
O     0.60282   0.43879  -1.46431
C    -0.68787   0.11449  -1.32010
O    -1.32152  -0.50578  -2.15862
C    -1.32468   0.72067  -0.14658
N    -0.74492   1.00540   1.00943
C    -1.45662   1.93544   1.91367
C     0.40096   0.45992   1.51753
C     0.83296  -0.85905   1.20137
C     1.95905  -1.41895   2.04458
O     0.30769  -1.58286   0.32746
H     2.33585   0.16589  -2.48389
H     0.86632   0.16611  -3.52278
H     1.23777  -1.25940  -2.49532
H    -2.36135   1.03176  -0.27419
H    -0.74850   2.70804   2.24008
H    -2.28978   2.40380   1.38016
H    -1.81861   1.38225   2.79010
H     0.79998   0.97051   2.39119
H     1.61754  -2.34314   2.53849
H     2.79417  -1.69757   1.38101
H     2.32412  -0.71390   2.80350
