22
Generated by autodE on: 2022-10-23. E = -554.024829 Ha
C     4.05724  -0.96945   0.05481
O     3.09975   0.08608   0.15931
C     1.79645  -0.26941   0.04575
O     1.45344  -1.43514  -0.13648
C     0.95430   0.89386   0.17023
N    -0.39020   0.88898   0.10540
C    -1.02729   2.21857   0.26302
C    -1.16091  -0.19866  -0.08556
C    -2.60277  -0.22091  -0.15419
C    -3.18086  -1.60543  -0.37071
O    -3.35278   0.76135  -0.04883
H     5.04160  -0.49920   0.16727
H     3.90607  -1.71737   0.84799
H     3.98857  -1.46698  -0.92451
H     1.43179   1.85588   0.33015
H    -1.61764   2.44532  -0.63065
H    -1.69606   2.19956   1.12959
H    -0.24133   2.96590   0.40172
H    -0.61991  -1.13352  -0.19325
H    -2.77161  -2.06048  -1.28707
H    -4.27419  -1.54055  -0.44741
H    -2.91091  -2.26858   0.46759
