36
Generated by autodE on: 2022-05-29. E = -1036.201207 Ha
C    -4.87182   0.13489   1.54278
N    -3.45912   0.22659   1.24102
C    -2.97133   0.43258   0.00934
O    -3.66082   0.64598  -0.99432
C    -1.44010   0.47625  -0.07771
O    -0.79445  -0.10708   1.04883
C    -0.39839  -1.46665   0.74575
C    -1.45018  -2.47635   1.18066
C    -0.14848  -1.48220  -0.76690
C     1.30098  -1.19723  -1.26874
O     1.02206  -0.63550  -2.56886
C     0.25629   0.47972  -2.10185
C     1.20983   1.04616  -1.06953
F     1.21947   2.31902  -0.72717
C     1.87179   0.00905  -0.52527
C     2.77134  -0.05879   0.62173
O     3.11034  -1.10496   1.15259
O     3.18206   1.14632   1.03670
C     4.05284   1.17211   2.17640
C    -0.89737  -0.23897  -1.32091
H    -5.44340   0.57776   0.71769
H    -5.19207  -0.91300   1.66787
H    -5.10106   0.68056   2.46968
H    -2.77784  -0.00827   1.95751
H    -1.18691   1.55018  -0.08099
H     0.52776  -1.63725   1.31322
H    -1.69908  -2.34396   2.24451
H    -1.05894  -3.49643   1.04311
H    -2.37196  -2.38265   0.58649
H    -0.50033  -2.41418  -1.22521
H     1.95894  -2.06912  -1.33933
H    -0.05420   1.15041  -2.90977
H     4.98441   0.62793   1.96309
H     4.26775   2.22992   2.36691
H     3.55886   0.72114   3.04932
H    -1.69784  -0.48828  -2.02496
