17
Generated by autodE on: 2022-07-26. E = -401.261495 Ha
C     1.18490  -1.94537   0.37425
C     1.89858  -0.77780   0.89139
O     1.76279   0.40864   0.40549
C     0.88038   0.87096  -0.52370
C    -0.53212   0.61280  -0.58570
O    -1.21222   1.08954  -1.52555
N    -1.14957  -0.09107   0.42389
C    -2.59856  -0.11732   0.49485
H     1.10457  -1.83547  -0.72863
H     0.13944  -2.02987   0.72475
H     1.72759  -2.86135   0.64392
H     2.71055  -0.83998   1.62012
H     1.24430   1.78815  -0.98416
H    -0.66003  -0.16517   1.31078
H    -2.90153  -0.76472   1.32848
H    -3.03708   0.88516   0.64958
H    -3.02053  -0.52534  -0.43473
