36
Generated by autodE on: 2022-05-29. E = -1036.051049 Ha. Imaginary frequency = -118.5 cm-1
C    -4.91489   0.00657   1.56735
N    -3.47314   0.13775   1.53230
C    -2.83487   0.68316   0.46508
O    -3.47942   1.17516  -0.48652
C    -1.38009   0.77811   0.47100
O    -0.50783   0.02960   1.15602
C    -0.43315  -1.23941   1.41742
C    -1.55521  -2.20122   1.37274
C     0.01921  -1.67258  -1.26139
C     1.48273  -1.30947  -1.59617
O     1.30071  -0.68429  -2.89324
C     0.32981   0.27748  -2.43503
C     1.15312   0.90476  -1.31160
F     1.03361   2.16881  -0.95533
C     1.88297  -0.07912  -0.75698
C     2.65054  -0.12415   0.47611
O     3.05009  -1.15883   0.99045
O     2.86069   1.08993   1.00853
C     3.56579   1.13058   2.25562
C    -0.71416  -0.65652  -1.76564
H    -5.42113   0.98615   1.61311
H    -5.28179  -0.51825   0.67148
H    -5.19760  -0.57403   2.45475
H    -2.94482  -0.08871   2.36604
H    -0.94963   1.73033   0.17040
H     0.52342  -1.50177   1.87302
H    -2.18785  -2.13513   2.27846
H    -1.13861  -3.21815   1.33962
H    -2.20879  -2.04436   0.50345
H    -0.29782  -2.62897  -0.85798
H     2.21065  -2.12609  -1.62586
H    -0.02193   0.95051  -3.22377
H     4.56815   0.69047   2.15013
H     3.64537   2.19081   2.52275
H     3.00893   0.58556   3.03209
H    -1.78894  -0.53222  -1.86137
