20
Generated by autodE on: 2022-05-30. E = -2885.785262 Ha
C     2.16110  -0.88609  -0.99279
C     0.78732  -1.02536  -0.44165
C     0.02016  -0.15551   0.23946
Br    0.46176   1.62880   0.71493
C    -1.38861  -0.70587   0.36979
C    -1.99993  -0.65409  -1.06674
C    -1.13267  -1.68637  -1.84525
C    -0.13922  -2.20195  -0.75343
C    -1.05529  -2.20791   0.48719
H     2.80618  -1.71989  -0.66715
H     2.62939   0.06101  -0.68808
H     2.13756  -0.92009  -2.09662
H    -2.00779  -0.25537   1.15490
H    -1.94840   0.35971  -1.48915
H    -3.05812  -0.95511  -1.04039
H    -0.60053  -1.24380  -2.69986
H    -1.74454  -2.51831  -2.22565
H     0.37552  -3.13755  -1.01024
H    -0.52207  -2.45745   1.41621
H    -1.93801  -2.85700   0.37527
