54
Generated by autodE on: 2022-06-14. E = -6449.313054 Ha
C    -3.17109   0.15890   3.19061
N    -2.19623   0.37531   2.14051
C    -2.54727   0.42824   0.85063
O    -3.71065   0.37899   0.45215
C    -1.35933   0.62937  -0.15152
C    -1.65843   2.06276  -0.69195
O    -1.06658   3.02079  -0.22991
O    -2.66117   2.15989  -1.53330
C    -2.99866   3.47600  -1.99865
N    -0.09130   0.66299   0.55632
C     1.01646   0.23951  -0.30484
C     1.31386   1.47438  -1.19495
O     0.65711   1.79242  -2.16098
O     2.26360   2.24733  -0.66638
C     2.45453   3.53489  -1.27479
C     2.22561  -0.19263   0.51583
C     2.11703  -0.41449   1.89347
C     3.21654  -0.86786   2.62992
C     4.43764  -1.10741   1.99662
C     4.55497  -0.88162   0.62049
C     3.45945  -0.42390  -0.11227
C     0.37291  -0.93752  -1.11886
Br    1.29922  -1.08944  -2.86646
C     0.44460  -2.32232  -0.40810
C    -0.08606  -3.44735  -1.31987
C    -1.60591  -3.14597  -1.40054
C    -1.77799  -1.92361  -0.47485
C    -0.71503  -2.23832   0.60020
C    -1.20118  -0.62661  -1.12175
Br   -1.98497  -0.34965  -2.89981
H    -4.02177   0.84481   3.06866
H    -3.55911  -0.87324   3.17582
H    -2.69724   0.34489   4.16226
H    -1.20155   0.33313   2.34708
H    -3.31392   4.10923  -1.15724
H    -2.13368   3.93181  -2.50082
H    -3.82379   3.34006  -2.70662
H     0.07814   1.58414   0.96264
H     2.74429   3.42195  -2.32901
H     3.25819   4.01888  -0.70841
H     1.52836   4.12319  -1.20771
H     1.16508  -0.23703   2.39284
H     3.11308  -1.03533   3.70466
H     5.29633  -1.46320   2.57088
H     5.50703  -1.05852   0.11455
H     3.56769  -0.24745  -1.18289
H     1.44003  -2.52035   0.00118
H     0.10522  -4.40936  -0.82290
H     0.40138  -3.47800  -2.29997
H    -1.95088  -2.95228  -2.42257
H    -2.20413  -3.97641  -0.99924
H    -2.80765  -1.78465  -0.13518
H    -0.58759  -1.48091   1.37318
H    -0.90447  -3.20843   1.08168
