37
Generated by autodE on: 2022-06-14. E = -1029.254590 Ha
C     3.79948  -1.44792   2.32860
N     3.28409  -0.89230   1.09608
C     1.97995  -0.56683   0.96730
O     1.14988  -0.83154   1.86322
C     1.58052   0.13824  -0.25510
N     0.25594   0.45416  -0.45288
C    -0.85803  -0.10211  -0.01841
C    -0.81562  -1.50633   0.50005
O    -0.22316  -2.39983  -0.07120
O    -1.59443  -1.67551   1.56300
C    -1.64766  -3.00162   2.11050
C    -2.13007   0.59364  -0.20215
C    -2.17459   2.00198  -0.28821
C    -3.38199   2.66005  -0.51664
C    -4.56773   1.93072  -0.64990
C    -4.53825   0.53474  -0.55225
C    -3.33557  -0.13102  -0.32875
C     2.51727   0.76274  -1.15903
O     3.74401   0.65038  -1.12252
O     1.90432   1.51860  -2.10250
C     2.74697   2.22871  -3.01481
H     3.20816  -2.32267   2.63758
H     3.77867  -0.72003   3.15851
H     4.83821  -1.76409   2.16929
H     3.91858  -0.51619   0.39212
H     0.13083   1.27908  -1.04976
H    -2.03163  -3.71124   1.36389
H    -2.32694  -2.94646   2.96850
H    -0.64445  -3.31256   2.43524
H    -1.26578   2.59012  -0.14328
H    -3.39855   3.75059  -0.57375
H    -5.51403   2.44865  -0.82096
H    -5.46047  -0.04099  -0.65639
H    -3.32928  -1.22023  -0.27154
H     2.07291   2.76643  -3.69203
H     3.39060   2.94176  -2.47868
H     3.37571   1.52976  -3.58540
