54
Generated by autodE on: 2022-06-14. E = -6449.254165 Ha. Imaginary frequency = -354.6 cm-1
C    -4.51360   0.59677   1.81041
N    -3.47798   1.04164   0.89963
C    -2.18183   0.90240   1.20100
O    -1.80374   0.42020   2.28579
C    -1.14166   1.23985   0.16850
C    -1.33517   2.15079  -0.97979
O    -0.46519   2.44806  -1.77535
O    -2.59314   2.60042  -1.09943
C    -2.88571   3.40924  -2.24825
N     0.10956   1.06286   0.68830
C     1.26246   0.79376   0.01326
C     1.83097   1.88936  -0.86472
O     2.52421   1.74861  -1.84463
O     1.63572   3.08015  -0.26950
C     2.13774   4.22332  -0.96966
C     2.33670   0.07785   0.75347
C     2.25812  -0.19138   2.13292
C     3.26254  -0.91565   2.77669
C     4.36689  -1.38597   2.06071
C     4.46119  -1.11582   0.69196
C     3.46268  -0.38888   0.04512
C     0.27712  -0.85759  -1.33973
Br    1.04220  -0.65873  -3.08185
C     0.64072  -2.14604  -0.58901
C    -0.01798  -3.32836  -1.36058
C    -1.53515  -3.12507  -1.09133
C    -1.56619  -1.83361  -0.21841
C    -0.29915  -2.06301   0.62691
C    -1.12357  -0.68195  -1.12549
Br   -2.34233  -0.27703  -2.56068
H    -5.49047   0.76787   1.34226
H    -4.47517   1.14727   2.76397
H    -4.40846  -0.47648   2.03466
H    -3.72128   1.48372   0.01926
H    -2.30197   4.33983  -2.21564
H    -2.65286   2.86185  -3.17206
H    -3.95769   3.62904  -2.19312
H    -0.00365   0.60909   1.60157
H     3.22795   4.15492  -1.09827
H     1.88409   5.09267  -0.35157
H     1.65824   4.30799  -1.95578
H     1.42412   0.17494   2.73499
H     3.18067  -1.10682   3.84900
H     5.15018  -1.95450   2.56691
H     5.31823  -1.47720   0.11897
H     3.53685  -0.19513  -1.02402
H     1.70933  -2.27430  -0.38912
H     0.34229  -4.28014  -0.94316
H     0.23565  -3.31044  -2.42873
H    -2.12799  -3.02050  -2.00920
H    -1.95806  -3.95759  -0.50995
H    -2.50974  -1.66892   0.31454
H    -0.34302  -3.01298   1.17892
H    -0.07409  -1.27192   1.34077
