47
Generated by autodE on: 2022-10-21. E = -1019.738199 Ha
C     1.76703  -3.20532   0.29265
O     1.66419  -2.05584   1.13443
C     0.81813  -1.07326   0.73140
C     0.04100  -0.35649   1.55816
C    -0.13723  -0.54500   3.02632
C    -0.75315   0.65518   0.73488
C    -0.54445   2.02373   1.41882
C     0.54340   2.91443   0.89765
O    -1.20867   2.31604   2.40078
C    -2.24274   0.28174   0.65565
C    -3.23026   1.25631   0.44295
C    -4.56657   0.89450   0.25582
C    -4.94122  -0.45267   0.27344
C    -3.96529  -1.43264   0.47442
C    -2.62923  -1.06642   0.66293
N    -0.08788   0.59261  -0.57766
C    -0.82176   1.00468  -1.75104
C     0.68184  -0.64450  -0.71139
C     2.00171  -0.41729  -1.42870
C     3.05485   0.25040  -0.78587
C     4.25873   0.48344  -1.45328
C     4.42277   0.05604  -2.77675
C     3.37761  -0.60761  -3.42511
C     2.17468  -0.84449  -2.75059
H     2.45487  -3.89883   0.79359
H     2.17407  -2.94853  -0.69755
H     0.78523  -3.69143   0.16930
H    -1.20480  -0.64012   3.28454
H     0.25368   0.30891   3.60445
H     0.38548  -1.45174   3.36237
H     0.28144   3.26389  -0.11369
H     0.67058   3.77349   1.56947
H     1.48449   2.35480   0.79862
H    -2.95891   2.31293   0.41720
H    -5.31871   1.67055   0.09372
H    -5.98660  -0.73601   0.12945
H    -4.24326  -2.48944   0.48746
H    -1.87515  -1.84020   0.81711
H    -1.62642   0.30027  -2.04683
H    -0.12673   1.09452  -2.60074
H    -1.27726   1.99265  -1.58946
H     0.11785  -1.41568  -1.27980
H     2.92911   0.58429   0.24699
H     5.07441   0.99900  -0.94037
H     5.36493   0.23896  -3.29914
H     3.49823  -0.94383  -4.45784
H     1.35781  -1.37017  -3.25236
