36
Generated by autodE on: 2022-10-21. E = -788.358357 Ha
C     2.74043   1.10203   2.24775
C     1.30274   0.92391   1.77514
O     0.40197   1.49604   2.45355
C     1.07891   0.13396   0.61636
C     2.22609  -0.48856  -0.10260
C     2.95735  -1.54052   0.47737
C     4.05393  -2.10346  -0.18041
C     4.43533  -1.63055  -1.44002
C     3.71628  -0.58712  -2.03274
C     2.62735  -0.01934  -1.36740
N    -0.20637  -0.06362   0.07137
C    -0.31731  -1.08838  -0.98948
C    -1.29944   0.54948   0.50194
C    -2.65144   0.48417  -0.02737
C    -3.01287   0.27437  -1.37909
C    -4.35262   0.29404  -1.76658
C    -5.36433   0.52290  -0.82828
C    -5.02344   0.75841   0.50882
C    -3.68744   0.75234   0.90028
H     3.45253   1.24028   1.42246
H     3.07450   0.22557   2.82647
H     2.77246   1.97855   2.91031
H     2.65442  -1.92077   1.45557
H     4.60842  -2.91958   0.28942
H     5.29027  -2.07236  -1.95751
H     4.01079  -0.20763  -3.01436
H     2.07858   0.80499  -1.82933
H    -1.32292  -1.51657  -0.96993
H     0.41045  -1.88001  -0.79327
H    -0.11585  -0.65548  -1.97664
H    -1.13255   1.16569   1.38402
H    -2.24949   0.13414  -2.14227
H    -4.60751   0.13738  -2.81733
H    -6.41128   0.53194  -1.13966
H    -5.80385   0.95256   1.24821
H    -3.42409   0.94649   1.94265
