33
Generated by autodE on: 2022-05-29. E = -3301.700326 Ha
C    -2.86517  -1.56178  -0.18717
C    -1.78258  -0.92226   0.66192
N    -1.09669  -1.97608   1.44440
N     0.25139  -1.55624   1.73843
C     0.66769  -0.99500   0.45675
C     1.96336  -0.22705   0.50332
C     2.85899  -0.33260  -0.57164
C     4.05304   0.39270  -0.58435
C     4.37420   1.23228   0.48635
C     3.49152   1.34220   1.56507
C     2.29357   0.62238   1.57209
C    -0.58058  -0.19506  -0.04890
Br   -0.59713  -0.17301  -2.01709
C    -0.71448   1.25546   0.51280
C    -1.99564   1.87831  -0.02738
C    -2.99044   1.27187   0.63181
C    -2.31050   0.26721   1.54687
O    -1.08124   0.95425   1.86884
H    -3.36378  -0.83254  -0.83909
H    -2.43842  -2.35852  -0.81166
H    -3.62468  -2.01281   0.47227
H    -1.58149  -2.15631   2.32344
H     0.20188  -0.77241   2.39599
H     0.78513  -1.83600  -0.24142
H     2.61568  -0.99335  -1.40665
H     4.73743   0.29624  -1.43064
H     5.30946   1.79713   0.48160
H     3.73378   1.99499   2.40709
H     1.61314   0.73495   2.41824
H     0.20068   1.85339   0.46386
H    -2.04992   2.60694  -0.83481
H    -4.06616   1.37879   0.49505
H    -2.83935  -0.05181   2.45283
