17
Generated by autodE on: 2022-05-29. E = -381.183140 Ha
N     3.61374   0.61803   0.46038
N     2.31409   0.50920   0.45136
C     1.48410  -0.14333  -0.35189
C     0.04535  -0.14070  -0.20067
C    -0.72385  -0.90841  -1.10678
C    -2.11402  -0.95319  -1.01528
C    -2.78321  -0.23447  -0.01804
C    -2.03689   0.53288   0.88542
C    -0.64697   0.58405   0.79949
H     3.94958   0.06382  -0.34059
H     1.87333   1.03176   1.21668
H     1.94948  -0.70810  -1.16296
H    -0.21080  -1.47439  -1.88850
H    -2.68098  -1.55581  -1.72944
H    -3.87243  -0.26982   0.05483
H    -2.54495   1.10155   1.66835
H    -0.10120   1.19863   1.52015
