33
Generated by autodE on: 2022-05-29. E = -3301.622343 Ha. Imaginary frequency = -230.3 cm-1
C    -3.00165  -1.61062  -0.19252
C    -1.99647  -0.66410   0.36478
N    -0.91990  -2.20257   1.68833
N     0.22307  -1.55631   1.78890
C     0.96179  -1.30488   0.71376
C     2.09746  -0.40400   0.70954
C     2.95296  -0.41051  -0.41384
C     4.03242   0.46772  -0.49893
C     4.28897   1.37455   0.53562
C     3.44547   1.39680   1.65300
C     2.35856   0.52774   1.73965
C    -0.95429  -0.04471  -0.28772
Br   -0.55404  -0.24082  -2.13765
C    -0.77630   1.32246   0.39771
C    -2.03441   2.16153   0.07753
C    -3.02649   1.56229   0.74728
C    -2.35927   0.36737   1.46221
O    -1.06224   0.93135   1.75254
H    -3.77433  -1.05439  -0.75685
H    -2.53256  -2.32326  -0.88585
H    -3.50890  -2.18008   0.60057
H    -1.37099  -2.12812   2.60558
H     0.38673  -0.97141   2.61247
H     0.80922  -1.97787  -0.12802
H     2.75681  -1.11552  -1.22448
H     4.68033   0.44360  -1.37866
H     5.13565   2.06170   0.47068
H     3.62986   2.10721   2.46260
H     1.70224   0.59143   2.61001
H     0.20141   1.80845   0.30836
H    -2.07131   3.00994  -0.60552
H    -4.09242   1.78889   0.75809
H    -2.84804  -0.01998   2.36353
