20
Generated by autodE on: 2022-06-26. E = -457.715320 Ha
C    -3.07599  -0.61553  -0.51628
N    -1.82466   0.02092  -0.13920
C    -1.84777   1.27885   0.47621
C    -0.73220   1.91281   0.87068
C     0.65085   1.33619   0.69335
C     0.57565  -0.02829   0.02802
C     1.79054  -0.80841  -0.25506
N     2.96484  -0.23349   0.10776
O     1.77680  -1.93468  -0.79295
C    -0.61778  -0.58025  -0.33134
H    -2.86092  -1.56325  -1.02553
H    -3.69974  -0.82532   0.36839
H    -3.65236   0.02724  -1.20078
H    -2.84313   1.70644   0.60977
H    -0.83125   2.89352   1.34160
H     1.16434   1.27023   1.67453
H     1.27980   2.03192   0.10058
H     3.01716   0.68393   0.53159
H     3.82760  -0.73332  -0.07684
H    -0.64239  -1.56261  -0.80546
