31
Generated by autodE on: 2022-06-26. E = -801.203586 Ha
C     1.37996   0.97665  -2.63876
O     1.34019   0.03089  -1.56254
C     1.07019   0.51632  -0.34568
O     0.83824   1.69693  -0.14380
C     1.07851  -0.52351   0.70257
C     2.03787  -1.61789   0.73431
C     3.21402  -1.59477  -0.21907
O     1.92288  -2.56556   1.52283
N     0.15312  -0.38077   1.71535
C     0.46086  -0.85468   3.08498
N    -0.98780   0.20343   1.64585
C    -1.60504   0.45466   0.41502
C    -2.31154   1.66363   0.29433
C    -3.01424   1.95270  -0.87529
C    -3.04782   1.02712  -1.92248
C    -2.37728  -0.19608  -1.78847
C    -1.64974  -0.48457  -0.63693
H     0.39217   1.44352  -2.76723
H     1.64757   0.40326  -3.53367
H     2.13184   1.75525  -2.44623
H     3.60474  -0.58401  -0.39760
H     2.91498  -2.01464  -1.19181
H     4.00050  -2.23333   0.20575
H     0.11743  -1.88923   3.19365
H     1.53611  -0.79499   3.27230
H    -0.09725  -0.20160   3.76381
H    -2.28366   2.37226   1.12380
H    -3.54390   2.90367  -0.96579
H    -3.60255   1.25014  -2.83638
H    -2.42046  -0.93413  -2.59263
H    -1.12886  -1.43816  -0.54609
