51
Generated by autodE on: 2022-06-26. E = -1258.895191 Ha. Imaginary frequency = -408.7 cm-1
C     4.82562   1.56343   0.47432
O     3.56858   1.22363   1.05941
C     2.47005   1.50492   0.32444
O     2.56429   2.10827  -0.74286
C     1.22365   1.02014   0.90700
C     1.14483   0.27723   2.16244
C    -0.13713   0.33387   2.97584
O     2.08277  -0.39419   2.61375
C     1.33033  -0.95561  -0.63026
N     1.88805  -1.94464   0.09734
C     3.33706  -2.05023   0.23089
C     1.07312  -2.77297   0.88617
C    -0.24342  -2.86240   0.65605
C    -0.87247  -2.14774  -0.50743
C    -0.08835  -0.90213  -0.91166
C    -0.33241  -0.33154  -2.28217
N    -1.36982  -0.84145  -2.97700
O     0.38479   0.56727  -2.74635
N    -0.81745   0.39568   0.17244
C    -2.19579   0.66006  -0.09315
C    -2.68281   1.37076  -1.20530
C    -4.05802   1.52943  -1.38670
C    -4.96203   0.98710  -0.46795
C    -4.48562   0.27441   0.63628
C    -3.11146   0.10665   0.81771
N     0.02427   1.43552   0.32832
C    -0.14348   2.73927  -0.31035
H     5.59056   1.21499   1.17918
H     4.91643   2.65063   0.33072
H     4.95637   1.06285  -0.49693
H    -0.68037  -0.61713   2.87633
H    -0.80904   1.15156   2.69222
H     0.15571   0.43766   4.03199
H     2.00294  -0.37990  -1.26077
H     3.65506  -3.08611   0.04102
H     3.81741  -1.39202  -0.50282
H     3.65261  -1.75132   1.23928
H     1.59151  -3.32039   1.67381
H    -0.85908  -3.50870   1.28354
H    -0.92084  -2.84619  -1.36497
H    -1.91687  -1.88393  -0.28308
H    -1.62193  -0.39266  -3.85204
H    -2.04064  -1.47473  -2.55973
H    -1.99588   1.78601  -1.93944
H    -4.42484   2.07818  -2.25720
H    -6.03672   1.11554  -0.61645
H    -5.18430  -0.15704   1.35662
H    -2.72635  -0.45280   1.67068
H     0.02030   2.71413  -1.39400
H     0.57640   3.42793   0.14338
H    -1.15362   3.11766  -0.09898
