28
Generated by autodE on: 2022-07-27. E = -781.983391 Ha
C    -1.87360   0.50460  -3.80439
N    -1.41789   0.08834  -2.49570
C    -0.53497   0.84223  -1.78834
O    -0.06436   1.88977  -2.26777
C    -0.15678   0.33575  -0.46968
O    -0.86649  -0.79271  -0.09812
C    -0.63695  -1.63092   0.83408
C    -1.68455  -2.63509   1.10507
C     0.73168  -1.75833   1.47482
C     0.79439  -2.03671   2.94148
O     1.67920  -1.83444   0.71202
C     0.52592   1.01952   0.57999
O     0.59095   0.58696   1.74239
O     1.07834   2.19846   0.24305
C     1.73067   2.91779   1.29475
H    -1.02853   0.64850  -4.49647
H    -2.53112  -0.27280  -4.21338
H    -2.43610   1.45290  -3.76540
H    -1.81356  -0.74527  -2.07872
H    -2.50944  -2.54091   0.38738
H    -2.06780  -2.48759   2.13086
H    -1.25523  -3.65063   1.07405
H     0.06855  -1.42835   3.49684
H     0.54277  -3.09979   3.10001
H     1.81540  -1.85983   3.30413
H     2.15266   3.81460   0.82535
H     2.53311   2.31413   1.74391
H     1.01445   3.20713   2.07806
