28
Generated by autodE on: 2022-06-21. E = -781.993062 Ha
C     1.80953   2.05831  -3.13216
N     1.43331   0.91006  -2.33284
C     0.77139   1.06989  -1.16413
O     0.60095   2.18490  -0.63871
C     0.19790  -0.14039  -0.55773
O    -0.30914  -0.08892   0.68657
C     0.10328   0.53121   1.74256
C     1.40970   1.18998   1.85475
C    -0.81526   0.36911   2.90154
C    -2.08853  -0.39798   2.68575
O    -0.51076   0.87909   3.97321
C    -0.21683  -1.31274  -1.30588
O     0.14250  -1.55782  -2.45631
O    -1.00777  -2.14374  -0.60488
C    -1.43737  -3.33396  -1.27683
H     0.93149   2.60524  -3.51810
H     2.41106   1.71628  -3.98363
H     2.40938   2.76342  -2.53855
H     1.35847  -0.00571  -2.77274
H     2.15536   0.60520   1.28575
H     1.68528   1.25921   2.91402
H     1.40301   2.19583   1.40329
H    -1.89245  -1.35583   2.18139
H    -2.57916  -0.56318   3.65301
H    -2.75990   0.17752   2.02695
H    -0.57277  -3.94631  -1.57215
H    -2.05672  -3.87910  -0.55504
H    -2.02862  -3.08556  -2.17041
