51
Generated by autodE on: 2022-06-21. E = -1133.510569 Ha. Imaginary frequency = -133.0 cm-1
C    -3.99406   1.13717  -3.43621
N    -3.43763   0.66504  -2.18637
C    -2.46041   1.36711  -1.55303
O    -2.13445   2.50226  -1.94509
C    -1.81990   0.70490  -0.41322
C    -0.77080   1.20524   0.41831
O    -0.28475   0.56774   1.35997
O    -0.31867   2.42991   0.09898
C     0.67715   2.98868   0.96384
O    -2.24415  -0.57590  -0.25031
C    -1.79242  -1.63429   0.32436
C    -2.51177  -2.89585  -0.00440
C    -1.02759  -1.65987   1.64055
C    -1.81846  -1.14686   2.81721
O    -0.01333  -2.32475   1.76328
C     0.06507  -1.91599  -1.46642
C     0.53526  -0.71694  -1.91527
C    -0.03534  -0.07896  -3.15814
C     1.66538  -0.01470  -1.30943
C     2.21150  -0.28979  -0.09864
C     3.30434   0.45749   0.47934
C     3.76556   0.34946   1.75239
C     4.90712   1.20034   2.22953
C     3.18808  -0.57445   2.78631
H    -4.38047   2.16192  -3.33249
H    -3.24625   1.14099  -4.24888
H    -4.82276   0.47922  -3.72758
H    -3.59464  -0.29903  -1.91828
H     0.88398   3.99064   0.56876
H     1.59461   2.38474   0.95631
H     0.30050   3.06279   1.99502
H    -3.00455  -2.82113  -0.98234
H    -3.27342  -3.09930   0.77077
H    -1.80647  -3.73919   0.00664
H    -2.40528  -1.99487   3.21098
H    -2.50941  -0.34087   2.54042
H    -1.12523  -0.80609   3.59835
H     0.55571  -2.47028  -0.66604
H    -0.72462  -2.42810  -2.01773
H    -0.21311   0.99668  -3.01064
H     0.68367  -0.17166  -3.99143
H    -0.97788  -0.55277  -3.46441
H     2.06502   0.83136  -1.88013
H     1.78316  -1.10008   0.49378
H     3.78015   1.19851  -0.17376
H     5.29486   1.85798   1.43792
H     5.73602   0.57033   2.59914
H     4.59572   1.82695   3.08448
H     2.32633  -1.15599   2.43702
H     2.86868   0.00723   3.66904
H     3.95993  -1.27691   3.14766
