20
Generated by autodE on: 2022-05-31. E = -494.875780 Ha
C    -2.86240   1.37777   0.20675
N    -1.66175   0.57112   0.17610
C    -1.68725  -0.72512   0.52088
O    -2.72684  -1.31165   0.86777
C    -0.41018  -1.50095   0.50862
C     0.85002  -1.21325   0.15266
C     1.43622   0.05743  -0.34775
O     0.77919   1.06990  -0.66010
N     2.78073   0.04272  -0.43584
C     3.53058   1.19929  -0.88067
H    -2.60634   2.40838  -0.06953
H    -3.62641   1.00264  -0.49450
H    -3.30986   1.38715   1.21369
H    -0.77518   0.95140  -0.17841
H    -0.58657  -2.51273   0.88506
H     1.57452  -2.02523   0.26840
H     3.28021  -0.81501  -0.22541
H     4.59775   1.02062  -0.70106
H     3.39337   1.37958  -1.96020
H     3.21273   2.10091  -0.33747
