24
Generated by autodE on: 2022-05-31. E = -626.476982 Ha
C     4.56451   0.14058  -0.34728
N     3.27630  -0.47424  -0.09483
C     2.11105   0.18296  -0.19570
O     2.00703   1.37944  -0.50623
C     0.87132  -0.61598   0.09580
C     0.90162  -2.05403   0.46747
N    -0.20345   0.11344  -0.01874
C    -1.55834  -0.05281   0.11907
C    -2.17038  -1.26864   0.47142
N    -2.73836  -2.24966   0.76021
C    -2.32453   1.15446  -0.13295
C    -3.82306   1.08251  -0.00479
O    -1.74181   2.20531  -0.44174
H     5.20328   0.08748   0.54773
H     5.08270  -0.36778  -1.17504
H     4.41184   1.19217  -0.61437
H     3.26449  -1.45469   0.16713
H    -0.09758  -2.46611   0.63613
H     1.49406  -2.19426   1.38690
H     1.38946  -2.64060  -0.32869
H     0.00941   1.09667  -0.28719
H    -4.23473   0.32012  -0.68503
H    -4.10771   0.79113   1.01901
H    -4.25920   2.06117  -0.24167
