44
Generated by autodE on: 2022-05-31. E = -1121.333912 Ha. Imaginary frequency = -340.5 cm-1
C    -1.91428   3.69458   1.42367
N    -1.07638   2.74895   0.71498
C    -1.60271   1.82528  -0.09539
O    -2.82695   1.79108  -0.35268
C    -0.72781   0.77594  -0.71070
C     0.66804   0.77042  -0.95163
C     1.69982   1.46872  -0.16166
O     1.49892   1.87330   1.00566
N     2.89854   1.60165  -0.76505
C     4.08019   2.07911  -0.07636
C     1.09148  -1.33650  -0.04855
C     0.72106  -1.95588  -1.28176
N     0.48802  -2.41989  -2.32317
C     2.54890  -1.36514   0.25084
C     2.99840  -1.05167   1.65000
O     3.33613  -1.60653  -0.65649
N     0.18837  -1.14332   0.95898
C    -1.10293  -0.73800   0.76758
C    -1.74746  -0.16603   2.00740
C    -2.01033  -1.67060  -0.02748
O    -1.74370  -2.87327  -0.11195
N    -3.12933  -1.12201  -0.52270
C    -4.09403  -1.92235  -1.25139
H    -2.58243   4.22461   0.72926
H    -1.27350   4.42962   1.92722
H    -2.54140   3.19582   2.18265
H    -0.09581   2.61600   0.98964
H    -1.27249   0.32651  -1.54193
H     0.98366   0.44465  -1.94314
H     3.02852   1.13194  -1.65601
H     4.64758   1.24913   0.37716
H     3.78343   2.77409   0.71839
H     4.73546   2.60310  -0.78562
H     2.56798  -1.77175   2.36483
H     4.09300  -1.10421   1.69176
H     2.66857  -0.04410   1.94978
H     0.61199  -0.75782   1.80282
H    -2.02406  -0.98608   2.69049
H    -1.05768   0.51642   2.52261
H    -2.66545   0.37720   1.75661
H    -3.22756  -0.10011  -0.50552
H    -4.45446  -2.76172  -0.63702
H    -3.65785  -2.34129  -2.17337
H    -4.94798  -1.28879  -1.52084
