43
Generated by autodE on: 2022-05-31. E = -1257.187588 Ha
C    -4.36364  -0.41075   2.99691
N    -3.45626  -0.61690   1.88338
C    -2.17423  -0.25439   1.94981
O    -1.63970   0.26473   2.93372
C    -1.32084  -0.53914   0.72658
O    -2.13343  -1.19365  -0.36334
C    -1.46100  -0.94462  -1.50898
O    -1.80752  -1.32604  -2.59445
C    -0.20445  -0.14163  -1.06623
C     0.48860   0.63972  -2.15735
O     0.50799   1.84616  -2.25416
O     1.09068  -0.19247  -3.00032
C     1.83978   0.40442  -4.07398
C     0.65391  -1.25995  -0.38954
C     2.08788  -0.97376   0.17369
O     2.07523  -1.86562   1.30375
C     0.97041  -1.24223   1.99353
C     1.39864   0.21096   1.99379
C     2.11862   0.37809   0.86716
C     2.70980   1.59162   0.29429
C     2.63317   2.86329   1.09335
O     3.22847   1.55300  -0.82093
C    -0.14227  -1.49690   0.91973
N    -0.75725   0.60966   0.07368
C    -1.69784   1.69537  -0.21672
H    -5.31709  -0.90324   2.77312
H    -3.94543  -0.83880   3.91996
H    -4.54701   0.66177   3.16951
H    -3.80101  -1.01556   1.01548
H     2.24702  -0.43028  -4.65487
H     1.18262   1.02437  -4.69950
H     2.65171   1.01945  -3.66153
H     0.69996  -2.14179  -1.03665
H     2.90542  -1.20072  -0.51617
H     0.78438  -1.71162   2.96425
H     1.09724   0.95703   2.72617
H     2.97472   2.70488   2.12712
H     1.58057   3.18845   1.14349
H     3.23141   3.64650   0.61009
H    -0.51020  -2.52235   1.03045
H    -1.16535   2.50508  -0.72390
H    -2.08514   2.08234   0.73549
H    -2.55280   1.38392  -0.84456
