18
Generated by autodE on: 2022-05-31. E = -460.241421 Ha
C     2.84396  -0.07087   0.94201
C     1.78907   0.52562   0.04746
O     1.99826   1.53687  -0.62127
C     0.47911  -0.12849  -0.00554
C    -0.03453  -1.12865   0.73287
C    -1.49994  -1.24949   0.26859
C    -2.22990   0.02002   0.76787
C    -1.72931   1.01464   0.02934
C    -0.69552   0.34029  -0.89913
O    -1.34297  -0.92733  -1.12734
H     2.50462  -0.04800   1.99003
H     3.77896   0.49636   0.84598
H     3.01692  -1.12652   0.68075
H     0.42689  -1.70379   1.53488
H    -1.99607  -2.21355   0.42245
H    -2.94282   0.04819   1.59112
H    -1.92381   2.08556   0.07708
H    -0.43208   0.85238  -1.82966
