25
Generated by autodE on: 2022-05-31. E = -796.894417 Ha
C    -4.86244   0.00495   0.64299
N    -3.42386  -0.14455   0.74826
C    -2.61184   0.29044  -0.22703
O    -3.00859   0.83895  -1.25890
C    -1.16492   0.04917   0.04660
O    -0.80090  -0.57433   1.16326
C     0.63476  -0.68693   1.19859
O     1.16525  -1.22824   2.14446
C     1.04394  -0.06629  -0.01021
C     2.39061   0.11013  -0.51075
O     2.70104   0.64643  -1.56561
O     3.29873  -0.39906   0.34242
C     4.67260  -0.28173  -0.04358
N    -0.10858   0.36713  -0.67584
C    -0.11664   1.06825  -1.96473
H    -5.32609  -0.41270   1.54387
H    -5.14277   1.06597   0.55287
H    -5.25045  -0.52574  -0.24045
H    -3.02383  -0.58897   1.56929
H     4.95764   0.77492  -0.15428
H     4.85817  -0.80859  -0.99121
H     5.25165  -0.74495   0.76399
H     0.47634   1.98454  -1.86915
H     0.34202   0.42103  -2.72083
H    -1.15223   1.29563  -2.22141
