43
Generated by autodE on: 2022-05-31. E = -1257.117190 Ha. Imaginary frequency = -438.1 cm-1
C    -4.68033  -0.60826   2.65797
N    -3.70571  -0.68962   1.58580
C    -2.54248  -0.03388   1.65128
O    -2.20109   0.68677   2.59446
C    -1.60262  -0.28845   0.50625
O    -1.99928  -1.22273  -0.43622
C    -1.17285  -1.06690  -1.55622
O    -1.20716  -1.86527  -2.46871
C    -0.43993   0.14901  -1.30033
C     0.46793   0.83428  -2.21621
O     0.79539   2.00668  -2.13116
O     0.91588   0.01110  -3.17119
C     1.84568   0.56906  -4.11093
C     0.72674  -1.72907   0.27001
C     2.08844  -1.25954   0.79723
O     1.94315  -1.59927   2.19981
C     0.73737  -0.81807   2.39511
C     1.21331   0.54290   1.89620
C     2.06998   0.26839   0.89228
C     2.83636   1.13250  -0.01354
C     2.98601   2.58958   0.32556
O     3.38223   0.63695  -0.99829
C    -0.17311  -1.45554   1.30321
N    -0.96476   0.71698  -0.16077
C    -0.90400   2.12676   0.22534
H    -5.09099   0.40981   2.74698
H    -5.49908  -1.30501   2.44458
H    -4.21994  -0.87645   3.62077
H    -3.90843  -1.24622   0.76097
H     2.09030  -0.24225  -4.80602
H     1.39048   1.41026  -4.65325
H     2.75093   0.91220  -3.59089
H     0.61560  -2.45622  -0.53107
H     2.97178  -1.71573   0.34232
H     0.36718  -0.87688   3.42249
H     0.87472   1.50607   2.27007
H     3.21657   3.16142  -0.58274
H     2.09711   2.99891   0.82392
H     3.83145   2.69068   1.02799
H    -0.93620  -2.17027   1.61548
H     0.11758   2.50106   0.15064
H    -1.54308   2.70523  -0.45787
H    -1.27114   2.22203   1.24919
