32
Generated by autodE on: 2022-05-31. E = -1945.039430 Ha
C     4.26607   1.58237  -1.32881
O     2.89990   1.12633  -1.34362
C     2.48916   0.43974  -0.29118
O     3.16174   0.13069   0.66418
C     1.06048  -0.03185  -0.46496
N     0.23923   0.61897  -1.48812
C    -0.86076  -0.29451  -1.36297
C    -1.90186  -0.19916  -2.38059
N    -2.71542  -0.11745  -3.19919
O    -0.27759  -1.63948  -1.41686
C     0.97292  -1.51567  -0.89538
O     1.76885  -2.40378  -0.83244
C    -1.30003  -0.04336   0.11834
Cl   -2.22558   1.51886   0.16287
C    -2.29665  -1.12240   0.63469
C    -2.86414  -1.01177   2.01704
O    -2.66240  -1.96288  -0.15637
C     0.12442   0.10442   0.78807
Cl    0.45241  -1.21329   1.97899
C     0.36087   1.48306   1.48765
C    -0.22128   1.71926   2.84584
O     1.06058   2.29098   0.92182
H     4.94926   0.72564  -1.24750
H     4.41604   2.10578  -2.27916
H     4.42173   2.26615  -0.48282
H     0.67809   0.57757  -2.41274
H    -3.73640  -0.33876   1.97120
H    -2.15907  -0.60317   2.74824
H    -3.20996  -2.00464   2.33218
H     0.49861   1.33678   3.58915
H    -1.17612   1.20712   3.00898
H    -0.33149   2.80096   2.99575
