16
Generated by autodE on: 2022-05-31. E = -1303.307849 Ha
C     3.10552   0.65626   0.25836
C     1.94468  -0.29383   0.34176
O     2.03967  -1.39558   0.84826
C     0.62106   0.15847  -0.23486
Cl    0.74824   1.36471  -1.49434
C    -0.59865  -0.25235   0.18125
Cl   -0.80245  -1.37445   1.49563
C    -1.91796   0.23205  -0.39453
C    -2.99782   0.60354   0.57975
O    -2.06126   0.29084  -1.59890
H     3.45639   0.72912  -0.78367
H     3.91870   0.27200   0.88706
H     2.81663   1.66972   0.57559
H    -3.77684   1.16555   0.04859
H    -3.44272  -0.30903   1.00804
H    -2.59141   1.19441   1.41484
