16
Generated by autodE on: 2022-05-31. E = -641.713316 Ha
C    -3.89788   0.63265   0.25676
O    -2.61336   0.02663   0.05213
C    -1.54670   0.80462   0.26276
O    -1.60199   1.97393   0.61045
C    -0.29993   0.10049   0.03132
N     0.90686   0.73098   0.19972
C     1.89433  -0.10160  -0.06273
C     3.27701   0.17186   0.00194
N     4.41813   0.39157   0.05381
O     1.41942  -1.29315  -0.40988
C    -0.03266  -1.23917  -0.37082
O    -0.67644  -2.22026  -0.65237
H    -4.00087   0.97590   1.29635
H    -4.63552  -0.14858   0.04095
H    -4.03524   1.48421  -0.42523
H     1.01069   1.70772   0.48843
