41
Generated by autodE on: 2022-06-20. E = -1143.753206 Ha
C    -1.68820  -1.56927  -2.71473
O    -1.71148  -0.63323  -1.61744
C    -1.57526  -1.11878  -0.39992
O    -1.47294  -2.29146  -0.11722
C    -1.48582   0.00303   0.66058
C    -2.09853  -0.51346   1.88864
N    -2.61013  -0.91731   2.84619
N    -2.09800   1.25915   0.23574
C    -1.05425   2.06118  -0.43795
C     0.30693   1.34973  -0.23271
O     1.37390   2.20017   0.14803
C     1.68969   3.29234  -0.70805
C     0.79454   0.61820  -1.49629
O     0.65047   1.14988  -2.58652
C     1.53638  -0.66079  -1.35735
C     2.16978  -1.21528  -2.59398
C     1.58228  -1.34561  -0.17691
C     2.26769  -2.67104  -0.07491
C     0.92029  -0.84031   1.04755
O     1.02078  -1.41101   2.12274
C     0.02899   0.39223   0.95105
O    -0.04801   1.11278   2.14888
C     1.14322   1.35356   2.90280
H    -1.70539  -0.95798  -3.62285
H    -0.77226  -2.17367  -2.67086
H    -2.57223  -2.21914  -2.66495
H    -2.38342   1.75313   1.07905
H    -1.26550   2.17356  -1.50799
H    -1.01686   3.05996   0.01274
H     0.80943   3.92328  -0.91194
H     2.12029   2.95959  -1.66626
H     2.43781   3.89040  -0.17027
H     1.75034  -2.20666  -2.83131
H     2.01578  -0.54954  -3.45024
H     3.25162  -1.36032  -2.44068
H     3.29703  -2.61359  -0.46107
H     2.28979  -3.02689   0.96125
H     1.73703  -3.41595  -0.69193
H     2.04874   1.24611   2.29383
H     1.19486   0.66052   3.75611
H     1.08956   2.38741   3.27284
