26
Generated by autodE on: 2022-06-20. E = -689.460857 Ha
C    -2.50054   2.10055   0.93206
O    -1.08767   2.06055   0.70499
C    -0.44397   0.94655   0.35749
C    -0.92476  -0.32170   0.22296
O    -2.22069  -0.65893   0.49082
C    -3.03569  -0.96452  -0.64568
C    -0.01759  -1.42849  -0.14892
O    -0.45701  -2.57542  -0.21294
C     1.42256  -1.14583  -0.43028
C     2.28862  -2.29463  -0.84039
C     1.91321   0.11106  -0.29334
C     3.35315   0.43694  -0.54482
C     1.01681   1.22178   0.11749
O     1.43177   2.36430   0.25594
H    -2.72445   3.14829   1.16942
H    -2.78403   1.45817   1.77558
H    -3.05243   1.80315   0.02897
H    -4.03935  -1.18779  -0.26018
H    -2.65122  -1.83889  -1.19133
H    -3.09055  -0.10019  -1.32820
H     1.71030  -3.22317  -0.91015
H     3.10802  -2.44144  -0.11696
H     2.76385  -2.09505  -1.81492
H     3.63645   0.17687  -1.57806
H     4.00789  -0.15198   0.11850
H     3.55386   1.50236  -0.38220
