15
Generated by autodE on: 2022-07-27. E = -454.267852 Ha
C     0.97763   2.72833  -0.74111
N     0.78715   1.45095  -0.82257
C     0.10813   0.57778   0.00852
C    -0.51935   1.04505   1.17144
N    -1.03606   1.45621   2.13756
C     0.10579  -0.79765  -0.41915
O     0.65864  -1.19491  -1.44328
O    -0.56681  -1.60749   0.42049
C    -0.62022  -2.99387   0.06768
H     1.55478   3.21453  -1.52684
H     0.56363   3.28841   0.09950
H     1.19066   0.95314  -1.62838
H     0.39118  -3.42372   0.01806
H    -1.19738  -3.48493   0.86014
H    -1.12105  -3.13149  -0.90210
