41
Generated by autodE on: 2022-06-20. E = -1143.713589 Ha. Imaginary frequency = -477.7 cm-1
C    -2.23071  -3.38417   0.19817
O    -2.28227  -1.99897   0.55958
C    -1.92797  -1.10974  -0.38821
O    -1.56443  -1.44029  -1.51121
C    -2.01384   0.25317   0.10931
C    -2.69409   0.52898   1.31454
N    -3.23261   0.79617   2.31583
N    -1.68012   1.33952  -0.67846
C    -0.57472   1.35055  -1.45486
C     0.93724   1.40107  -0.13545
O     0.94833   2.67476   0.37168
C     1.18848   3.81855  -0.44719
C     2.01737   0.97708  -1.09378
O     2.79000   1.79172  -1.57448
C     2.04938  -0.45947  -1.48430
C     2.74312  -0.81461  -2.76276
C     1.49737  -1.39160  -0.66766
C     1.53432  -2.85048  -1.00033
C     0.86832  -1.00150   0.63171
O     0.58644  -1.86775   1.46418
C     0.62728   0.42989   0.87605
O     0.30706   0.94470   2.06297
C     0.02800   0.15762   3.22905
H    -1.22197  -3.66385  -0.13401
H    -2.49606  -3.93982   1.10510
H    -2.95357  -3.60172  -0.60186
H    -2.00106   2.24502  -0.33647
H    -0.42591   2.26447  -2.03129
H    -0.34648   0.41649  -1.96680
H     0.83546   3.68556  -1.47838
H     2.25905   4.06592  -0.47055
H     0.63323   4.64683   0.01595
H     3.15313   0.07722  -3.25196
H     3.56589  -1.52550  -2.58092
H     2.04405  -1.31153  -3.45544
H     2.55862  -3.17371  -1.24404
H     0.91471  -3.05160  -1.88954
H     1.16054  -3.45568  -0.16690
H    -0.27996   0.88454   3.99090
H     0.93007  -0.37449   3.56123
H    -0.77791  -0.55963   3.04270
