43
Generated by autodE on: 2022-06-21. E = -1063.083278 Ha
C     3.77039   1.11413  -1.90702
N     2.96600   1.04665  -0.70081
C     2.09331   0.04644  -0.49768
O     2.00252  -0.91442  -1.27131
C     1.17198   0.13836   0.75485
C     1.93329   0.68976   1.96329
N     0.60604  -1.17931   1.06357
C     1.46058  -2.28333   1.45592
C    -0.55924  -1.47169   0.25930
C    -1.69107  -1.88676   1.12631
N    -2.55896  -2.19975   1.82818
C    -0.36610  -2.55214  -0.73857
N    -0.22785  -3.42172  -1.49319
C    -0.86787  -0.09805  -0.49229
N    -2.23828   0.21073  -0.75380
C    -2.93271  -0.60218  -1.73778
C    -2.95755   0.93264   0.19417
C    -2.41141   1.48657   1.29107
C    -0.96351   1.28963   1.64004
C    -0.12831   0.93819   0.38337
C     0.17273   2.25671  -0.34829
N    -0.41721   2.45185  -1.53592
O     0.92339   3.09345   0.16526
H     4.31696   0.17222  -2.05680
H     4.49316   1.93330  -1.80801
H     3.14776   1.29359  -2.79969
H     2.87955   1.88398  -0.13343
H     2.15968   1.75351   1.82745
H     2.87863   0.14872   2.10637
H     1.33174   0.58128   2.87407
H     0.83596  -3.10609   1.83602
H     2.12018  -1.96846   2.27540
H     2.08402  -2.66938   0.62985
H    -0.34545  -0.19438  -1.45221
H    -2.29092  -0.73948  -2.62110
H    -3.85406  -0.09198  -2.05277
H    -3.20716  -1.60173  -1.35147
H    -4.01477   1.06014  -0.04962
H    -3.04294   2.07746   1.95653
H    -0.85179   0.48579   2.38554
H    -0.54184   2.19367   2.10140
H    -1.15309   1.83478  -1.86850
H    -0.28464   3.34645  -1.99923
