20
Generated by autodE on: 2022-06-21. E = -457.715331 Ha
C    -3.05576   0.04182  -0.87165
N    -1.82365  -0.11566  -0.11636
C    -1.84877  -0.78785   1.11219
C    -0.73828  -1.04146   1.82262
C     0.64124  -0.62834   1.37220
C     0.57265   0.06361   0.02067
C     1.78864   0.54834  -0.65128
N     2.95490   0.34777   0.01246
O     1.78267   1.11034  -1.76553
C    -0.61499   0.26535  -0.61682
H    -3.83043   0.52186  -0.25376
H    -2.86654   0.67501  -1.74751
H    -3.44339  -0.93104  -1.21851
H    -2.84170  -1.08984   1.45041
H    -0.83973  -1.56694   2.77495
H     1.30854  -1.51328   1.33019
H     1.10808   0.03193   2.13216
H     2.99627  -0.08422   0.92664
H     3.81640   0.67620  -0.40986
H    -0.63451   0.76347  -1.58747
