43
Generated by autodE on: 2022-06-21. E = -1063.035104 Ha. Imaginary frequency = -358.6 cm-1
C     3.45066  -0.15173  -2.30335
N     2.80856   0.04889  -1.01720
C     1.48378   0.22026  -0.91006
O     0.75726   0.35157  -1.90051
C     0.96211   0.22807   0.54803
C     1.86853   1.00257   1.49412
N     0.63414  -1.05439   0.94977
C     0.42912  -1.41204   2.34632
C     0.32768  -2.08627   0.00024
C    -0.95849  -2.63083  -0.07050
N    -2.03326  -3.10618  -0.12148
C     1.37006  -2.73604  -0.67516
N     2.23944  -3.26586  -1.26451
C    -1.50038   0.98350  -0.56243
N    -2.52521   0.18315  -0.36198
C    -3.34179  -0.30579  -1.47513
C    -2.89181  -0.23588   0.94244
C    -2.31850   0.31731   2.01371
C    -1.28145   1.38950   1.88867
C    -0.64528   1.45629   0.49362
C    -0.02971   2.81787   0.22664
N     0.42160   3.08195  -1.01639
O     0.04381   3.65013   1.13741
H     3.23324  -1.15790  -2.69704
H     4.53524  -0.04215  -2.17953
H     3.09429   0.59534  -3.02530
H     3.34538  -0.15841  -0.18141
H     2.27449   1.89119   0.99865
H     2.70780   0.36180   1.80626
H     1.35433   1.33032   2.40468
H    -0.64424  -1.57829   2.54847
H     0.78410  -0.62914   3.02480
H     0.96858  -2.34538   2.56714
H    -1.35096   1.28947  -1.59328
H    -2.93363   0.07048  -2.41960
H    -4.37722   0.04259  -1.35085
H    -3.32232  -1.40345  -1.46913
H    -3.66657  -0.99873   0.97707
H    -2.64963   0.01576   3.00906
H    -0.51856   1.27102   2.67002
H    -1.74761   2.36480   2.12001
H     0.49270   2.35679  -1.72484
H     0.87880   3.97428  -1.17441
