31
Generated by autodE on: 2022-05-31. E = -1454.907087 Ha
C     3.22337  -1.66400  -1.25490
C     2.61791  -0.48758  -0.55034
O     2.57323   0.71194  -1.37023
C     2.09083   1.56271  -0.36852
C     2.04498   2.95964  -0.79451
N     1.96994   4.06608  -1.12590
O     3.05411   1.40159   0.71079
C     3.41709   0.08118   0.63386
O     4.18212  -0.44089   1.39277
C     0.77705   0.92129   0.12909
C    -0.42801   1.00181  -0.85479
O    -0.07044   0.06671  -1.86961
C     0.08901  -1.06667  -1.01900
C    -1.22639  -1.04278  -0.23320
C    -1.84362  -2.26708   0.36874
F    -2.85608  -2.73470  -0.37960
F    -2.32149  -2.05834   1.60503
F    -0.92451  -3.24694   0.45671
C    -1.55924   0.25156  -0.14417
C    -2.65593   0.93140   0.60973
F    -3.70929   0.13030   0.82021
F    -3.09672   2.00990  -0.06185
F    -2.22948   1.36566   1.81220
C     1.16600  -0.58536   0.00125
H     3.25070  -2.51909  -0.56452
H     4.24944  -1.43254  -1.57332
H     2.62491  -1.93564  -2.13496
H     0.53314   1.27446   1.13557
H    -0.66181   1.98975  -1.26449
H     0.31757  -1.97661  -1.58122
H     1.13483  -1.15448   0.93682
