31
Generated by autodE on: 2022-05-31. E = -1454.811112 Ha. Imaginary frequency = -164.2 cm-1. Additional imaginary frequencies: [Frequency(-1.89136 cm^-1)] cm-1
C     3.41214  -1.51598  -1.61237
C     3.26236  -0.29917  -0.79543
O     2.77996   0.83656  -1.33768
C     2.69762   1.74845  -0.38265
C     2.36742   3.08708  -0.66994
N     2.03022   4.18243  -0.87855
O     3.40373   1.37787   0.68342
C     3.75083   0.00418   0.51087
O     4.32005  -0.62015   1.38056
C     0.60016   0.85110   0.53187
C    -0.40561   0.92021  -0.63498
O     0.12562  -0.07623  -1.51293
C     0.16141  -1.13001  -0.54610
C    -1.32564  -1.11172  -0.08932
C    -2.04889  -2.31001   0.43760
F    -3.31033  -2.39035  -0.01099
F    -2.10135  -2.30686   1.78339
F    -1.42145  -3.44291   0.07303
C    -1.67700   0.17631  -0.14150
C    -2.90040   0.90436   0.29281
F    -3.79695   0.12284   0.90928
F    -3.52035   1.48832  -0.74852
F    -2.56180   1.88878   1.15087
C     0.96533  -0.45907   0.58514
H     3.47091  -2.38855  -0.94707
H     4.33460  -1.48134  -2.21783
H     2.55660  -1.63132  -2.29280
H     0.69884   1.61390   1.30153
H    -0.55909   1.88490  -1.12914
H     0.53283  -2.07133  -0.95983
H     1.46009  -0.99764   1.39073
