40
Generated by autodE on: 2022-06-20. E = -1064.761447 Ha
C    -4.69715   1.11760  -0.19037
N    -3.30869   1.01569   0.21253
C    -2.50093   0.04287  -0.22881
O    -2.86167  -0.89305  -0.94324
C    -1.03292   0.15553   0.24358
C    -0.79171  -0.97024   1.26632
C    -0.50789  -0.57315   2.68321
O    -0.88022  -2.12898   0.90755
O    -0.81245   1.42611   0.86221
C     0.06933   2.22586   0.07497
C    -0.69689   3.07688  -0.85862
N    -1.30709   3.73926  -1.58952
C     0.97189   1.21927  -0.63995
C     2.07646   0.73646   0.31443
C     2.47225  -0.69421   0.05985
C     3.67671  -1.28115   0.66634
N     4.39373  -0.47481   1.49002
O     4.04333  -2.45562   0.45951
C     1.71768  -1.49554  -0.74480
N     0.56373  -1.12618  -1.35583
C    -0.17382  -2.06899  -2.18293
C    -0.04898   0.12398  -1.00521
H    -5.12725   0.11303  -0.29688
H    -5.25824   1.66927   0.57498
H    -4.80389   1.64466  -1.15336
H    -2.87741   1.77435   0.73248
H    -1.32021   0.06868   3.05910
H    -0.41745  -1.47587   3.30033
H     0.41707   0.01975   2.73946
H     0.62653   2.88717   0.75411
H     1.40526   1.63680  -1.55749
H     1.74900   0.86617   1.36066
H     2.94172   1.40677   0.18772
H     5.21642  -0.85660   1.94342
H     4.11533   0.47261   1.71141
H     2.04887  -2.51599  -0.94487
H    -0.97764  -2.56324  -1.61895
H     0.51924  -2.82857  -2.56772
H    -0.62357  -1.54173  -3.03736
H    -0.63400   0.45966  -1.87174
