20
Generated by autodE on: 2022-07-27. E = -606.939882 Ha
C    -2.86841  -0.39786  -1.70985
N    -1.92192  -0.61411  -0.63559
C    -0.71179  -0.02747  -0.64357
O    -0.35630   0.80011  -1.50036
C     0.23308  -0.45423   0.40477
O     1.38894   0.17922   0.54346
C     1.91247   1.30502   0.19710
C     1.25694   2.42121  -0.36376
N     0.87646   3.46771  -0.71696
C     0.15027  -1.67202   1.20234
C     1.34170  -2.04697   2.04527
O    -0.88069  -2.35721   1.20656
H    -2.53831  -0.86665  -2.65288
H    -3.83615  -0.82827  -1.42418
H    -2.99875   0.67807  -1.89671
H    -2.04237  -1.38454   0.02436
H     2.95224   1.41706   0.51296
H     1.52252  -1.27892   2.81418
H     1.14231  -3.01076   2.53015
H     2.25355  -2.11445   1.43229
