20
Generated by autodE on: 2022-06-20. E = -606.946592 Ha
C     3.75152  -0.20799   0.43777
N     2.38466  -0.66588   0.31105
C     1.37057   0.20047   0.14532
O     1.53612   1.43416   0.09301
C     0.02267  -0.38856   0.02487
O    -1.02800   0.40013  -0.13812
C    -1.17931   1.68050  -0.22451
C    -2.50316   2.13483  -0.39865
N    -3.58132   2.55767  -0.54346
C    -0.32929  -1.80373   0.05941
C    -1.78332  -2.17163  -0.08783
O     0.54049  -2.67214   0.20464
H     3.87165   0.46289   1.30383
H     4.40522  -1.07815   0.57230
H     4.07628   0.34350  -0.45961
H     2.14274  -1.65765   0.33777
H    -0.31853   2.34518  -0.16224
H    -2.18218  -1.80389  -1.04610
H    -1.87772  -3.26360  -0.04086
H    -2.38376  -1.71092   0.71206
