40
Generated by autodE on: 2022-06-20. E = -1064.671543 Ha. Imaginary frequency = -186.9 cm-1
C    -4.61103   0.11844  -1.22577
N    -3.65085  -0.11503  -0.17011
C    -2.46274   0.53189  -0.14950
O    -2.20536   1.46170  -0.94614
C    -1.49406   0.06601   0.83398
C    -1.58798  -1.11810   1.62549
C    -0.41346  -1.48669   2.50922
O    -2.60426  -1.85778   1.61172
O    -0.29154   0.71032   0.99313
C     0.26845   1.77798   0.51409
C    -0.40851   2.95262   0.05654
N    -0.74734   4.03152  -0.22459
C     1.55140   1.31807  -1.40016
C     2.81633   0.79645  -0.76675
C     2.61160  -0.62567  -0.29305
C     3.52966  -1.27638   0.67624
N     4.66666  -0.60690   0.95922
O     3.26547  -2.36730   1.20930
C     1.57325  -1.36178  -0.74428
N     0.61344  -0.86942  -1.61858
C    -0.54054  -1.70754  -1.91814
C     0.60298   0.45900  -1.90247
H    -4.23841  -0.21261  -2.21173
H    -5.53181  -0.43443  -0.99945
H    -4.85670   1.18816  -1.30639
H    -3.70474  -0.94244   0.43047
H    -0.16409  -0.66984   3.20390
H    -0.67803  -2.38555   3.08144
H     0.49091  -1.69074   1.91452
H     1.23402   1.98069   0.98451
H     1.53286   2.35271  -1.74435
H     3.11990   1.44842   0.07089
H     3.65277   0.85336  -1.49288
H     5.32583  -1.01943   1.61151
H     4.92354   0.25548   0.49418
H     1.43105  -2.39372  -0.42466
H    -1.17378  -1.81274  -1.02154
H    -0.20578  -2.70326  -2.23776
H    -1.12968  -1.24695  -2.71941
H    -0.24833   0.81821  -2.47921
