38
Generated by autodE on: 2022-06-03. E = -1732.758704 Ha
C     4.46753   2.14035   0.95414
N     3.31356   1.29152   1.17918
C     2.94712   0.36726   0.28332
O     3.62055   0.04715  -0.69868
C     1.60997  -0.33444   0.56795
N     1.60385  -1.63009  -0.06724
C     0.23699  -2.10008  -0.01694
C    -0.03801  -3.04819  -1.09687
N    -0.20252  -3.83726  -1.92869
C    -0.73871  -0.81661   0.07581
C    -1.81963  -0.80669  -1.03933
F    -1.27833  -0.84943  -2.25885
F    -2.62291  -1.87137  -0.92732
F    -2.59864   0.28440  -0.97218
C    -1.49106  -0.96098   1.44239
F    -2.05506  -2.16935   1.54616
F    -0.64216  -0.83360   2.47034
F    -2.46064  -0.05564   1.60419
C     0.28601   0.40694   0.09836
C    -0.06970   1.55126   1.10770
O     0.63192   1.73273   2.10300
N    -1.13294   2.30758   0.82390
C    -1.60336   3.32000   1.75458
C     0.55398   1.08515  -1.27269
F     1.42490   2.09437  -1.09523
F    -0.53947   1.62613  -1.83133
F     1.08780   0.25113  -2.17247
H     5.34933   1.53123   0.71095
H     4.29561   2.84246   0.12048
H     4.67292   2.71542   1.86537
H     2.60112   1.57815   1.85085
H     1.50767  -0.44442   1.65262
H     1.93270  -1.52903  -1.02806
H     0.08479  -2.67159   0.91002
H    -1.72792   2.07283   0.03728
H    -2.00457   2.85410   2.66917
H    -0.78097   3.99171   2.03726
H    -2.39573   3.90162   1.26928
