22
Generated by autodE on: 2022-06-03. E = -1298.308430 Ha
C     3.18282  -0.19992   0.00064
N     2.60725   0.13954  -1.28752
C     1.32493   0.40173  -1.54546
O     0.85314   0.63033  -2.65813
C     0.37320   0.52588  -0.35790
C    -0.40325  -0.46892   0.09497
C    -0.25845  -1.90274  -0.39350
F    -0.20136  -2.74252   0.65337
F    -1.30113  -2.26503  -1.15222
F     0.84823  -2.09811  -1.11681
C    -1.47140  -0.30594   1.17293
F    -2.39028  -1.27981   1.08607
F    -2.12437   0.85613   1.06973
F    -0.93454  -0.37218   2.39912
C     0.28881   1.96842   0.13978
F    -0.74424   2.62085  -0.40359
F     1.40331   2.63537  -0.20120
F     0.18282   2.04044   1.47210
H     3.48137  -1.25937   0.03212
H     4.06754   0.42272   0.19679
H     2.45491  -0.02471   0.80220
H     3.21150   0.09742  -2.10703
