16
Generated by autodE on: 2022-06-03. E = -434.398479 Ha
C     3.46661  -0.25039  -0.41742
N     2.38235  -1.04322  -0.96858
C     1.06394  -0.86072  -0.73862
O     0.19276  -1.60153  -1.24560
C     0.67229   0.24380   0.13296
N    -0.63245   0.36844   0.32241
C    -1.33481   1.24975   1.04515
C    -2.73217   1.17117   1.09025
N    -3.90174   1.12561   1.14306
H     4.41442  -0.64563  -0.80249
H     3.39349   0.80776  -0.71413
H     3.49721  -0.30187   0.68265
H     2.61104  -1.82684  -1.57284
H     1.34948   0.94356   0.61710
H    -1.15764  -0.35798  -0.19323
H    -0.80000   2.02463   1.59539
