38
Generated by autodE on: 2022-06-03. E = -1732.717012 Ha. Imaginary frequency = -75.8 cm-1
C     4.43923   2.16830   0.68387
N     3.41542   1.23254   1.10080
C     3.14983   0.12741   0.38221
O     3.83478  -0.27853  -0.56833
C     1.93385  -0.60704   0.80190
N     1.61308  -1.66381   0.07344
C     0.53195  -2.44353   0.25290
C     0.26276  -3.47827  -0.66926
N     0.01088  -4.32748  -1.42825
C    -1.04934  -0.39767  -0.01883
C    -1.64639  -0.86504  -1.33859
F    -0.73308  -1.01258  -2.30561
F    -2.29514  -2.03349  -1.23010
F    -2.55406   0.03165  -1.78121
C    -1.92142  -0.72704   1.18722
F    -2.24020  -2.02559   1.27774
F    -1.32211  -0.40121   2.34376
F    -3.08926  -0.05072   1.13545
C    -0.15572   0.65504   0.07075
C    -0.17273   1.62555   1.26503
O     0.73810   1.73471   2.08741
N    -1.26712   2.39812   1.29217
C    -1.47449   3.38162   2.34079
C     0.48705   1.30261  -1.15067
F     1.26588   2.33522  -0.77410
F    -0.43734   1.80619  -1.99295
F     1.26269   0.48127  -1.87183
H     5.36690   1.63284   0.44002
H     4.12725   2.73905  -0.20826
H     4.63977   2.87326   1.50059
H     2.64344   1.57167   1.67945
H     1.47443  -0.47374   1.77694
H     2.15412  -1.75752  -0.79768
H     0.10994  -2.50803   1.25344
H    -2.00069   2.24236   0.60649
H    -1.58547   2.89057   3.32071
H    -0.62247   4.07507   2.39593
H    -2.38641   3.94735   2.11676
