40
Generated by autodE on: 2022-10-23. E = -1052.259761 Ha
C     1.93053   4.27443   1.44578
N     1.24023   3.07397   1.02433
C     1.91101   1.92630   0.78453
O     3.13465   1.81639   0.96494
C     1.10086   0.78615   0.29190
O    -0.16079   1.09249   0.12410
C    -1.29679   0.46205  -0.15588
C    -2.40417   1.36756  -0.41071
O    -3.54928   1.00446  -0.65727
O    -2.05299   2.67180  -0.35336
C    -3.10366   3.62025  -0.56124
C    -1.44378  -0.98802  -0.10910
C    -0.83859  -1.73761   0.92269
C    -0.93657  -3.12717   0.94218
C    -1.63999  -3.79689  -0.06456
C    -2.26499  -3.06342  -1.07992
C    -2.17308  -1.67267  -1.10315
C     1.67496  -0.50403  -0.05593
C     1.28244  -1.16229  -1.24186
C     1.79538  -2.41835  -1.55549
C     2.70013  -3.04327  -0.69047
C     3.11044  -2.39219   0.47909
C     2.61102  -1.13003   0.79387
H     2.64757   4.62258   0.68347
H     2.49084   4.10208   2.37806
H     1.19116   5.06550   1.62004
H     0.24866   3.11559   0.81094
H    -3.54784   3.49738  -1.56014
H    -2.63858   4.60952  -0.47597
H    -3.89035   3.50719   0.19969
H    -0.29216  -1.22612   1.71532
H    -0.45611  -3.69064   1.74504
H    -1.70465  -4.88734  -0.05646
H    -2.81765  -3.58090  -1.86748
H    -2.64307  -1.10703  -1.90796
H     0.58158  -0.67989  -1.92299
H     1.48130  -2.91597  -2.47544
H     3.08871  -4.03597  -0.92892
H     3.81793  -2.87710   1.15544
H     2.91700  -0.63110   1.71285
