40
Generated by autodE on: 2022-10-26. E = -1052.254115 Ha
C     3.06198  -3.20284   0.60553
N     2.54444  -1.85074   0.67260
C     1.54766  -1.40479  -0.10795
O     1.00105  -2.07272  -0.99436
C     1.11465   0.01505   0.10737
O    -0.15102   0.31532  -0.01226
C    -1.29098  -0.38591  -0.07290
C    -1.39518  -1.71266   0.51678
O    -2.26395  -2.53535   0.25677
O    -0.46139  -1.92800   1.46581
C    -0.38224  -3.24748   2.01374
C    -2.40034   0.36141  -0.63551
C    -2.15619   1.59185  -1.29649
C    -3.20513   2.34704  -1.81593
C    -4.52646   1.89721  -1.71312
C    -4.78189   0.67785  -1.07471
C    -3.74280  -0.08088  -0.54033
C     1.99899   1.15403   0.22326
C     3.38535   1.05826  -0.05020
C     4.20339   2.18118   0.04618
C     3.66878   3.42251   0.40940
C     2.29827   3.53264   0.67792
C     1.47147   2.41740   0.59258
H     2.85227  -3.74615   1.54024
H     2.57924  -3.72599  -0.22771
H     4.15051  -3.19534   0.44159
H     2.89926  -1.23307   1.39655
H     0.43073  -3.22219   2.74839
H    -0.15463  -3.97691   1.22272
H    -1.32616  -3.52269   2.50563
H    -1.13096   1.94667  -1.40699
H    -2.98639   3.29234  -2.31888
H    -5.34615   2.48624  -2.13048
H    -5.80819   0.31299  -0.98529
H    -3.96475  -1.02207  -0.04113
H     3.81861   0.10932  -0.36460
H     5.26885   2.08794  -0.17562
H     4.31605   4.29897   0.48463
H     1.87376   4.49648   0.96806
H     0.41001   2.50504   0.82658
