18
Generated by autodE on: 2022-06-21. E = -235.968069 Ha
C    -1.42202  -0.99512  -0.93446
C    -0.67206   0.00068  -0.08265
C    -1.60375   0.99900   0.56141
C     0.67205  -0.00073   0.08273
C     1.60374  -0.99904  -0.56135
C     1.42204   0.99520   0.93435
H    -0.78592  -1.74454  -1.42047
H    -1.99106  -0.47242  -1.72426
H    -2.17217  -1.53214  -0.32647
H    -2.18368   1.53585  -0.21073
H    -1.10231   1.74853   1.18519
H    -2.34784   0.47884   1.19119
H     2.34759  -0.47893  -1.19145
H     2.18393  -1.53560   0.21079
H     1.10225  -1.74882  -1.18480
H     1.99129   0.47264   1.72410
H     0.78597   1.74463   1.42037
H     2.17202   1.53223   0.32616
