31
Generated by autodE on: 2022-07-27. E = -726.227571 Ha
C     1.78362  -0.99015   2.81200
N     1.71437  -0.35697   1.50698
C     1.33500  -1.03114   0.41683
O     1.10265  -2.23914   0.36614
C     1.30260  -0.25493  -0.88485
C     2.39842  -0.50371  -1.85613
N     0.29258   0.51466  -1.13427
C     0.14283   1.18723  -2.43182
C    -0.86150   0.51747  -0.25227
C    -1.70663  -0.62815  -0.44021
C    -2.97056  -0.75539   0.38174
O    -1.42509  -1.52086  -1.26785
C    -1.07935   1.64731   0.59354
C    -0.03944   2.75820   0.61375
O    -2.06090   1.76037   1.35885
H     0.78419  -1.08194   3.26823
H     2.21400  -1.99588   2.71503
H     2.42092  -0.38664   3.46983
H     1.80213   0.65391   1.44615
H     1.98494  -0.86893  -2.80998
H     2.93315   0.43797  -2.06523
H     3.10814  -1.23850  -1.45941
H    -0.52331   2.04571  -2.29734
H    -0.32119   0.47704  -3.13341
H     1.11086   1.52060  -2.82273
H    -3.65548   0.08318   0.18711
H    -3.45880  -1.70423   0.11917
H    -2.74826  -0.73062   1.45841
H     0.61256   2.80223  -0.26775
H     0.60103   2.61804   1.50211
H    -0.55706   3.72059   0.73519
