49
Generated by autodE on: 2022-06-21. E = -962.148382 Ha. Imaginary frequency = -295.9 cm-1
C     3.43746   0.70481   2.57595
N     2.96942   0.54079   1.21342
C     1.65777   0.38283   0.94935
O     0.83374   0.44110   1.86826
C     1.28781   0.14541  -0.51799
C     2.48147   0.07475  -1.44314
N     0.19461   0.82905  -1.03007
C     0.30382   1.44040  -2.36357
C    -1.05663   0.80068  -0.38538
C    -2.23341   0.56711  -1.19920
C    -3.61624   0.68694  -0.58486
O    -2.16020   0.24276  -2.40160
C    -1.21579   1.53989   0.88410
C    -0.40192   2.80927   1.05416
O    -2.10047   1.28618   1.70562
C    -0.74178  -1.78762   0.10705
C    -1.12757  -1.84686   1.55288
C    -1.80358  -2.28277  -0.82475
C     0.62852  -1.85208  -0.31436
C     1.61513  -2.44399   0.68453
C     0.85878  -2.38866  -1.71883
H     2.95856   1.57175   3.05574
H     4.52296   0.86069   2.56003
H     3.21333  -0.18553   3.18604
H     3.65739   0.46005   0.47638
H     2.19294  -0.20047  -2.46095
H     3.19918  -0.67686  -1.09096
H     3.00093   1.04591  -1.49490
H    -0.55838   2.09376  -2.51916
H     0.33701   0.70930  -3.18259
H     1.20911   2.06262  -2.40403
H    -3.78651   1.67882  -0.14122
H    -3.76938  -0.05000   0.21555
H    -4.34921   0.51057  -1.38360
H     0.53241   2.82260   0.48146
H    -0.19771   2.98462   2.11907
H    -1.03258   3.63773   0.68525
H    -2.13843  -1.44466   1.70636
H    -1.15122  -2.91108   1.86093
H    -0.43168  -1.31547   2.20681
H    -2.81228  -2.07182  -0.44698
H    -1.71794  -1.89141  -1.84426
H    -1.69774  -3.38336  -0.89604
H     1.45926  -3.53642   0.73375
H     1.50053  -2.05295   1.70142
H     2.65417  -2.28022   0.36421
H     1.92912  -2.43934  -1.95593
H     0.36150  -1.78082  -2.48700
H     0.46323  -3.41577  -1.80214
