19
Generated by autodE on: 2022-06-06. E = -461.261365 Ha
C     3.98024   0.64274  -0.15623
C     3.09717  -0.39518   0.47927
O     3.53569  -1.33242   1.13739
C     1.67348  -0.23343   0.27376
C     0.47615  -0.08489   0.09142
C    -0.92305   0.08265  -0.11827
C    -1.40224   1.17106  -0.87888
C    -2.77158   1.32988  -1.08131
C    -3.67489   0.41242  -0.53230
C    -3.20741  -0.66922   0.22311
C    -1.84034  -0.83832   0.43234
H     5.03414   0.42098   0.05836
H     3.71610   1.64142   0.22859
H     3.80913   0.66112  -1.24499
H    -0.69154   1.88206  -1.30385
H    -3.13795   2.17326  -1.67056
H    -4.74761   0.54088  -0.69402
H    -3.91352  -1.38423   0.65078
H    -1.46781  -1.67912   1.02013
