49
Generated by autodE on: 2022-06-06. E = -1242.136049 Ha. Imaginary frequency = -314.3 cm-1
C     0.40497   1.28416   3.32489
C    -0.05327   0.11024   2.50104
O    -0.76591  -0.77273   2.96121
C     0.40594   0.12248   1.11021
C     1.47396   0.15378   0.44468
C     2.86284   0.05036   0.13392
C     3.68384   1.19975   0.12814
C     5.03796   1.08680  -0.18103
C     5.58898  -0.16062  -0.49646
C     4.77982  -1.30259  -0.49817
C     3.42449  -1.20520  -0.18755
C     0.54105   0.70173  -1.67468
C     1.38401   1.73534  -2.15611
N     2.12126   2.56703  -2.50991
C     0.79430  -0.59438  -2.20251
N     1.13276  -1.61737  -2.64957
N    -0.66264   1.07920  -1.09960
C    -1.32000   0.30437  -0.19626
C    -1.56448  -1.11541  -0.62686
C    -2.16845  -1.29910  -1.88323
C    -2.43085  -2.58326  -2.36172
C    -2.09831  -3.69872  -1.58889
C    -1.52200  -3.51998  -0.32713
C    -1.26208  -2.23689   0.15665
C    -2.33709   0.97363   0.65417
C    -3.44761   0.25541   1.12951
C    -4.38245   0.86743   1.96650
C    -4.22325   2.20333   2.34232
C    -3.11578   2.92532   1.88177
C    -2.17665   2.31551   1.05319
H     0.06232   2.22068   2.85802
H     0.00886   1.20473   4.34609
H     1.50658   1.31399   3.34081
H     3.24752   2.16961   0.37057
H     5.66856   1.97873  -0.17800
H     6.65073  -0.24297  -0.73976
H     5.20901  -2.27703  -0.74220
H     2.78811  -2.09094  -0.18734
H    -0.74399   2.08629  -0.96511
H    -2.42027  -0.42929  -2.49268
H    -2.89025  -2.71075  -3.34448
H    -2.29228  -4.70561  -1.96572
H    -1.26889  -4.38723   0.28690
H    -0.82918  -2.10305   1.14648
H    -3.58375  -0.78623   0.83913
H    -5.24070   0.29483   2.32475
H    -4.95447   2.68089   2.99831
H    -2.97485   3.96578   2.18211
H    -1.29901   2.88814   0.74468
