18
Generated by autodE on: 2022-07-27. E = -493.591806 Ha
C     3.51631   0.44369   0.14516
O     2.49865  -0.49053   0.50763
C     1.24660  -0.22297   0.05219
O     0.99092   0.77933  -0.61151
C     0.34104  -1.28097   0.39196
N    -0.97615  -1.26602   0.11074
C    -1.87779  -0.32151  -0.17512
C    -3.25072  -0.73315  -0.62010
C    -1.62885   1.05334   0.02932
N    -1.58303   2.20135   0.24267
H     3.28227   1.44963   0.52574
H     3.63561   0.49441  -0.94813
H     4.44332   0.07799   0.60356
H     0.72939  -2.22984   0.75435
H    -1.39435  -2.20142   0.12755
H    -4.02811  -0.20285  -0.04869
H    -3.38726  -1.81676  -0.48427
H    -3.40660  -0.50343  -1.68800
