24
Generated by autodE on: 2022-06-16. E = -572.210722 Ha. Imaginary frequency = -387.7 cm-1
C     3.65552   0.53012   0.01761
O     2.62307  -0.44047   0.21236
C     1.43026  -0.17139  -0.36221
O     1.23352   0.83029  -1.03372
C     0.47442  -1.23052  -0.07669
C    -0.07097  -0.51153   2.06156
C    -1.37938  -0.09679   1.93674
C    -1.75030  -0.26948  -0.40396
C    -3.18172  -0.66670  -0.65683
C    -1.48862   1.12469  -0.54751
N    -1.47013   2.28843  -0.63380
N    -0.80030  -1.22962  -0.54355
H     3.35574   1.50637   0.42739
H     3.88995   0.64473  -1.05134
H     4.53361   0.15215   0.55486
H     0.89833  -2.22395   0.06951
H     0.73346   0.22092   2.16557
H     0.16363  -1.52235   2.40151
H    -2.20335  -0.79310   2.11268
H    -1.63361   0.96420   1.95944
H    -3.85568  -0.01788  -0.07978
H    -3.34976  -1.70803  -0.34331
H    -3.45142  -0.57070  -1.72259
H    -1.21165  -2.16281  -0.55466
