11
Generated by autodE on: 2022-05-26. E = -2859.061987 Ha
C    -2.85110   1.71911   0.44237
N    -2.94926   0.91171  -0.75825
C    -2.01899   0.08805  -1.27718
O    -2.19030  -0.56349  -2.31454
C    -0.75657  -0.01614  -0.55006
C     0.32092  -0.16378  -0.00893
Br    1.90804  -0.37681   0.79336
H    -2.95936   2.78863   0.20384
H    -1.87434   1.56737   0.91756
H    -3.63562   1.44253   1.16359
H    -3.81446   0.95781  -1.29364
