14
Generated by autodE on: 2022-05-26. E = -545.274689 Ha
C    -3.67128  -0.21144  -0.02246
O    -2.34575  -0.74995  -0.15340
C    -1.33464   0.09987   0.03309
O    -1.45078   1.27958   0.30217
C    -0.03537  -0.57787  -0.13072
C     0.08963  -1.95203  -0.44557
N     0.18103  -3.08481  -0.70493
N     1.04640   0.15571   0.02840
C     1.95853   0.87631   0.18489
C     3.02556   1.69672   0.36457
N     3.94579   2.40262   0.51899
H    -3.82416   0.18548   0.99132
H    -3.83396   0.58731  -0.76011
H    -4.35357  -1.04795  -0.21046
