22
Generated by autodE on: 2022-06-16. E = -683.222259 Ha
C     3.39052   0.57693   0.89719
C     2.22675  -0.33523   0.61032
O     2.16183  -1.47479   1.06543
C     1.14573   0.17674  -0.23882
N     1.15985   1.38304  -0.71944
N     0.09575   1.57694  -1.51647
C    -0.92397   0.55469  -1.24309
C    -1.91850   1.07742  -0.20022
O    -2.32604   2.22602  -0.27334
C    -2.35767   0.16863   0.87280
C    -1.78880  -1.03598   1.07145
C    -0.73069  -1.57720   0.18847
O    -0.45350  -2.76480   0.21481
C    -0.04883  -0.61911  -0.76841
H     3.93253   0.79942  -0.03572
H     3.04180   1.53767   1.30420
H     4.06769   0.08866   1.60968
H    -0.21424   2.54594  -1.58374
H    -1.50113   0.31105  -2.14680
H    -3.15900   0.53866   1.51786
H    -2.12574  -1.69971   1.87214
H     0.29588  -1.22033  -1.62604
