23
Generated by autodE on: 2022-06-19. E = -351.521382 Ha
C    -3.62660   1.00745   0.36567
C    -2.57427   0.24868  -0.01222
C    -2.76891  -1.03647  -0.77556
C    -1.21440   0.67007   0.31845
C    -0.07903   0.00016  -0.00254
C     1.24748   0.46361   0.35004
C     2.42793  -0.14262   0.06584
C     3.72994   0.46755   0.50223
C     2.55947  -1.43598  -0.68730
H    -4.65429   0.71606   0.13149
H    -3.48161   1.94008   0.91965
H    -2.34719  -1.89363  -0.22473
H    -3.83468  -1.23372  -0.95806
H    -2.25106  -1.00303  -1.74852
H    -1.12643   1.61138   0.87428
H    -0.15943  -0.93877  -0.55682
H     1.28582   1.40780   0.90678
H     4.29146  -0.22957   1.14993
H     4.38073   0.66522  -0.36855
H     3.58499   1.41070   1.04930
H     3.09035  -2.18379  -0.07200
H     1.59917  -1.86785  -0.99704
H     3.17780  -1.28984  -1.59065
