63
Generated by autodE on: 2022-06-27. E = -1420.132685 Ha
C     5.67811  -0.20728  -0.49394
C     4.55666  -0.24083   0.25420
C     4.60598  -0.24485   1.75960
C     3.24365  -0.26019  -0.40012
C     2.06082  -0.30403   0.23862
C     0.74314  -0.28708  -0.46652
C    -0.18293   0.92924  -0.11502
C     0.05489   2.01469  -1.20222
O     0.93853   1.99287  -2.03489
O    -0.78464   3.04112  -1.07801
C    -0.63940   4.11988  -2.01222
C     0.14171   1.59118   1.23550
C     1.25595   2.43648   1.36019
C     1.59556   2.99225   2.59535
C     0.82098   2.71536   3.72734
C    -0.29581   1.88407   3.60843
C    -0.63270   1.32654   2.37025
N    -1.52716   0.35575  -0.11786
C    -2.70415   1.18325  -0.28792
C    -1.56236  -0.98935  -0.63519
C    -1.75798  -0.95990  -2.18578
O    -1.29215  -0.00256  -2.81654
N    -2.40707  -1.96291  -2.78627
C    -2.53633  -2.02425  -4.22850
C    -2.59226  -1.87224   0.07902
O    -2.93600  -2.96982  -0.32920
O    -3.01970  -1.37647   1.23041
C    -3.89468  -2.20674   2.01137
C    -0.12452  -1.56123  -0.27106
C     0.33573  -2.67975  -1.20524
C    -0.07347  -2.07999   1.17554
H     6.67083  -0.18592  -0.03549
H     5.62839  -0.19977  -1.58719
H     4.11685  -1.14360   2.17069
H     5.64210  -0.21664   2.12526
H     4.06550   0.62318   2.17335
H     3.25043  -0.21457  -1.49521
H     2.03948  -0.33578   1.32916
H     0.93963  -0.20952  -1.53991
H    -0.76323   3.75472  -3.04166
H     0.35030   4.58690  -1.90543
H    -1.42822   4.84006  -1.76666
H     1.87615   2.65451   0.48833
H     2.46922   3.64381   2.67329
H     1.08502   3.14966   4.69452
H    -0.91178   1.66525   4.48422
H    -1.50116   0.67532   2.27515
H    -2.84792   1.54713  -1.32106
H    -2.64831   2.05693   0.37496
H    -3.59571   0.60835  -0.00166
H    -2.72103  -2.73496  -2.20200
H    -3.16797  -2.88106  -4.49341
H    -2.99808  -1.10567  -4.62138
H    -1.55421  -2.14296  -4.71584
H    -3.38013  -3.13519   2.29707
H    -4.14580  -1.61997   2.90180
H    -4.80238  -2.44818   1.44123
H    -0.33742  -3.54769  -1.14281
H     1.34328  -3.00839  -0.90845
H     0.38965  -2.35088  -2.25297
H    -0.38399  -1.32375   1.90621
H    -0.70340  -2.97279   1.30109
H     0.95561  -2.38181   1.41508
