23
Generated by autodE on: 2022-06-27. E = -351.521384 Ha
C    -3.67938   0.86470  -0.11376
C    -2.57960   0.08079  -0.15686
C    -2.68542  -1.40539  -0.38558
C    -1.25457   0.67176   0.02020
C    -0.07777  -0.00310  -0.00427
C     1.21150   0.63218   0.17705
C     2.42724   0.02933   0.16333
C     3.68379   0.82728   0.36795
C     2.64120  -1.44242  -0.04972
H    -3.59921   1.94335   0.05301
H    -4.68254   0.44893  -0.24303
H    -2.24846  -1.96883   0.45559
H    -2.13046  -1.70896  -1.28881
H    -3.73293  -1.71674  -0.50283
H    -1.23213   1.75562   0.18603
H    -0.09183  -1.08382  -0.16973
H     1.18670   1.71612   0.34230
H     3.47722   1.89680   0.52031
H     4.36017   0.72196  -0.49937
H     4.24773   0.45239   1.24102
H     3.17011  -1.88089   0.81495
H     1.71160  -2.00536  -0.20353
H     3.29394  -1.61071  -0.92447
