63
Generated by autodE on: 2022-06-27. E = -1420.053619 Ha. Imaginary frequency = -268.2 cm-1
C     4.49707   0.60635   2.71385
C     3.41940  -0.16728   2.45624
C     2.74996  -0.97140   3.53919
C     2.84813  -0.18729   1.11576
C     1.73743  -0.87042   0.74187
C     1.16704  -0.78660  -0.58482
C    -0.15093   1.09417  -0.48527
C    -0.01381   1.58243  -1.92955
O     0.81026   1.25540  -2.75590
O    -0.84004   2.62369  -2.08704
C    -0.85263   3.24084  -3.38062
C     0.58709   1.94206   0.45599
C     1.47430   2.94576   0.00748
C     2.24756   3.67322   0.91005
C     2.15515   3.42374   2.28402
C     1.29881   2.41984   2.74531
C     0.54602   1.67247   1.84420
N    -1.34430   0.53088  -0.08384
C    -2.20914   1.25674   0.88004
C    -1.87942  -0.65185  -0.62992
C    -2.32244  -0.65550  -2.03319
O    -1.98659   0.25618  -2.81768
N    -3.08181  -1.68607  -2.46800
C    -3.46673  -1.80168  -3.85642
C    -2.39116  -1.62163   0.32195
O    -3.11316  -2.58913   0.05678
O    -1.91644  -1.45328   1.57572
C    -2.34286  -2.39656   2.56098
C     0.33457  -1.80205  -1.10678
C     0.24509  -1.96901  -2.59526
C     0.05575  -3.06190  -0.33698
H     4.93299   0.66439   3.71503
H     4.96448   1.20330   1.92518
H     2.70372  -2.04044   3.27399
H     3.28202  -0.87362   4.49588
H     1.70903  -0.63779   3.68592
H     3.35296   0.43603   0.36929
H     1.21774  -1.48199   1.48198
H     1.73158  -0.20954  -1.31847
H    -1.16749   2.51176  -4.14074
H     0.14330   3.63193  -3.63440
H    -1.57712   4.06115  -3.31805
H     1.57060   3.16628  -1.05611
H     2.92493   4.44471   0.53743
H     2.75800   4.00051   2.98889
H     1.24225   2.19265   3.81180
H    -0.06664   0.85356   2.21464
H    -3.24078   1.20910   0.50516
H    -1.90796   2.30905   0.91494
H    -2.18637   0.83905   1.89207
H    -3.35372  -2.38298  -1.77684
H    -4.02258  -2.73808  -3.99400
H    -4.10884  -0.96445  -4.17815
H    -2.58529  -1.81611  -4.51874
H    -2.01674  -3.41316   2.29699
H    -1.87028  -2.08400   3.49987
H    -3.43750  -2.38468   2.66835
H    -0.66913  -2.50151  -2.88904
H     1.09569  -2.60057  -2.91362
H     0.30859  -1.01896  -3.13388
H    -0.03609  -2.90932   0.74320
H    -0.85169  -3.55985  -0.70338
H     0.89828  -3.75861  -0.50374
