25
Generated by autodE on: 2022-07-27. E = -702.453965 Ha
C    -3.63541   1.91666   1.76325
C    -2.25116   1.35170   1.63669
O    -1.45966   1.29696   2.58506
C    -1.82751   0.84115   0.33312
C    -2.66576   0.85388  -0.79703
N    -3.41537   0.88949  -1.69208
N    -0.56440   0.33617   0.33555
C     0.23982  -0.19518  -0.57119
C    -0.18163  -0.25528  -1.93233
N    -0.46745  -0.32254  -3.05829
C     1.56372  -0.71820  -0.21507
C     1.92877  -0.95207   1.12720
C     3.20033  -1.42799   1.43662
C     4.12615  -1.69048   0.42003
C     3.76776  -1.47661  -0.91412
C     2.49874  -0.99669  -1.23274
H    -3.80148   2.26151   2.79128
H    -4.38473   1.15238   1.50153
H    -3.77076   2.75575   1.06205
H    -0.19358   0.42381   1.29890
H     1.21979  -0.78995   1.94148
H     3.46619  -1.60652   2.48056
H     5.12051  -2.06760   0.66840
H     4.48132  -1.68163  -1.71483
H     2.23446  -0.82633  -2.27778
