25
Generated by autodE on: 2022-06-06. E = -702.454025 Ha
C    -4.28991   1.21401  -0.31825
C    -2.79124   1.28118  -0.34720
O    -2.17203   2.29108  -0.70175
C    -2.03596   0.09485   0.05523
C    -2.65538  -1.10248   0.45914
N    -3.23109  -2.06745   0.77795
N    -0.68859   0.25752  -0.03405
C     0.37190  -0.49073   0.22304
C     0.19923  -1.78062   0.80509
N     0.12245  -2.83673   1.28766
C     1.73003  -0.02168  -0.07302
C     1.95992   1.07171  -0.93390
C     3.25902   1.50875  -1.18097
C     4.34983   0.86107  -0.58927
C     4.13177  -0.23422   0.25177
C     2.83509  -0.67564   0.50839
H    -4.64178   0.97090   0.69715
H    -4.70936   2.17650  -0.63613
H    -4.64867   0.41356  -0.98513
H    -0.50907   1.21364  -0.39015
H     1.13359   1.57541  -1.43988
H     3.42132   2.35458  -1.85223
H     5.36658   1.20512  -0.79056
H     4.97637  -0.74849   0.71496
H     2.67697  -1.52625   1.17368
