58
Generated by autodE on: 2022-06-10. E = -1504.244698 Ha
C    -3.21428   0.12359  -3.38032
N    -2.85418   0.05975  -1.97687
C    -1.66778   0.52443  -1.55639
O    -0.91888   1.17113  -2.28714
C    -1.25805   0.30254  -0.05410
C    -2.44161  -0.29178   0.73916
O    -2.97404  -1.35730   0.36524
N    -2.84050   0.38655   1.80710
C    -3.89665  -0.08265   2.68226
N    -0.85448   1.58815   0.49451
C     0.56972   1.74090   0.69163
C     0.82413   2.24817   2.06555
N     0.97938   2.72975   3.10929
C     1.11730   2.89993  -0.19612
O     0.42688   3.54901  -0.94187
O     2.39703   3.11818   0.06287
C     3.07212   4.10630  -0.73640
C     1.25376   0.31691   0.42717
C     2.28935   0.51816  -0.71946
C     3.75696   0.28161  -0.48057
O     1.92493   1.00148  -1.77583
C     1.79579  -0.29650   1.74960
C     2.37414  -1.71594   1.51960
C     1.11137  -2.59650   1.33653
C    -0.02872  -1.56304   1.38035
C     0.48657  -0.63813   2.48686
C     0.01947  -0.63844   0.09563
C     0.22982  -1.56155  -1.11031
O     1.33583  -1.72127  -1.63706
N    -0.85612  -2.25332  -1.48522
C    -0.83190  -3.16991  -2.60751
H    -3.10779   1.14903  -3.76090
H    -2.57204  -0.53653  -3.98840
H    -4.25813  -0.19373  -3.49476
H    -3.35042  -0.59279  -1.37445
H    -2.29266   1.21404   2.03668
H    -3.55405  -0.92437   3.30603
H    -4.75803  -0.42191   2.08999
H    -4.21012   0.73951   3.33680
H    -1.22071   2.37840  -0.03514
H     3.04466   3.80468  -1.79286
H     4.10396   4.13283  -0.37052
H     2.59200   5.08651  -0.61220
H     4.05144   0.39486   0.56932
H     4.31507   0.98783  -1.11011
H     4.01698  -0.73644  -0.80866
H     2.48751   0.37769   2.26803
H     2.94874  -2.01196   2.40867
H     3.04693  -1.78339   0.66134
H     0.97962  -3.28763   2.18111
H     1.13652  -3.20342   0.42354
H    -1.00985  -2.02031   1.53027
H     0.66557  -1.17530   3.42919
H    -0.16967   0.21112   2.70303
H    -1.71829  -2.13884  -0.94705
H    -0.22932  -4.06716  -2.38871
H    -1.85987  -3.48092  -2.83148
H    -0.40524  -2.68220  -3.49696
