29
Generated by autodE on: 2022-07-27. E = -870.512355 Ha
C    -3.10709  -2.14250  -2.94560
N    -2.45225  -1.74530  -1.71515
C    -1.47250  -0.83253  -1.70473
O    -1.07338  -0.22434  -2.70975
C    -0.84071  -0.53914  -0.38164
N     0.21075   0.24035  -0.48868
C     1.18149   0.70883   0.33315
C     1.32306   0.31743   1.67842
N     1.47542  -0.00348   2.79055
C     2.14535   1.59164  -0.32060
O     2.07326   1.89903  -1.50239
O     3.09912   2.01588   0.51226
C     4.09565   2.88969  -0.03828
C    -1.36789  -1.09973   0.89856
O    -1.64284  -2.30494   0.98088
N    -1.57967  -0.22372   1.89098
C    -1.94640  -0.66028   3.22568
H    -2.44506  -2.75594  -3.57967
H    -3.40516  -1.25546  -3.52208
H    -4.00179  -2.72722  -2.69987
H    -2.59474  -2.28901  -0.86546
H     0.34312   0.55506  -1.47294
H     4.64600   2.38490  -0.84531
H     4.77283   3.13082   0.78892
H     3.63010   3.80623  -0.42834
H    -1.33838   0.75362   1.75712
H    -2.79530  -1.35675   3.18119
H    -2.23036   0.21669   3.81925
H    -1.10193  -1.16870   3.71907
