18
Generated by autodE on: 2022-06-08. E = -919.867881 Ha
C     2.68867  -1.41473  -0.42167
C     1.93597  -0.13430  -0.17303
O     2.47085   0.96672  -0.26912
C     0.51894  -0.27559   0.18570
C    -0.46502   0.64798   0.21166
Cl   -0.43735   2.31776  -0.13706
C    -1.77615  -0.11933   0.49142
C    -2.07212  -0.95114  -0.77768
C    -1.11756  -1.88523  -0.79854
C    -0.25062  -1.60062   0.44890
O    -1.25897  -1.13095   1.36575
H     3.70749  -1.19323  -0.76468
H     2.73077  -2.00957   0.50593
H     2.16186  -2.02947  -1.17033
H    -2.59309   0.45825   0.93574
H    -2.86610  -0.73848  -1.49199
H    -0.91438  -2.66025  -1.53647
H     0.32950  -2.42995   0.86447
