38
Generated by autodE on: 2022-06-08. E = -860.043735 Ha
C     0.67483   3.63439  -0.41614
N     0.84612   2.23534  -0.09223
C     0.07258   1.27289  -0.66786
O    -0.89443   1.61452  -1.38706
C     0.44532  -0.11566  -0.41391
C     1.71381  -0.51403   0.20856
C     1.71486  -1.48422   1.23699
C     2.90260  -1.89938   1.83927
C     4.12579  -1.34419   1.44783
C     4.14468  -0.37631   0.43662
C     2.96048   0.02619  -0.18151
N    -0.46401  -1.11487  -0.71880
C     0.06184  -2.36937  -1.29878
C    -1.78948  -0.98102  -0.63478
C    -2.68565  -1.92360  -1.37965
C    -2.36222   0.03476   0.29546
O    -1.80672   0.35756   1.35808
N    -3.57772   0.52205  -0.03292
C    -4.23098   1.52137   0.78775
H    -0.36470   3.95432  -0.24399
H     1.33604   4.23097   0.22534
H     0.92006   3.85446  -1.46995
H     1.65077   1.96107   0.45755
H     0.76201  -1.90009   1.57203
H     2.87142  -2.65152   2.63184
H     5.05556  -1.66290   1.92461
H     5.09432   0.05651   0.11194
H     3.00036   0.75473  -0.99350
H    -0.27641  -3.23706  -0.71829
H    -0.29869  -2.46351  -2.33203
H     1.15289  -2.33055  -1.31147
H    -2.51883  -1.86993  -2.46958
H    -3.74033  -1.70267  -1.18350
H    -2.51687  -2.97116  -1.08002
H    -3.95112   0.33301  -0.95624
H    -5.22306   1.73226   0.36988
H    -3.65102   2.45929   0.81972
H    -4.34987   1.16312   1.82122
