38
Generated by autodE on: 2022-07-27. E = -860.041483 Ha
C    -1.49117  -1.83386  -3.14204
N    -1.13025  -0.93983  -2.06357
C    -1.14122  -1.35447  -0.76068
O    -1.62480  -2.47480  -0.48268
C    -0.64587  -0.43185   0.25542
C    -0.95333  -0.58330   1.67175
C    -2.12887  -1.22133   2.13950
C    -2.38852  -1.34424   3.50310
C    -1.49846  -0.82906   4.45467
C    -0.33292  -0.19366   4.01385
C    -0.05943  -0.08145   2.65053
N     0.18176   0.62908  -0.12915
C    -0.19667   1.99637   0.28605
C     1.25226   0.44889  -0.89807
C     1.82378  -0.90027  -1.13337
C     1.75914   1.60601  -1.70677
O     0.97985   2.26355  -2.41195
N     3.07969   1.84201  -1.65998
C     3.69444   2.88581  -2.45823
H    -0.92799  -2.77992  -3.08765
H    -2.56525  -2.08633  -3.13063
H    -1.26157  -1.34593  -4.09817
H    -0.76823  -0.02450  -2.30304
H    -2.84204  -1.61812   1.41845
H    -3.30686  -1.84016   3.82904
H    -1.70996  -0.92460   5.52216
H     0.38061   0.20693   4.73888
H     0.87260   0.39130   2.33258
H    -0.84579   1.93024   1.16292
H    -0.74631   2.47508  -0.53358
H     0.69741   2.58464   0.52909
H     1.57898  -1.56536  -0.28991
H     2.91224  -0.83827  -1.27679
H     1.40203  -1.36450  -2.04344
H     3.65952   1.27884  -1.04540
H     4.77667   2.87368  -2.28347
H     3.30085   3.87846  -2.18780
H     3.50328   2.72554  -3.53079
