56
Generated by autodE on: 2022-06-08. E = -1779.902697 Ha. Imaginary frequency = -208.4 cm-1
C     2.02212   3.09218  -3.47028
N     1.17254   1.96927  -3.13144
C     0.73700   1.77562  -1.86369
O     1.04097   2.58863  -0.97089
C    -0.02422   0.51843  -1.60868
C     0.08426  -0.56984  -2.64306
C     1.57308  -0.72985  -0.22194
C     2.16912   0.24347   0.80877
O     1.05117   0.40501   1.70341
C     0.85119  -0.99660   1.93742
C     2.27338  -1.36339   2.40883
Cl    2.57059  -2.64951   3.49375
C     3.12682  -0.58132   1.71050
C     4.59136  -0.60145   1.64346
C     5.21456   0.20733   0.53458
O     5.27156  -1.24343   2.44070
C     0.72245  -1.52330   0.49951
C    -1.61205  -0.59233  -0.15396
C    -1.99605  -1.72035  -1.07495
O    -1.78493  -2.91567  -0.82221
N    -2.70862  -1.34587  -2.15963
C    -3.04286  -2.28988  -3.20741
C    -2.37630  -0.57639   1.10843
C    -3.50607  -1.41758   1.26237
C    -4.22905  -1.46063   2.45310
C    -3.86056  -0.65978   3.53853
C    -2.74919   0.17842   3.41104
C    -2.01757   0.21716   2.22482
N    -1.03563   0.54449  -0.68496
C    -1.46174   1.86147  -0.14901
H     2.30879   3.01413  -4.52628
H     2.93500   3.09686  -2.85416
H     1.50849   4.05513  -3.31308
H     0.85880   1.35895  -3.87588
H    -0.05335  -1.57296  -2.22734
H     1.08480  -0.55450  -3.09103
H    -0.65551  -0.44019  -3.45230
H     2.07256  -0.96655  -1.15722
H     2.53509   1.20664   0.44500
H     0.04455  -1.20046   2.64725
H     4.78838  -0.08557  -0.43916
H     4.98148   1.27585   0.67481
H     6.30268   0.06336   0.52797
H     0.31564  -2.49823   0.24673
H    -2.81583  -0.35521  -2.34731
H    -3.66050  -3.11155  -2.81471
H    -3.60623  -1.76792  -3.99062
H    -2.13603  -2.73122  -3.65489
H    -3.83292  -2.05218   0.43908
H    -5.09568  -2.12204   2.52799
H    -4.42938  -0.69113   4.47053
H    -2.43612   0.80559   4.24943
H    -1.14125   0.85622   2.17564
H    -2.47483   1.75818   0.24756
H    -1.48533   2.58050  -0.97372
H    -0.78630   2.23373   0.62389
