44
Generated by autodE on: 2022-06-19. E = -921.596537 Ha
C     5.50097   0.79418   1.54103
C     4.70801   0.32552   0.55635
C     5.25326  -0.49409  -0.58279
C     3.27021   0.61445   0.58645
C     2.36989   0.20080  -0.32333
C     0.90932   0.48256  -0.19689
O     0.40656   0.91552  -1.46429
N    -0.96281   0.44356  -1.61639
C    -1.76056   1.54310  -2.12543
C    -1.36438  -0.20790  -0.36975
C    -2.27399  -1.41515  -0.67476
C    -2.49051  -1.83144  -2.09744
O    -2.78947  -2.03346   0.24683
C    -1.97437   0.79392   0.65911
O    -1.48400   1.92435   0.76726
N    -3.01850   0.40074   1.39994
C    -3.56555   1.25548   2.43509
C     0.02495  -0.73527   0.18647
C     0.48165  -2.00458  -0.54836
C     0.02556  -0.98709   1.68987
H     5.09045   1.38804   2.36337
H     6.57647   0.59613   1.55114
H     4.77326  -1.48607  -0.62213
H     6.33877  -0.63727  -0.48722
H     5.05071  -0.00858  -1.55195
H     2.91980   1.21427   1.43460
H     2.67584  -0.38720  -1.19230
H     0.74674   1.27107   0.55355
H    -1.67497   2.46146  -1.52393
H    -2.81345   1.22537  -2.13836
H    -1.45825   1.75810  -3.16155
H    -3.08945  -2.75122  -2.11279
H    -3.02094  -1.03240  -2.63921
H    -1.53510  -1.98044  -2.61698
H    -3.28146  -0.58092   1.35793
H    -3.84114   2.23753   2.02351
H    -2.84012   1.42183   3.24924
H    -4.46199   0.78008   2.85177
H    -0.19671  -2.84685  -0.35078
H     0.54897  -1.85207  -1.63380
H     1.47617  -2.29803  -0.18372
H    -0.21177  -0.08063   2.26482
H    -0.69881  -1.77150   1.95291
H     1.02510  -1.32763   2.00035
