21
Generated by autodE on: 2022-07-27. E = -570.057050 Ha
C    -2.36008  -0.71960   2.37258
N    -1.17745  -0.73856   1.53548
C    -0.90889   0.27502   0.69639
O    -1.58470   1.31183   0.66452
C     0.26579   0.07282  -0.22396
C     0.58292  -1.28050  -0.76904
C     1.23197  -1.44747  -2.11345
O     0.27019  -2.27737  -0.11877
N     0.98869   1.13001  -0.60174
C     0.76828   2.49704  -0.05660
O     1.93782   1.06227  -1.42000
H    -2.36217  -1.61745   3.00244
H    -3.28526  -0.70353   1.77224
H    -2.36547   0.16892   3.02151
H    -0.66503  -1.60668   1.37876
H     0.98623  -2.45374  -2.48048
H     2.32424  -1.36224  -2.00246
H     0.92123  -0.67456  -2.82871
H    -0.01855   2.98334  -0.64496
H     1.72499   3.01055  -0.19030
H     0.47351   2.46208   0.99463
