44
Generated by autodE on: 2022-06-19. E = -921.549730 Ha. Imaginary frequency = -378.3 cm-1
C     5.83047   0.60656  -0.87197
C     4.69993  -0.11209  -0.70323
C     4.63416  -1.57674  -1.04961
C     3.50093   0.53824  -0.17634
C     2.31267  -0.07050   0.04356
C     1.13912   0.63134   0.54395
O     0.35350   1.14942  -1.13422
N    -0.92986   1.28956  -0.90544
C    -1.32840   2.67789  -0.68087
C    -1.46677   0.15925  -0.31123
C    -1.22557  -1.12773  -1.05154
C    -0.41343  -1.16192  -2.32077
O    -1.69944  -2.18861  -0.64087
C    -2.74667   0.31066   0.48755
O    -3.20238   1.41962   0.79645
N    -3.32455  -0.82526   0.91138
C    -4.48450  -0.79315   1.77595
C     0.07210  -0.04469   1.24288
C     0.19521  -1.52197   1.53252
C    -0.54327   0.72602   2.39320
H     5.86770   1.67027  -0.61798
H     6.74270   0.15128  -1.26750
H     4.36973  -2.18143  -0.16626
H     5.59617  -1.93717  -1.44014
H     3.85652  -1.77012  -1.80712
H     3.59493   1.60581   0.05494
H     2.20208  -1.13226  -0.18507
H     1.31961   1.66431   0.85530
H    -1.10239   3.00844   0.34483
H    -2.39464   2.81366  -0.87661
H    -0.73632   3.27052  -1.38964
H    -0.73185  -2.04688  -2.88871
H    -0.51509  -0.25317  -2.92477
H     0.65143  -1.27473  -2.06779
H    -2.90888  -1.70293   0.59524
H    -4.27584  -0.22984   2.69979
H    -4.75585  -1.82222   2.04245
H    -5.34688  -0.31640   1.28187
H    -0.77855  -1.94185   1.82156
H     0.58189  -2.11051   0.69228
H     0.88091  -1.66705   2.38634
H    -0.74870   1.77339   2.13791
H    -1.47271   0.26126   2.75116
H     0.16386   0.71908   3.24259
