38
Generated by autodE on: 2022-06-17. E = -660.400492 Ha
C    -1.97717  -2.68484  -0.48635
C    -1.15858  -1.40895  -0.33839
C    -0.30908  -1.27801   0.94504
C    -0.96200  -1.78685   2.23006
C     0.00392   0.24528   0.93015
C     0.23350   0.87838   2.30352
C     1.21956   0.56342   0.04741
C     1.16301   1.58426  -0.91103
C     2.28563   1.91279  -1.67796
C     3.49071   1.22986  -1.49183
C     3.56395   0.22110  -0.52558
C     2.43971  -0.10491   0.23807
O    -1.18113   0.84972   0.38696
C    -1.95971  -0.08162  -0.40923
C    -3.35826  -0.14013   0.20736
C    -2.05702   0.43708  -1.84377
H    -2.72137  -2.80491   0.31377
H    -1.32029  -3.56918  -0.46730
H    -2.51528  -2.69334  -1.44767
H    -0.44393  -1.37700  -1.17695
H     0.62209  -1.84551   0.81026
H    -0.26765  -1.70198   3.07928
H    -1.22319  -2.85106   2.13135
H    -1.87873  -1.23976   2.49244
H     1.10768   0.43157   2.79907
H    -0.64743   0.74809   2.94708
H     0.42057   1.95655   2.18609
H     0.22637   2.12217  -1.05347
H     2.21636   2.70842  -2.42431
H     4.36807   1.48362  -2.09171
H     4.50215  -0.31559  -0.36339
H     2.51947  -0.88811   0.99542
H    -3.77870   0.87706   0.24492
H    -3.33868  -0.53914   1.23025
H    -4.03411  -0.76359  -0.39620
H    -2.65296  -0.25659  -2.45750
H    -1.06135   0.53077  -2.29948
H    -2.54891   1.42240  -1.86976
