12
Generated by autodE on: 2022-06-17. E = -157.299004 Ha
C     1.59048  -0.52831   0.12382
C     0.66592   0.63647  -0.06860
C    -0.67590   0.62013  -0.10895
C    -1.58178  -0.56662   0.03089
H     2.23191  -0.37724   1.01001
H     2.27629  -0.63036  -0.73589
H     1.05997  -1.48309   0.24870
H     1.16039   1.60861  -0.19066
H    -1.18567   1.58024  -0.25987
H    -2.22550  -0.67528  -0.85985
H    -1.03609  -1.51063   0.17144
H    -2.26598  -0.43853   0.88839
