26
Generated by autodE on: 2022-06-17. E = -502.978685 Ha
C    -0.65918  -1.90473  -1.17970
C    -0.40181  -0.63982  -0.42478
O    -1.39617   0.10396   0.07985
C    -2.68634   0.05555   0.20426
C    -3.29722   1.26242   0.82746
C    -3.53565  -1.07854  -0.25562
C     0.90359  -0.11430  -0.14102
C     2.08342  -0.81498  -0.52526
C     3.35241  -0.30251  -0.26035
C     3.51643   0.92021   0.40216
C     2.36744   1.62159   0.80019
C     1.09483   1.12346   0.54352
H    -0.71786  -2.80584  -0.53951
H    -1.58724  -1.84982  -1.76250
H     0.15416  -2.07920  -1.89897
H    -2.52623   1.99171   1.11246
H    -4.00455   1.75383   0.13222
H    -3.88500   0.99381   1.72458
H    -3.08541  -2.05664  -0.03311
H    -3.73723  -1.04134  -1.34265
H    -4.50846  -1.01924   0.25397
H     2.00083  -1.77802  -1.03106
H     4.23060  -0.87428  -0.57386
H     4.51313   1.31617   0.60872
H     2.46809   2.57693   1.32347
H     0.22206   1.69236   0.86751
