45
Generated by autodE on: 2022-10-12. E = -943.514032 Ha
C     1.95173  -2.30155   0.49016
C     1.03696  -1.67636  -0.26645
C     0.43539  -2.32512  -1.48223
C     0.62021  -0.27054   0.09261
C     0.99043   0.80992  -0.98384
C     2.19901   1.62699  -0.64863
C     3.45942   1.37034  -1.04511
C     3.85094   0.21067  -1.92160
C     4.60394   2.24180  -0.60247
C    -0.35552   1.58878  -1.12072
C    -0.47762   2.51745  -2.29961
N    -1.30256   0.45430  -1.05951
C    -0.90723  -0.01166   0.23789
C    -1.74312  -1.05345   0.91087
C    -2.83734  -1.64165   0.26529
C    -3.58809  -2.62805   0.91229
C    -3.25028  -3.03097   2.20681
C    -2.15637  -2.44585   2.85456
C    -1.40344  -1.46445   2.20866
O    -0.94873   1.25031   1.08591
C    -0.59322   2.24018   0.24672
O    -0.47593   3.39617   0.58716
H     2.38018  -1.82312   1.37582
H     2.30106  -3.30909   0.24490
H     0.58445  -1.71160  -2.38527
H    -0.65286  -2.45238  -1.36669
H     0.87992  -3.31482  -1.66030
H     1.08627  -0.01341   1.05131
H     1.12457   0.30885  -1.95010
H     2.03675   2.48073   0.01964
H     4.44574   0.56076  -2.78298
H     2.99391  -0.36160  -2.29995
H     4.49715  -0.48658  -1.36052
H     4.27119   3.06224   0.05051
H     5.36018   1.64840  -0.05857
H     5.12365   2.67790  -1.47398
H    -0.28652   1.97399  -3.23634
H    -1.48082   2.96790  -2.34605
H     0.25905   3.32905  -2.21047
H    -2.27101   0.78456  -1.04616
H    -3.10265  -1.33677  -0.74801
H    -4.43974  -3.08201   0.40064
H    -3.83723  -3.80191   2.71155
H    -1.88679  -2.75856   3.86594
H    -0.54734  -1.01260   2.71333
