23
Generated by autodE on: 2022-10-12. E = -351.521385 Ha
C     3.58946  -0.18089  -1.17561
C     2.56629  -0.11628  -0.29542
C     2.81210  -0.09821   1.19172
C     1.18857  -0.06347  -0.78043
C     0.07847  -0.00121  -0.00290
C    -1.26781   0.04717  -0.53558
C    -2.42433   0.10776   0.17189
C    -2.50106   0.13721   1.67204
C    -3.75312   0.15115  -0.52838
H     4.62958  -0.22195  -0.84046
H     3.40747  -0.19397  -2.25469
H     2.31785  -0.95065   1.68676
H     2.39903   0.81484   1.65182
H     3.88667  -0.14306   1.41835
H     1.06358  -0.07782  -1.86988
H     0.19567   0.01275   1.08404
H    -1.34472   0.03127  -1.62955
H    -3.09727  -0.71621   2.04071
H    -1.52112   0.10812   2.16551
H    -3.02902   1.04671   2.00926
H    -4.31281   1.06220  -0.24994
H    -4.38575  -0.70087  -0.22067
H    -3.64776   0.12859  -1.62300
