22
Generated by autodE on: 2022-10-12. E = -591.964933 Ha
C     3.88456   0.46900   0.43376
C     2.52417   0.01882   0.04469
N     1.35028   0.59346   0.50562
C     0.28628  -0.00727  -0.00885
C    -1.11616   0.26953   0.20815
C    -2.08455  -0.50142  -0.46757
C    -3.44102  -0.25110  -0.26940
C    -3.85312   0.76464   0.59998
C    -2.89567   1.53312   1.27349
C    -1.53714   1.29271   1.08355
O     0.70216  -0.98256  -0.81434
C     2.15297  -1.01558  -0.82049
O     2.73055  -1.85591  -1.51087
H     4.62542  -0.16246  -0.07682
H     4.07700   1.51729   0.14654
H     4.05896   0.38543   1.52046
H     1.31198   1.37680   1.15566
H    -1.76384  -1.29374  -1.14509
H    -4.18269  -0.85413  -0.79790
H    -4.91708   0.95774   0.75352
H    -3.21080   2.32714   1.95395
H    -0.80563   1.90133   1.61886
