33
Generated by autodE on: 2022-06-17. E = -910.829121 Ha
C     0.94593   1.95320   2.10445
N     0.90923   0.66264   1.42762
C     1.76171   0.46228   0.37136
C     1.79811  -0.68126  -0.35948
C     2.71869  -0.86890  -1.48860
N     3.26398   0.23883  -2.05981
O     2.99898  -2.00720  -1.90849
C     0.96052  -1.85034   0.08560
C    -0.36033  -1.43479   0.74083
C    -0.33929  -0.06363   1.48833
C    -1.55673   0.66762   0.76086
C    -2.12731   1.81555   1.43686
N    -2.59304   2.72910   1.97825
N    -2.46690  -0.46710   0.56777
C    -1.54661  -1.24514  -0.22742
C    -2.10916  -2.44139  -0.92913
O    -1.06937  -0.25919  -1.27049
C    -1.04823   0.93570  -0.67277
O    -0.66595   1.96304  -1.17276
H     0.47813   2.75219   1.50345
H     0.41859   1.88097   3.06545
H     1.98835   2.23608   2.30373
H     2.45372   1.28651   0.18495
H     3.86644   0.10475  -2.86498
H     2.86413   1.15830  -1.91699
H     1.53212  -2.44722   0.81768
H     0.76184  -2.52385  -0.75958
H    -0.67081  -2.21101   1.45004
H    -0.63819  -0.18155   2.53694
H    -3.28230  -0.18812   0.01369
H    -2.47817  -3.16004  -0.18431
H    -1.33397  -2.92818  -1.53611
H    -2.93949  -2.14219  -1.58504
