13
Generated by autodE on: 2022-06-17. E = -453.089108 Ha
C     3.04897   0.15517   0.01311
C     1.58283   0.02539   0.03253
N     0.69324   0.85650  -0.45025
C    -0.60295   0.36276  -0.21800
C    -1.78118   1.00442  -0.60471
N    -2.77975   1.52540  -0.91990
C    -0.46303  -0.86617   0.46014
O    -1.19735  -1.72307   0.90761
O     0.97971  -1.01645   0.58513
H     3.48929  -0.69995  -0.52345
H     3.34172   1.09136  -0.47832
H     3.43313   0.14087   1.04517
H     0.91948   1.73162  -0.92161
