33
Generated by autodE on: 2022-06-17. E = -910.788673 Ha. Imaginary frequency = -490.5 cm-1
C     0.98105   1.93646   1.98178
N     1.02935   0.61728   1.35921
C     1.91425   0.39505   0.31253
C     1.93927  -0.76092  -0.38714
C     2.93554  -1.01893  -1.45075
N     3.57348   0.03763  -2.00686
O     3.17295  -2.18347  -1.81279
C     1.01357  -1.90446  -0.03497
C    -0.14620  -1.45074   0.84264
C     0.01573  -0.26482   1.57983
C    -2.15214   0.92929   0.49755
C    -2.58685   1.87827   1.42651
N    -2.92741   2.67575   2.21241
N    -2.62898  -0.38416   0.39377
C    -1.71992  -1.05923  -0.37961
C    -2.08395  -2.36713  -0.99608
O    -1.14137  -0.11617  -1.20861
C    -1.25027   1.13989  -0.58304
O    -0.61483   2.09957  -0.99182
H     0.39345   2.63236   1.36246
H     0.51467   1.85760   2.97181
H     2.00043   2.32702   2.09654
H     2.60885   1.21581   0.13291
H     4.24296  -0.14249  -2.74775
H     3.26924   0.99167  -1.85686
H     1.58697  -2.69950   0.47793
H     0.65342  -2.37636  -0.96210
H    -0.67130  -2.24383   1.38126
H    -0.61302  -0.04363   2.44113
H    -3.08724  -0.85281   1.17155
H    -2.53893  -3.01509  -0.23460
H    -1.20371  -2.86816  -1.41606
H    -2.81014  -2.19904  -1.80667
