35
Generated by autodE on: 2022-06-01. E = -767.252789 Ha
C    -1.73368  -2.00005   1.14100
C    -1.99537  -1.37136  -0.18900
C    -3.00509  -1.90659  -1.00024
N    -3.87558  -2.39127  -1.62420
N    -1.31133  -0.25859  -0.62295
C    -1.95866   0.52423  -1.69752
C    -0.11732   0.14104  -0.12655
C     0.86565  -0.82108   0.38709
C     1.73830  -0.46411   1.43834
C     2.73530  -1.33645   1.87220
C     2.89521  -2.58711   1.26471
C     2.03786  -2.95670   0.22236
C     1.03043  -2.09269  -0.20486
C     0.21808   1.57647  -0.13300
C     1.50838   2.01463  -0.49768
C     1.82958   3.37121  -0.49187
C     0.87301   4.32255  -0.11748
C    -0.40801   3.90245   0.25492
C    -0.73198   2.54531   0.25176
H    -1.43747  -1.22949   1.87174
H    -0.92397  -2.75333   1.13043
H    -2.64778  -2.49759   1.49730
H    -2.88132   0.99290  -1.33283
H    -1.26866   1.28133  -2.07594
H    -2.20635  -0.16308  -2.51722
H     1.62405   0.50719   1.92212
H     3.39123  -1.03881   2.69388
H     3.67769  -3.26974   1.60371
H     2.15343  -3.92870  -0.26324
H     0.37260  -2.39807  -1.02084
H     2.25762   1.28114  -0.80070
H     2.83191   3.69008  -0.78775
H     1.12679   5.38508  -0.11227
H    -1.15781   4.63577   0.56137
H    -1.72788   2.22784   0.56640
