13
Generated by autodE on: 2022-06-01. E = -506.057104 Ha
F    -2.10868   0.60730   0.60338
C    -0.93268   0.27664   0.07882
C     0.21296   0.95262   0.00616
F     0.53691   2.16836   0.43551
C     1.23559  -0.05400  -0.55152
C     1.47792  -1.13230   0.53664
C     0.32968  -1.81022   0.60837
C    -0.59653  -1.13485  -0.43626
O     0.37430  -0.78888  -1.44657
H     2.10962   0.37389  -1.05476
H     2.39334  -1.24029   1.11688
H     0.03921  -2.63016   1.26385
H    -1.43608  -1.71723  -0.83163
