48
Generated by autodE on: 2022-06-01. E = -1273.300511 Ha. Imaginary frequency = -252.8 cm-1
C    -0.22606  -1.87640   2.10993
N    -0.22831  -0.48682   1.62003
C     0.76461   0.31652   2.14572
C     1.72164  -0.22828   3.17715
C     0.65265   1.73183   2.17734
N     0.72254   2.89544   2.26981
C     1.98902   0.62412   0.12582
C     2.83709  -0.65942   0.00098
O     1.82628  -1.60183  -0.40871
C     1.36981  -0.83318  -1.54456
C     2.71226  -0.66178  -2.27762
F     2.81732  -0.51878  -3.59666
C     3.62873  -0.55580  -1.31455
F     4.92784  -0.27093  -1.37571
C     1.03030   0.49799  -0.85319
C    -1.04508  -0.10309   0.58538
C    -1.79943  -1.10753  -0.20361
C    -1.23639  -2.33292  -0.63152
C    -1.96431  -3.23446  -1.40668
C    -3.28024  -2.94985  -1.78490
C    -3.85889  -1.74746  -1.36912
C    -3.13317  -0.84354  -0.59312
C    -1.66200   1.25518   0.65825
C    -2.21798   1.68707   1.87708
C    -2.88909   2.90678   1.96947
C    -3.03222   3.71724   0.83962
C    -2.51537   3.28363  -0.38636
C    -1.84583   2.06308  -0.47683
H     0.61534  -2.44967   1.70328
H    -0.15644  -1.85969   3.20330
H    -1.16740  -2.35833   1.83870
H     2.16545  -1.18226   2.86230
H     2.53881   0.49307   3.31393
H     1.24326  -0.37979   4.16120
H     2.40187   1.55014   0.51898
H     3.40203  -0.99888   0.87581
H     0.58524  -1.34313  -2.11267
H     0.49665   1.30482  -1.34530
H    -0.21290  -2.58095  -0.36558
H    -1.49230  -4.16773  -1.72340
H    -3.84719  -3.65709  -2.39461
H    -4.88937  -1.50988  -1.64436
H    -3.61608   0.07895  -0.27331
H    -2.11575   1.06005   2.76502
H    -3.30527   3.22319   2.92896
H    -3.55301   4.67503   0.91015
H    -2.63707   3.89955  -1.28064
H    -1.47469   1.72620  -1.44501
