17
Generated by autodE on: 2022-06-16. E = -401.273453 Ha
C     2.90324  -0.77346  -0.15588
C     1.69533   0.12688   0.01651
O     1.83383   1.34581   0.23471
N     0.54881  -0.56977  -0.10066
O    -0.52691   0.37241   0.08652
C    -1.71616  -0.05328  -0.00376
C    -2.00986  -1.46648  -0.30144
C    -2.77632   0.95117   0.21195
H     3.52420  -0.71153   0.75201
H     3.50934  -0.39773  -0.99560
H     2.63312  -1.82143  -0.34165
H    -1.53140  -1.74032  -1.25663
H    -3.09028  -1.64438  -0.34193
H    -1.53677  -2.10216   0.46563
H    -3.40791   0.62134   1.05477
H    -3.43038   0.97562  -0.67616
H    -2.35632   1.94442   0.41114
