17
Generated by autodE on: 2022-07-27. E = -401.270533 Ha
C     2.79224   0.66734   0.28191
C     1.31610   0.38199   0.46959
O     0.57751   1.19405   1.07026
N     0.96944  -0.78674  -0.08451
O    -0.45619  -1.03100   0.19492
C    -1.36014  -0.40195  -0.43188
C    -2.74814  -0.75426  -0.07296
C    -1.06110   0.60240  -1.46633
H     3.25030   0.83132   1.26994
H     2.90083   1.60005  -0.29396
H     3.32047  -0.14448  -0.23560
H    -2.78327  -1.47881   0.74912
H    -3.24963  -1.15491  -0.97033
H    -3.28319   0.17162   0.19709
H    -0.80170   1.53917  -0.94232
H    -0.17372   0.30157  -2.04194
H    -1.93408   0.77468  -2.10658
