18
Generated by autodE on: 2022-06-16. E = -235.968070 Ha
C    -1.33929  -1.34894  -0.52179
C    -0.66710  -0.11304   0.02628
C    -1.66446   0.83999   0.64008
C     0.66711   0.11302  -0.02626
C     1.33929   1.34886   0.52196
C     1.66446  -0.83988  -0.64026
H    -0.65456  -2.06715  -0.98834
H    -2.09984  -1.07058  -1.27328
H    -1.88590  -1.87627   0.28071
H    -1.22129   1.75196   1.05757
H    -2.41675   1.14350  -0.11008
H    -2.22777   0.33825   1.44735
H     0.65490   2.06564   0.99117
H     2.10183   1.07015   1.27129
H     1.88356   1.87790  -0.28101
H     1.22101  -1.75059  -1.06024
H     2.41530  -1.14560   0.11046
H     2.22949  -0.33718  -1.44571
