35
Generated by autodE on: 2022-06-16. E = -637.227419 Ha. Imaginary frequency = -306.9 cm-1
C     2.96639  -1.07738  -0.45412
C     2.30660  -0.24851   0.62766
O     2.96310   0.59679   1.27556
N     0.99491  -0.38609   0.90525
O     0.40549  -1.27396  -0.01015
C    -0.90966  -1.32433   0.09850
C    -1.51307  -2.27450  -0.88572
C    -1.51745  -1.28475   1.46783
C    -1.44373   0.68485  -0.69611
C    -1.38713   0.42251  -2.19122
C    -2.85924   0.84579  -0.17443
C    -0.40391   1.43980  -0.12799
C    -0.55254   2.17737   1.16587
C     0.76342   1.85900  -0.96996
H     4.04662  -0.88358  -0.44063
H     2.56128  -0.80192  -1.44101
H     2.77698  -2.15180  -0.31437
H    -0.94036  -2.30722  -1.82012
H    -2.55892  -2.01379  -1.09341
H    -1.51018  -3.28250  -0.43464
H    -1.11359  -2.15669   2.01421
H    -1.25319  -0.38929   2.03579
H    -2.60611  -1.39338   1.41008
H    -1.44582   1.37466  -2.74753
H    -2.23470  -0.19557  -2.51634
H    -0.46045  -0.07913  -2.50231
H    -3.48085  -0.02646  -0.42722
H    -3.32376   1.72156  -0.66256
H    -2.91654   1.00663   0.90784
H     0.42387   2.30479   1.65343
H    -1.24154   1.69255   1.86802
H    -0.95823   3.18599   0.95657
H     1.09482   1.07376  -1.66088
H     1.61629   2.18193  -0.35949
H     0.44994   2.71781  -1.59467
