41
Generated by autodE on: 2022-10-06. E = -1107.047139 Ha
C    -0.06277   3.86615  -1.67286
N    -0.01505   2.42588  -1.55152
C     0.65396   1.81919  -0.56113
O     1.46082   2.40034   0.17640
C     0.32985   0.32648  -0.35138
C     1.63238  -0.48131  -0.23201
C     2.79779  -0.07665  -0.90486
C     3.94904  -0.86762  -0.90326
C     3.95896  -2.09647  -0.23693
C     2.80358  -2.52115   0.42336
C     1.65509  -1.72298   0.42611
C    -0.57496   0.18321   0.93680
C    -0.90269   1.50461   1.67587
O    -1.70137   2.30951   1.12236
O    -0.35510   1.67187   2.79706
C    -1.83862  -0.54922   0.46404
C    -2.38807  -1.61450   1.43099
O    -1.55994  -2.31467   2.07905
O    -3.64040  -1.75266   1.46967
C    -1.45600  -1.17261  -0.88573
C    -2.65109  -1.46088  -1.78262
N    -0.52789  -0.18857  -1.44729
C     0.14609  -0.61811  -2.66108
H    -0.45277   4.14162  -2.66149
H     0.94462   4.28940  -1.55701
H    -0.71213   4.30855  -0.89704
H    -0.74135   1.84679  -1.96966
H     2.81592   0.87271  -1.44171
H     4.84246  -0.52052  -1.42840
H     4.85846  -2.71681  -0.23379
H     2.79111  -3.48105   0.94568
H     0.77118  -2.08183   0.95284
H    -0.04267  -0.43542   1.66047
H    -2.63097   0.18866   0.27668
H    -0.92509  -2.13171  -0.70070
H    -3.37010  -2.09275  -1.24017
H    -3.16030  -0.52417  -2.06183
H    -2.36257  -1.99017  -2.70333
H     0.69850  -1.57176  -2.54147
H    -0.59145  -0.75437  -3.46562
H     0.85935   0.14747  -2.99483
