31
Generated by autodE on: 2022-10-13. E = -651.918785 Ha
C    -3.19835  -1.41002  -1.33821
C    -2.15855  -0.79867  -0.48226
N    -1.22476  -0.00988  -0.91576
C    -1.18545   0.37767  -2.33728
C    -0.12188   0.37254  -0.06678
C    -0.01848   1.77031   0.22864
O     0.95335   2.31519   0.81533
N    -1.07916   2.57272  -0.17216
C    -1.12556   3.96448   0.22111
C     0.78607  -0.67879   0.35327
C     0.68079  -2.00856  -0.14643
C     1.55775  -3.01714   0.24709
C     2.58899  -2.76455   1.16036
C     2.71659  -1.46428   1.66247
C     1.84720  -0.44552   1.27378
H    -3.77549  -2.14799  -0.76836
H    -3.88897  -0.63111  -1.70798
H    -2.75445  -1.89013  -2.22569
H    -2.12491  -1.02077   0.58833
H    -0.83875  -0.48575  -2.92591
H    -0.47781   1.20229  -2.45318
H    -2.18004   0.68145  -2.68875
H    -1.97535   2.12419  -0.32449
H    -1.99074   4.44254  -0.25866
H    -0.21690   4.49255  -0.10352
H    -1.21451   4.10472   1.31491
H    -0.10053  -2.26410  -0.86515
H     1.43132  -4.01981  -0.17145
H     3.27241  -3.55826   1.47023
H     3.51136  -1.23267   2.37794
H     1.97600   0.55689   1.67394
