31
Generated by autodE on: 2022-10-06. E = -651.921993 Ha
C     3.92453  -0.79603  -0.73147
C     2.56469  -0.21189  -0.82453
N     1.56702  -0.56621  -0.06005
C     1.75915  -1.68889   0.87906
C     0.37484   0.19994   0.02982
C     0.54815   1.63490   0.08368
O     1.66848   2.20393   0.16411
N    -0.57814   2.42398   0.06335
C    -0.46820   3.86299  -0.03393
C    -0.87781  -0.54626   0.05350
C    -0.97683  -1.78636  -0.63242
C    -2.14574  -2.54582  -0.61497
C    -3.27916  -2.09794   0.07340
C    -3.20765  -0.87958   0.75850
C    -2.03438  -0.12508   0.76077
H     4.34683  -0.67227   0.28133
H     4.59258  -0.31167  -1.45451
H     3.91219  -1.88035  -0.93822
H     2.35741   0.57922  -1.54444
H     2.09000  -2.58909   0.34538
H     0.81949  -1.89054   1.39847
H     2.52488  -1.40665   1.61629
H    -1.45741   2.00295  -0.20965
H    -1.47726   4.29642  -0.02090
H     0.09525   4.27932   0.81507
H     0.04026   4.19187  -0.95899
H    -0.11854  -2.15113  -1.20079
H    -2.17540  -3.49387  -1.15906
H    -4.19813  -2.68834   0.07946
H    -4.07339  -0.51689   1.31944
H    -2.00463   0.79364   1.34639
