41
Generated by autodE on: 2022-10-06. E = -1106.974324 Ha. Imaginary frequency = -256.5 cm-1
C     0.57183   4.21180  -0.68161
N     0.16033   2.85154  -0.97335
C     1.03744   1.83611  -0.72328
O     2.22945   2.09588  -0.45658
C     0.55633   0.43343  -0.72719
C     1.54634  -0.56403  -0.23150
C     1.97111  -1.64081  -1.03333
C     2.92597  -2.55163  -0.57555
C     3.49416  -2.40250   0.69337
C     3.09557  -1.32700   1.49581
C     2.13437  -0.42478   1.04107
C    -1.08072   0.22334   1.26542
C    -1.24897   1.69785   1.29552
O    -2.12295   2.22238   0.52387
O    -0.49158   2.36286   2.06131
C    -1.99715  -0.64498   0.69234
C    -2.10588  -2.08139   1.15733
O    -3.23009  -2.64114   1.01180
O    -1.07311  -2.63355   1.63468
C    -1.09804  -1.17807  -1.22285
C    -2.16142  -1.77683  -2.08472
N    -0.47182  -0.01964  -1.54249
C    -1.09756   0.82202  -2.57173
H    -0.24319   4.89537  -0.95646
H     1.46716   4.48586  -1.25772
H     0.79888   4.35093   0.39012
H    -0.81988   2.65576  -0.73707
H     1.54673  -1.77020  -2.03133
H     3.23327  -3.37917  -1.22028
H     4.24003  -3.11520   1.05332
H     3.53103  -1.19454   2.48962
H     1.82381   0.40595   1.67629
H    -0.31875  -0.19250   1.92431
H    -2.90996  -0.21723   0.26767
H    -0.48873  -1.87734  -0.65740
H    -2.61675  -2.61602  -1.54259
H    -2.96027  -1.06466  -2.33708
H    -1.74518  -2.17220  -3.02964
H    -1.36186   0.19499  -3.43110
H    -0.39382   1.58603  -2.90425
H    -2.00700   1.30545  -2.18684
