41
Generated by autodE on: 2022-05-30. E = -1255.200196 Ha
C     4.85657   1.67176   0.08372
O     3.42454   1.55406   0.02772
C     2.93361   0.32526  -0.04503
O     3.60780  -0.68413  -0.07927
C     1.42742   0.29451  -0.07547
N     0.74969   1.34867   0.16657
C    -0.68387   1.04853   0.06170
C    -1.15181   1.85361  -1.08343
N    -1.49693   2.58950  -1.91048
C    -1.52766   1.67983   1.23712
C    -0.91148   2.83393   1.96206
O    -2.64647   1.26739   1.43220
C    -0.81904  -0.52621  -0.09229
C    -1.82760  -0.85590  -1.20560
F    -3.02219  -0.29167  -0.93827
F    -1.44838  -0.39549  -2.41359
F    -2.05771  -2.16879  -1.36560
C    -1.18895  -1.32467   1.20359
C    -0.38056  -0.82990   2.42876
C     1.05517  -1.36810   2.17760
C     0.91775  -2.05383   0.80720
C    -0.47858  -2.67306   0.94554
C     0.68577  -0.99628  -0.33309
C     1.03733  -1.57819  -1.70911
H     5.06737   2.74566   0.13361
H     5.24429   1.16169   0.97712
H     5.30956   1.23229  -0.81635
H    -1.61179   3.20328   2.72141
H     0.04170   2.53850   2.42371
H    -0.67844   3.63268   1.23949
H    -2.26883  -1.36216   1.38112
H    -0.39066   0.25405   2.58369
H    -0.82253  -1.26798   3.33442
H     1.33622  -2.11760   2.93111
H     1.81856  -0.57949   2.21466
H     1.73783  -2.73686   0.55855
H    -0.81795  -3.21526   0.05914
H    -0.55307  -3.34074   1.81657
H     2.09171  -1.88249  -1.70913
H     0.88667  -0.84664  -2.51290
H     0.42679  -2.46532  -1.92498
