23
Generated by autodE on: 2022-05-30. E = -649.398819 Ha
C     0.14733   2.56261  -0.03599
C    -0.43423   1.22143   0.24658
C     0.10317  -0.01838   0.26008
C     1.48055  -0.46236  -0.05262
F     1.54429  -1.10568  -1.24861
F     1.94026  -1.35227   0.86090
F     2.38692   0.53280  -0.10491
C    -1.02835  -1.02693   0.42868
C    -1.83211  -1.00453  -0.90970
C    -2.44977   0.42331  -0.90987
C    -1.93397   1.02765   0.43752
C    -1.96646  -0.21743   1.34499
H    -0.36095   3.00627  -0.90994
H     1.22502   2.53679  -0.23328
H    -0.04491   3.24465   0.80985
H    -0.72403  -2.02559   0.76610
H    -1.17932  -1.19364  -1.77293
H    -2.61246  -1.78026  -0.89789
H    -3.54930   0.38722  -0.90789
H    -2.13633   1.02943  -1.77224
H    -2.47567   1.92229   0.77097
H    -1.53991  -0.03454   2.34230
H    -2.96986  -0.66001   1.44231
