41
Generated by autodE on: 2022-05-30. E = -1255.105806 Ha. Imaginary frequency = -358.7 cm-1
C     4.91032   0.25050   1.01618
O     3.47331   0.37530   0.94432
C     2.95482   0.58293  -0.24898
O     3.54979   0.66945  -1.29764
C     1.46777   0.63718  -0.19676
N     0.66688   1.52459  -0.36169
C    -0.62651   1.84459  -0.31530
C    -1.29737   2.16120  -1.52591
N    -1.87476   2.44438  -2.49762
C    -1.18050   2.27329   0.99331
C    -2.65781   2.53908   1.04242
O    -0.44243   2.37790   1.96478
C    -0.83691  -1.06754  -0.01320
C    -1.82688  -1.07340  -1.11882
F    -2.95426  -0.38128  -0.82627
F    -1.35884  -0.59070  -2.28503
F    -2.24940  -2.34348  -1.38261
C    -1.26127  -1.66831   1.33226
C    -0.74366  -0.81288   2.50801
C     0.79720  -0.93557   2.36148
C     0.96910  -1.92379   1.17486
C    -0.25508  -2.85173   1.39071
C     0.54397  -1.26959  -0.15756
C     1.21338  -1.72661  -1.43986
H     5.13713   0.07590   2.07297
H     5.23986  -0.59866   0.40200
H     5.38517   1.17676   0.66536
H    -2.95550   2.75554   2.07584
H    -2.90872   3.39828   0.39916
H    -3.21084   1.66879   0.65809
H    -2.32939  -1.91163   1.38916
H    -1.09108  -1.25817   3.45211
H    -1.10058   0.21935   2.47898
H     1.25781  -1.36231   3.26436
H     1.27873   0.03340   2.17942
H     1.95783  -2.39623   1.12202
H    -0.39587  -3.57515   0.57452
H    -0.24930  -3.37973   2.35792
H     2.30302  -1.79169  -1.31803
H     0.99186  -1.07481  -2.29381
H     0.84763  -2.73822  -1.68383
