42
Generated by autodE on: 2022-10-07. E = -1501.042292 Ha
C     3.45359  -3.18438   0.90202
N     2.96346  -1.84806   0.62128
C     1.68799  -1.50692   0.83853
O     0.84412  -2.28280   1.29329
C     1.26928  -0.06500   0.42492
C     2.30279   0.94792   0.90158
O     3.42904   0.97632   0.43698
O     1.89674   1.68952   1.92080
C     2.81892   2.68312   2.39526
O     0.00613   0.21499   0.99261
C    -1.03195  -0.19827   0.11578
C    -1.78253  -1.39527   0.72756
O    -2.16243  -2.36155   0.10416
O    -1.99950  -1.20797   2.02625
C    -2.67227  -2.26601   2.72488
C    -2.02618   0.97579   0.01891
O    -1.74710   2.12454   0.26737
O    -3.25237   0.53343  -0.26179
C    -4.26130   1.52638  -0.48602
C    -0.36416  -0.59666  -1.22525
C    -1.10314  -0.19825  -2.52462
O    -1.65379   0.93276  -2.55299
O    -1.06366  -1.03588  -3.45662
C     1.06156  -0.00352  -1.10584
C     1.20066   1.43167  -1.67745
O     1.39426   1.50865  -2.91375
O     1.11644   2.39011  -0.86724
H     4.51545  -3.23599   0.63347
H     3.34421  -3.43331   1.96945
H     2.90158  -3.93833   0.31927
H     3.59695  -1.13453   0.26902
H     3.02306   3.41252   1.59807
H     2.32465   3.17329   3.24154
H     3.75954   2.21556   2.71894
H    -3.66138  -2.45219   2.28261
H    -2.77614  -1.92612   3.76158
H    -2.07081  -3.18576   2.68445
H    -5.19190   0.97800  -0.67150
H    -4.36930   2.17593   0.39394
H    -3.99456   2.13108  -1.36483
H    -0.27779  -1.68804  -1.23100
H     1.77216  -0.64637  -1.63782
