32
Generated by autodE on: 2022-10-14. E = -1045.885573 Ha
C     2.87805  -3.22929   0.09018
N     2.48896  -1.88232   0.45592
C     1.40413  -1.30513  -0.08018
O     0.63145  -1.88760  -0.85807
C     1.17890   0.12637   0.23797
O     0.05935   0.70861  -0.10735
C    -1.13602   0.27681  -0.39590
C    -1.62425  -1.07738  -0.02378
O    -2.41936  -1.72584  -0.66822
O    -1.15063  -1.42566   1.17439
C    -1.43457  -2.76143   1.61899
C    -2.00020   1.35596  -0.90923
O    -1.59706   2.48132  -1.13834
O    -3.25878   0.95238  -1.08740
C    -4.17860   1.92977  -1.59559
C     2.24054   1.06226   0.63815
O     3.34347   0.69620   1.02331
O     1.86484   2.33800   0.57540
C     2.83711   3.31459   0.97976
H     3.24082  -3.28305  -0.94995
H     3.67880  -3.56126   0.76178
H     2.02141  -3.91220   0.18626
H     3.14218  -1.27287   0.94809
H    -2.51598  -2.89688   1.76134
H    -0.90656  -2.87914   2.57178
H    -1.06197  -3.48780   0.88301
H    -5.14005   1.41357  -1.69459
H    -4.26760   2.77246  -0.89470
H    -3.84151   2.30124  -2.57409
H     3.72623   3.26062   0.33525
H     2.34568   4.28772   0.86943
H     3.13134   3.15111   2.02645
