10
Generated by autodE on: 2022-10-07. E = -455.046554 Ha
O    -2.76097  -0.55791   0.24628
C    -1.51562  -0.43612   0.06508
O    -0.73704  -1.35865  -0.30756
C    -0.93604   0.93417   0.32489
C     0.36624   1.25745   0.25767
C     1.52883   0.34643  -0.08978
O     1.89883   0.34268  -1.29245
O     2.08061  -0.25579   0.86726
H    -1.66846   1.70229   0.59894
H     0.65909   2.29401   0.47540
