42
Generated by autodE on: 2022-10-07. E = -1500.937167 Ha. Imaginary frequency = -200.8 cm-1
C     3.11444  -3.41138   0.86647
N     2.73787  -2.02944   1.07931
C     1.45391  -1.63836   0.97039
O     0.53046  -2.44288   0.76395
C     1.19330  -0.18580   1.06365
C     2.21973   0.82758   1.34739
O     3.42117   0.63539   1.19500
O     1.71074   1.97407   1.79365
C     2.61497   3.08143   1.89465
O    -0.02596   0.31378   1.03825
C    -1.15374  -0.08392   0.50211
C    -1.76828  -1.42074   0.79584
O    -2.36756  -2.10764  -0.00157
O    -1.70267  -1.66606   2.10851
C    -2.19864  -2.94031   2.54249
C    -2.02107   1.07499   0.18491
O    -1.67261   2.23252   0.30529
O    -3.20966   0.68128  -0.27585
C    -4.05586   1.69906  -0.82785
C    -0.14994  -0.57819  -1.73437
C    -1.25748   0.11425  -2.51330
O    -1.17329   1.36058  -2.69012
O    -2.17752  -0.63364  -2.93369
C     1.11768  -0.08125  -1.58482
C     1.56919   1.32357  -1.93428
O     2.15285   1.40809  -3.04526
O     1.39076   2.24825  -1.10543
H     2.92213  -3.73139  -0.17159
H     4.18500  -3.52257   1.07755
H     2.54929  -4.07917   1.53413
H     3.44628  -1.29857   1.13152
H     3.00210   3.33696   0.89770
H     2.02575   3.91407   2.29564
H     3.44949   2.84529   2.56994
H    -3.26890  -3.03907   2.31131
H    -2.03989  -2.97287   3.62650
H    -1.63825  -3.74863   2.05121
H    -4.96128   1.18457  -1.16884
H    -4.30630   2.45127  -0.06639
H    -3.54600   2.17810  -1.67583
H    -0.30556  -1.64622  -1.57711
H     1.93521  -0.77968  -1.38585
