39
Generated by autodE on: 2022-05-31. E = -1589.379946 Ha
C    -4.27264   2.33634  -0.52818
N    -2.90030   1.86523  -0.47766
C    -2.45849   1.11006   0.53077
O    -3.13239   0.74209   1.49340
C    -1.00788   0.68753   0.45457
O    -0.32221   1.05167  -0.74692
C     0.94980   0.58847  -0.37224
C     2.00790   0.94810  -1.40537
O     1.78023   0.70324  -2.58999
N     3.13345   1.47928  -0.92662
C     4.23722   1.83220  -1.80153
O     1.16355   1.24604   0.90172
C    -0.06473   1.33480   1.48822
O    -0.26866   1.81479   2.56240
C     0.71078  -0.92824  -0.07740
Cl    1.98966  -1.49875   1.04840
C     0.48690  -1.86991  -1.28390
C     0.27355  -3.30401  -0.74825
C    -1.10276  -3.21825  -0.02287
C    -1.57047  -1.77143  -0.31319
C    -0.96058  -1.53257  -1.71024
C    -0.73085  -0.84694   0.57246
F    -0.76336  -1.19718   1.90132
H    -4.49407   3.00225   0.32036
H    -4.42246   2.88783  -1.46344
H    -4.97665   1.49119  -0.49298
H    -2.25160   2.12184  -1.21578
H     3.19768   1.67839   0.06730
H     4.49435   0.98514  -2.45413
H     3.98104   2.69298  -2.43942
H     5.10702   2.09043  -1.18659
H     1.26408  -1.77668  -2.04968
H     1.08513  -3.64057  -0.09325
H     0.22921  -3.98962  -1.60564
H    -1.02939  -3.41755   1.05398
H    -1.82782  -3.92708  -0.44525
H    -2.64831  -1.60423  -0.19815
H    -1.10096  -0.52753  -2.11504
H    -1.33656  -2.26515  -2.43802
