22
Generated by autodE on: 2022-05-31. E = -757.542807 Ha
C     4.56568   0.71139   0.41365
N     3.12626   0.57549   0.28484
C     2.55861  -0.62907   0.15998
O     3.14399  -1.70808   0.13791
C     1.06387  -0.61142   0.04864
O     0.36477  -1.68666  -0.03371
C    -1.08589  -1.27711  -0.11453
O    -1.94186  -2.12444  -0.19720
C    -0.98509   0.11304  -0.06431
C    -1.97607   1.18361  -0.11251
O    -1.64798   2.37637  -0.04481
N    -3.25667   0.77132  -0.23869
C    -4.35079   1.71997  -0.28752
O     0.35475   0.46684   0.03702
H     4.93410   0.13283   1.27441
H     5.07781   0.34591  -0.49010
H     4.80697   1.77002   0.56061
H     2.54408   1.40917   0.28407
H    -3.45743  -0.22370  -0.27989
H    -4.43727   2.28908   0.65263
H    -5.28596   1.17153  -0.45276
H    -4.21572   2.44269  -1.10753
