17
Generated by autodE on: 2022-05-31. E = -831.765987 Ha
F     1.74441  -1.29401   0.47613
C     0.72731  -0.68484  -0.13674
C     0.32111   0.58336   0.01815
Cl    0.97557   1.77535   1.08879
C    -1.01455   0.70647  -0.69799
C    -2.04201  -0.09907   0.16100
C    -1.55712  -1.56984  -0.00617
C    -0.31073  -1.42644  -0.94433
C    -0.78117  -0.27916  -1.86443
H    -1.31419   1.73097  -0.94936
H    -2.04119   0.23881   1.20703
H    -3.05806   0.03642  -0.23822
H    -1.29115  -2.04798   0.94712
H    -2.32081  -2.19203  -0.49546
H     0.03559  -2.35660  -1.41154
H    -0.00447   0.05890  -2.56487
H    -1.70484  -0.52199  -2.41102
