39
Generated by autodE on: 2022-05-31. E = -1589.306935 Ha. Imaginary frequency = -310.7 cm-1
C    -4.72223   1.41686   1.21900
N    -3.27379   1.46506   1.21662
C    -2.56927   1.30981   0.07815
O    -3.08638   1.14823  -1.03519
C    -1.11395   1.29937   0.25218
O    -0.31475   1.28376  -0.85685
C     0.91580   1.09455  -0.42326
C     2.04328   1.12480  -1.40105
O     1.80919   0.90877  -2.59063
N     3.24873   1.35037  -0.86550
C     4.46110   1.27193  -1.65917
O     1.02955   1.47220   0.85206
C    -0.29687   1.55985   1.38681
O    -0.49756   1.77047   2.56113
C     0.74223  -1.13983   0.00586
Cl    2.18736  -1.35067   0.97790
C     0.56587  -1.91292  -1.30085
C     0.35772  -3.40052  -0.88207
C    -1.02702  -3.37774  -0.17225
C    -1.47153  -1.87562  -0.29445
C    -0.88049  -1.52450  -1.67517
C    -0.51257  -1.16222   0.61462
F    -0.67942  -1.17888   1.93523
H    -5.07850   1.56885   2.24470
H    -5.09117   0.44413   0.85580
H    -5.14881   2.20210   0.57531
H    -2.77194   1.58824   2.09239
H     3.32614   1.46253   0.14140
H     4.30356   1.75117  -2.63466
H     5.26918   1.78965  -1.12860
H     4.75906   0.22396  -1.82944
H     1.34418  -1.73551  -2.05137
H     0.33931  -4.03403  -1.78015
H     1.16758  -3.75668  -0.23110
H    -0.98136  -3.70371   0.87604
H    -1.76456  -4.00553  -0.69218
H    -2.53573  -1.68446  -0.11683
H    -1.28351  -2.17803  -2.46128
H    -1.01124  -0.48190  -1.97284
