47
Generated by autodE on: 2022-06-24. E = -1301.319160 Ha
C    -4.35086   0.97711   0.87335
O    -3.82132  -0.25334   0.35102
C    -2.53450  -0.29059  -0.05904
C    -1.69908  -1.27700   0.39683
O    -1.96981  -2.17285   1.34650
C    -2.90381  -1.87716   2.39722
C    -0.38323  -1.52207  -0.24903
O     0.17171  -2.59537  -0.08509
C     0.30042  -0.40216  -1.02650
C     1.06987  -1.01994  -2.19616
C     1.30888   0.32364  -0.02993
C     2.62070  -0.32471   0.26374
C     3.74371   0.00421  -0.50611
C     4.96459  -0.62729  -0.26014
C     5.06755  -1.58657   0.75192
C     3.94620  -1.91173   1.52160
C     2.72248  -1.28429   1.28011
O     0.55814   0.55011   1.21081
C    -0.26778   1.58590   0.94083
O    -1.06112   2.03743   1.72355
C     0.02649   1.96659  -0.51412
C    -0.24348   3.40148  -0.85996
O     1.41787   1.61104  -0.56909
C    -0.61769   0.82099  -1.41929
C    -0.49956   1.22289  -2.89303
C    -2.09995   0.67799  -1.07662
O    -2.92676   1.41638  -1.59970
H    -5.07382   0.69673   1.65190
H    -4.85873   1.54702   0.08380
H    -3.55390   1.58767   1.32024
H    -2.76924  -0.84389   2.74939
H    -2.66295  -2.57904   3.20587
H    -3.93761  -2.02945   2.06377
H     1.72357  -0.28472  -2.67853
H     0.37164  -1.41656  -2.94503
H     1.68757  -1.84844  -1.83102
H     3.66114   0.75487  -1.29295
H     5.83903  -0.36653  -0.86038
H     6.02356  -2.07944   0.94327
H     4.02366  -2.65698   2.31629
H     1.84841  -1.53684   1.88061
H     0.24659   4.05990  -0.12898
H     0.13004   3.64009  -1.86332
H    -1.32631   3.58509  -0.82910
H    -1.15360   2.07725  -3.09888
H    -0.81389   0.39390  -3.54041
H     0.53116   1.49684  -3.14528
