26
Generated by autodE on: 2022-06-24. E = -689.460854 Ha
C     3.07690   1.43272  -0.12736
O     1.69947   1.73822   0.11446
C     0.73158   0.82675   0.02394
C     0.81458  -0.48761  -0.32741
O     1.98293  -1.08702  -0.70253
C     2.54809  -1.99839   0.24557
C    -0.40430  -1.32240  -0.39054
O    -0.31664  -2.49457  -0.75214
C    -1.72805  -0.73243  -0.02619
C    -2.92473  -1.62893  -0.07277
C    -1.82378   0.57625   0.31671
C    -3.13150   1.21406   0.67098
C    -0.60870   1.42975   0.35333
O    -0.66464   2.61398   0.65499
H     3.61322   2.37693   0.03095
H     3.44435   0.67863   0.58315
H     3.22949   1.08533  -1.15730
H     3.47376  -2.38308  -0.20267
H     2.78725  -1.47886   1.18843
H     1.86623  -2.83671   0.45158
H    -2.64556  -2.64927  -0.36000
H    -3.42664  -1.65862   0.90842
H    -3.66818  -1.24863  -0.79305
H    -3.85337   1.10900  -0.15542
H    -3.00519   2.27946   0.89650
H    -3.58182   0.71837   1.54701
