47
Generated by autodE on: 2022-06-24. E = -1301.272423 Ha. Imaginary frequency = -327.7 cm-1
C    -4.33328   0.80121   0.93056
O    -3.73014  -0.40853   0.44642
C    -2.47469  -0.39734  -0.06376
C    -1.55145  -1.31456   0.35621
O    -1.67239  -2.15185   1.39473
C    -2.46317  -1.76916   2.52861
C    -0.30365  -1.55014  -0.43145
O     0.32765  -2.59074  -0.25334
C     0.14251  -0.50069  -1.36196
C     1.23027  -0.88670  -2.32868
C     1.37712   0.56473   0.23412
C     2.56623  -0.22985   0.44947
C     3.71870  -0.00371  -0.32661
C     4.84154  -0.80579  -0.13975
C     4.82276  -1.83523   0.80940
C     3.67599  -2.06172   1.57796
C     2.54484  -1.26709   1.40140
O     0.42746   0.66531   1.19104
C    -0.39628   1.75946   0.87774
O    -1.34370   2.06448   1.56774
C     0.15431   2.26604  -0.35182
C    -0.11540   3.59009  -0.94535
O     1.39394   1.69074  -0.48811
C    -0.74407   0.56349  -1.67652
C    -0.57610   1.28913  -2.98283
C    -2.13250   0.56233  -1.13035
O    -2.98383   1.34582  -1.55518
H    -4.96501   0.51220   1.78288
H    -4.95738   1.26086   0.15176
H    -3.57236   1.51616   1.26665
H    -2.30399  -0.70567   2.76388
H    -2.10704  -2.38994   3.36111
H    -3.53016  -1.95626   2.35330
H     1.85887  -0.02776  -2.59852
H     0.78898  -1.27560  -3.26232
H     1.86860  -1.67002  -1.90432
H     3.72923   0.80232  -1.06115
H     5.73865  -0.62694  -0.73604
H     5.70616  -2.46189   0.95068
H     3.66119  -2.86512   2.31734
H     1.64381  -1.44611   1.98835
H     0.29375   4.39212  -0.30727
H     0.33003   3.67527  -1.94426
H    -1.20336   3.73187  -1.01754
H    -1.26389   2.13776  -3.06148
H    -0.80095   0.59522  -3.81166
H     0.45441   1.63898  -3.12542
