52
Generated by autodE on: 2022-06-05. E = -1388.382175 Ha
C     3.69769  -2.58467  -0.13125
N     2.77464  -1.53356  -0.50940
C     1.93486  -1.00087   0.39020
O     2.01820  -1.18054   1.60213
C     0.92393   0.02194  -0.23011
C     1.58921   1.39906   0.00420
O     1.60241   1.89230   1.13786
N     2.18023   1.95177  -1.05427
C     2.79845   3.26303  -0.98221
O     0.79364  -0.22837  -1.61944
N    -0.51565  -0.78332  -1.92741
C    -0.31871  -1.85852  -2.88544
C    -1.16559  -1.11374  -0.64242
C    -2.60656  -0.88968  -0.83133
N    -3.74413  -0.74740  -1.00031
C    -0.90119  -2.58947  -0.17168
C    -2.05577  -3.53915  -0.08873
O     0.25206  -2.94517  -0.04555
C    -0.54509  -0.02852   0.32223
C    -0.68088  -0.49059   1.78933
O    -1.32527  -1.51395   2.05196
N    -0.14607   0.31239   2.70876
C    -0.07110  -0.09020   4.09754
C    -1.30241   1.29971   0.11574
C    -1.09736   2.09245  -1.02528
C    -1.84126   3.25664  -1.23152
C    -2.82193   3.64100  -0.31517
C    -3.05748   2.84262   0.80651
C    -2.30751   1.68462   1.01798
H     4.40836  -2.75259  -0.95009
H     3.16604  -3.52814   0.08042
H     4.25415  -2.29473   0.77053
H     2.50804  -1.44394  -1.48538
H     2.03854   1.51068  -1.95853
H     3.35236   3.44563  -1.91065
H     3.49340   3.31136  -0.13212
H     2.03989   4.05272  -0.85521
H     0.08507  -1.42816  -3.81170
H    -1.30730  -2.28573  -3.10748
H     0.35518  -2.65219  -2.52572
H    -2.45496  -3.69640  -1.10520
H    -1.70412  -4.49679   0.31511
H    -2.86761  -3.13467   0.52890
H     0.50879   1.02077   2.35880
H     0.22569   0.77263   4.70740
H     0.66848  -0.89758   4.23837
H    -1.04840  -0.45293   4.44515
H    -0.36191   1.80855  -1.77225
H    -1.65246   3.85948  -2.12260
H    -3.40453   4.55048  -0.47820
H    -3.83233   3.11753   1.52554
H    -2.53154   1.07414   1.89188
