15
Generated by autodE on: 2022-06-05. E = -454.220546 Ha
C    -2.36716  -0.81232  -0.36881
C    -0.87872  -1.02478  -0.34094
O    -0.36538  -2.10059  -0.61302
C    -0.06986   0.16055   0.04032
C    -0.70411   1.39760   0.34777
N    -1.26236   2.38920   0.59120
N     1.27221   0.17727   0.12753
C     2.09961  -1.01533  -0.15695
O     1.88257   1.21049   0.45555
H    -2.62720  -0.01395  -1.08223
H    -2.85934  -1.74808  -0.66072
H    -2.72727  -0.49302   0.62234
H     1.92584  -1.33964  -1.18905
H     1.81677  -1.82454   0.52547
H     3.13316  -0.69391  -0.00063
