37
Generated by autodE on: 2022-06-05. E = -934.158942 Ha
C    -2.06942  -2.81220  -1.74129
N    -1.62651  -1.85855  -0.74297
C    -1.58656  -0.54011  -0.99116
O    -2.11429  -0.02593  -1.99112
C    -0.89167   0.30815   0.03986
C    -1.67139   1.43835   0.66005
O    -1.42026   1.84833   1.80184
N    -2.64099   1.96600  -0.10392
C    -3.46691   3.05902   0.36511
C     0.40022   0.09251   0.38119
C     1.07668   0.92264   1.45173
O     1.30750   0.44264   2.56528
N     1.48899   2.14097   1.05937
C     2.01148   3.10261   2.01126
C     1.27012  -0.92692  -0.25905
C     1.30767  -1.04674  -1.66122
C     2.11883  -2.00581  -2.26802
C     2.90644  -2.85753  -1.48627
C     2.88482  -2.73673  -0.09356
C     2.07972  -1.77413   0.51872
H    -1.29452  -2.97210  -2.51118
H    -2.97850  -2.44508  -2.23545
H    -2.28783  -3.77051  -1.25381
H    -1.09580  -2.20791   0.04914
H    -2.75613   1.58576  -1.04306
H    -3.97772   2.79467   1.30427
H    -2.86798   3.96517   0.55251
H    -4.22178   3.28654  -0.39713
H     1.13511   2.48891   0.17296
H     2.75494   2.62281   2.66189
H     1.20833   3.51366   2.64696
H     2.49221   3.92612   1.46846
H     0.70748  -0.37552  -2.27803
H     2.13977  -2.08374  -3.35739
H     3.53964  -3.60975  -1.96228
H     3.49812  -3.39749   0.52343
H     2.06043  -1.68206   1.60474
