52
Generated by autodE on: 2022-06-05. E = -1388.337339 Ha. Imaginary frequency = -393.7 cm-1
C     4.20153  -0.76172   1.52476
N     3.19002  -0.13027   0.69971
C     2.15995  -0.83817   0.21656
O     2.06634  -2.05908   0.35132
C     1.04823  -0.03888  -0.49224
C     1.56411   1.27747  -1.07182
O     1.99795   2.13992  -0.29323
N     1.55629   1.42739  -2.39623
C     1.96381   2.67329  -3.01682
O     0.86823  -1.02365  -1.93666
N    -0.09192  -1.90841  -1.78168
C     0.29343  -3.29497  -1.52032
C    -1.27097  -1.33342  -1.41139
C    -1.67560  -0.20160  -2.18911
N    -2.05893   0.69303  -2.82540
C    -2.41543  -2.15463  -0.85262
C    -3.60645  -1.37565  -0.37990
O    -2.38924  -3.37065  -0.86897
C    -0.23107  -0.03296   0.21654
C    -0.30864  -1.00201   1.39992
O    -0.99102  -2.02921   1.40523
N     0.41791  -0.62236   2.46752
C     0.61424  -1.50199   3.60340
C    -1.08694   1.16692   0.39211
C    -1.09042   2.27649  -0.48278
C    -1.93418   3.36677  -0.27109
C    -2.81445   3.38924   0.81213
C    -2.84760   2.29324   1.67936
C    -2.00439   1.20427   1.47168
H     3.77376  -1.11938   2.47672
H     4.99014  -0.03091   1.74110
H     4.64526  -1.62367   1.00586
H     3.12631   0.88615   0.65085
H     1.13491   0.68711  -2.95026
H     1.92182   2.55619  -4.10605
H     2.98988   2.93847  -2.72192
H     1.29780   3.49950  -2.71829
H     1.34131  -3.37996  -1.82218
H    -0.33367  -3.95451  -2.13016
H     0.18556  -3.55478  -0.46152
H    -4.20597  -1.08761  -1.26042
H    -4.21790  -2.01515   0.26915
H    -3.32231  -0.45196   0.14076
H     0.98329   0.21755   2.39778
H     1.20851  -0.97660   4.36086
H     1.14757  -2.41827   3.29995
H    -0.35009  -1.79457   4.04521
H    -0.45734   2.29606  -1.36244
H    -1.90249   4.20445  -0.97150
H    -3.47173   4.24611   0.97569
H    -3.53686   2.28144   2.52671
H    -2.07236   0.36587   2.16400
