28
Generated by autodE on: 2022-07-27. E = -799.017894 Ha
C     2.09281   2.44852  -1.76272
O     1.89839   1.38489  -0.81743
C     0.83985   0.60702  -1.00599
O     0.06214   0.72063  -1.93143
C     0.78778  -0.50929  -0.01190
C     2.05978  -1.11921   0.48489
C     3.27482  -1.09416  -0.40188
O     2.09167  -1.62171   1.60020
N    -0.39151  -1.01173   0.35332
C    -0.49953  -2.40443   0.84962
C    -1.55980  -0.27903   0.32315
C    -2.79367  -0.96870   0.28427
N    -3.83950  -1.48579   0.23890
C    -1.56346   1.15801   0.58531
C    -2.90613   1.80821   0.79985
O    -0.51707   1.80558   0.67037
H     2.21437   2.04249  -2.77692
H     3.00471   2.96728  -1.44712
H     1.23342   3.13342  -1.73813
H     3.86568  -0.19006  -0.18724
H     3.01770  -1.08747  -1.46995
H     3.89008  -1.97202  -0.16107
H    -1.39328  -2.84874   0.39704
H    -0.60489  -2.39755   1.94107
H     0.37504  -2.98130   0.54580
H    -2.75603   2.87179   1.02264
H    -3.45789   1.32946   1.62312
H    -3.51949   1.70590  -0.11011
