66
Generated by autodE on: 2022-06-28. E = -1348.039478 Ha
C     5.53426  -0.39046   1.40623
C     4.24918  -0.18466   1.75967
C     3.81598  -0.16947   3.20239
C     3.23014   0.01927   0.72412
C     1.92193   0.23334   0.95610
C     0.91837   0.42159  -0.13404
C    -0.23564  -0.64327  -0.22474
C    -0.58492  -1.23814   1.15472
C    -1.79157  -0.97370   1.80833
C    -2.07134  -1.52408   3.06560
C    -1.14098  -2.35300   3.69383
C     0.06515  -2.64081   3.04356
C     0.33170  -2.09763   1.78675
C     0.12931  -1.82307  -1.16858
C     1.08854  -1.73485  -2.18865
C     1.34205  -2.81311  -3.04454
C     0.63646  -4.00910  -2.90813
C    -0.32930  -4.11361  -1.90267
C    -0.57178  -3.03763  -1.04819
N    -1.37325   0.15513  -0.75733
C    -2.37560  -0.52816  -1.55710
C    -0.99100   1.52301  -1.10883
C    -0.63763   1.57025  -2.62923
C    -1.71317   1.95067  -3.61558
O     0.45730   1.22233  -3.03602
C    -2.07445   2.57536  -0.83324
O    -1.92119   3.72834  -1.25901
N    -3.12682   2.19927  -0.09783
C    -4.11831   3.14156   0.37825
C     0.21699   1.80945  -0.14073
C     1.16350   2.91102  -0.62543
C    -0.28426   2.20976   1.25942
H     6.31461  -0.55086   2.15555
H     5.83626  -0.40331   0.35442
H     4.66617  -0.34501   3.87654
H     3.05317  -0.94280   3.39381
H     3.35548   0.79661   3.46822
H     3.58212  -0.02666  -0.31314
H     1.56221   0.27645   1.98485
H     1.45825   0.38260  -1.07912
H    -2.52944  -0.33387   1.32957
H    -3.02467  -1.30059   3.55074
H    -1.35457  -2.78042   4.67644
H     0.80015  -3.29795   3.51495
H     1.26560  -2.35083   1.28435
H     1.65194  -0.81918  -2.34841
H     2.10123  -2.70879  -3.82364
H     0.83584  -4.85053  -3.57598
H    -0.89659  -5.03929  -1.77830
H    -1.32624  -3.14824  -0.26894
H    -2.00575  -0.89032  -2.53474
H    -3.22563   0.14175  -1.74074
H    -2.76111  -1.39601  -1.00426
H    -2.72800   1.73446  -3.25881
H    -1.52100   1.43868  -4.56823
H    -1.65163   3.03824  -3.77950
H    -3.10358   1.25723   0.27717
H    -4.99820   2.59102   0.73454
H    -3.72810   3.75956   1.20511
H    -4.42262   3.81404  -0.43612
H     1.63058   2.66720  -1.58698
H     0.62450   3.86359  -0.73070
H     1.96487   3.05340   0.11556
H    -0.77150   3.19527   1.23446
H    -0.98592   1.48431   1.68657
H     0.57173   2.29463   1.94328
