23
Generated by autodE on: 2022-06-28. E = -351.521382 Ha
C    -3.54870   0.14813   1.29821
C    -2.54561  -0.13084   0.43693
C    -2.81251  -0.80607  -0.88410
C    -1.16955   0.22329   0.77943
C    -0.07822  -0.00615   0.00660
C     1.26713   0.36550   0.39479
C     2.40649   0.16976  -0.31602
C     3.73566   0.61674   0.22380
C     2.46273  -0.48579  -1.66669
H    -4.58696  -0.10604   1.06730
H    -3.35186   0.63848   2.25662
H    -2.47724  -0.17794  -1.72614
H    -3.88345  -1.01601  -1.01479
H    -2.26072  -1.75754  -0.96290
H    -1.02876   0.71485   1.74967
H    -0.21112  -0.49593  -0.96183
H     1.35927   0.85707   1.37090
H     4.21599   1.33500  -0.46486
H     4.43178  -0.23723   0.30712
H     3.64523   1.09008   1.21252
H     3.13293  -1.36301  -1.63780
H     2.89801   0.20647  -2.40910
H     1.48429  -0.81523  -2.03922
