43
Generated by autodE on: 2022-07-28. E = -996.493000 Ha
C     1.10741   3.58073   2.32564
N     0.26348   3.17917   1.22038
C     0.55433   2.07764   0.47773
O     1.55206   1.38490   0.79111
C    -0.30401   1.71479  -0.64908
C    -1.41936   2.36076  -1.23690
C    -1.82788   3.76592  -0.83322
O    -2.12178   1.77816  -2.10751
N     0.06540   0.45181  -1.23178
C     0.59854   0.50851  -2.59831
C     0.09629  -0.63489  -0.49672
C    -0.70604  -0.71790   0.73852
C    -2.05290  -0.30917   0.73483
C    -2.81878  -0.43535   1.89108
C    -2.24625  -0.94844   3.06272
C    -0.90874  -1.35395   3.06951
C    -0.14170  -1.25259   1.90707
C     0.92397  -1.79751  -0.86290
C     2.28655  -1.62540  -1.16775
C     3.08111  -2.73509  -1.45242
C     2.52258  -4.01792  -1.44896
C     1.16963  -4.19416  -1.13818
C     0.37477  -3.09148  -0.82746
H     1.15730   2.80308   3.10572
H     2.13939   3.78860   1.99883
H     0.69298   4.49448   2.77038
H    -0.56274   3.72483   1.02409
H    -2.34484   3.75406   0.14222
H    -0.97822   4.46093  -0.76752
H    -2.54077   4.14113  -1.57963
H     1.60198   0.95552  -2.58834
H    -0.07687   1.14235  -3.18320
H     0.63456  -0.49198  -3.04279
H    -2.49154   0.08655  -0.18237
H    -3.86830  -0.13334   1.88056
H    -2.84861  -1.03778   3.96973
H    -0.46128  -1.75570   3.98113
H     0.90315  -1.56668   1.90656
H     2.72171  -0.62574  -1.14448
H     4.14187  -2.59886  -1.67353
H     3.14614  -4.88463  -1.67991
H     0.73505  -5.19596  -1.12954
H    -0.67769  -3.22440  -0.57083
