66
Generated by autodE on: 2022-06-28. E = -1347.958169 Ha. Imaginary frequency = -316.0 cm-1
C     3.10083  -1.79464   3.78288
C     2.36475  -0.79090   3.25301
C     1.62982   0.18824   4.13259
C     2.22344  -0.66494   1.80777
C     1.47891   0.28156   1.17760
C     1.24449   0.33369  -0.23930
C    -0.76947  -1.00181  -0.72363
C    -1.19206  -1.29901   0.66004
C    -2.46453  -0.93588   1.14075
C    -2.87542  -1.28154   2.42829
C    -2.02944  -2.01546   3.26716
C    -0.78538  -2.43578   2.78529
C    -0.37817  -2.09404   1.49636
C    -0.29923  -2.19005  -1.50212
C     0.60399  -2.05291  -2.57439
C     1.02466  -3.15979  -3.31072
C     0.54819  -4.43751  -2.99886
C    -0.35753  -4.59252  -1.94551
C    -0.77455  -3.48393  -1.20691
N    -1.34841   0.01597  -1.47176
C    -1.98538  -0.37575  -2.75212
C    -1.29069   1.37671  -1.10959
C    -1.47319   2.40299  -2.14444
C    -1.66281   3.84246  -1.69822
O    -1.40746   2.18201  -3.35988
C    -1.86300   1.76528   0.25697
O    -1.24129   1.81848   1.31978
N    -3.18311   2.05319   0.21674
C    -3.91856   2.40934   1.41362
C     0.95376   1.55442  -0.91373
C     1.34084   1.59884  -2.37392
C     1.18294   2.86771  -0.19717
H     3.62062  -2.51340   3.14173
H     3.20052  -1.92119   4.86446
H     1.81148  -0.01643   5.19716
H     0.54363   0.13839   3.94827
H     1.93807   1.22544   3.92106
H     2.72863  -1.42873   1.20501
H     0.97629   1.03650   1.78171
H     1.71152  -0.45515  -0.83053
H    -3.15037  -0.40079   0.48801
H    -3.87051  -0.98811   2.77135
H    -2.34812  -2.28025   4.27808
H    -0.12227  -3.03239   3.41607
H     0.57099  -2.46551   1.11989
H     0.98471  -1.06750  -2.83397
H     1.73323  -3.02322  -4.13102
H     0.87831  -5.30515  -3.57484
H    -0.74894  -5.58246  -1.69928
H    -1.49497  -3.62172  -0.40049
H    -1.30864  -0.34245  -3.61265
H    -2.82976   0.29278  -2.94557
H    -2.37465  -1.39405  -2.63983
H    -2.71478   4.12181  -1.87367
H    -1.04043   4.48408  -2.33842
H    -1.42830   4.03762  -0.64614
H    -3.68090   1.97880  -0.66375
H    -4.96538   2.59738   1.14474
H    -3.88006   1.59815   2.15853
H    -3.50164   3.31675   1.87934
H     0.81460   0.84258  -2.97002
H     1.13940   2.57828  -2.82637
H     2.42286   1.40351  -2.47015
H     0.82514   3.71712  -0.79288
H     0.71282   2.90939   0.78957
H     2.27131   3.00579  -0.06190
