40
Generated by autodE on: 2022-06-22. E = -973.451091 Ha
C    -3.87234   1.40877   1.91092
N    -3.33345   0.64259   0.81048
C    -2.05326   0.21918   0.79203
O    -1.28201   0.42613   1.76886
C    -1.60709  -0.46456  -0.41931
C    -2.35797  -0.62299  -1.60932
C    -1.69005  -1.24264  -2.82355
O    -3.55485  -0.23895  -1.72510
N    -0.28878  -1.02622  -0.30836
C    -0.19965  -2.48129  -0.13367
C     0.72998  -0.22234  -0.19370
C     0.57228   1.19257  -0.72984
O     0.83654   1.36068  -1.92430
N     0.26734   2.14266   0.15374
C     0.05527   3.51912  -0.25508
C     2.05004  -0.60636   0.31515
C     3.21498  -0.16893  -0.34412
C     4.46743  -0.49962   0.16915
C     4.56956  -1.23628   1.35443
C     3.41415  -1.64580   2.02880
C     2.15644  -1.34034   1.51246
H    -3.79845   0.85993   2.86371
H    -3.34748   2.37088   2.04189
H    -4.93177   1.61689   1.71347
H    -3.86072   0.46865  -0.05051
H    -0.59979  -1.11054  -2.83404
H    -1.91272  -2.32207  -2.86673
H    -2.11991  -0.78255  -3.72479
H    -0.88267  -2.94585  -0.85422
H     0.82301  -2.83402  -0.30645
H    -0.53036  -2.74655   0.88013
H    -0.13541   1.80654   1.03570
H    -0.91859   3.64643  -0.75652
H     0.08349   4.16491   0.63135
H     0.84630   3.82971  -0.95075
H     3.12956   0.40755  -1.26598
H     5.36885  -0.17661  -0.35562
H     5.55338  -1.48495   1.75861
H     3.49280  -2.20317   2.96444
H     1.25540  -1.63262   2.05243
