46
Generated by autodE on: 2022-06-22. E = -1052.034107 Ha. Imaginary frequency = -367.2 cm-1
C     5.14773   0.56889   0.53909
N     3.81828   0.21615   0.07891
C     2.77224   0.17900   0.91459
O     2.86273   0.47895   2.11279
C     1.44742  -0.28703   0.33030
C     1.16249  -1.70967   0.60941
C     2.35295  -2.54016   1.05725
O     0.06651  -2.25744   0.49772
C     1.44258  -1.00897  -1.93792
C     0.09164  -0.83760  -2.19584
C    -0.68171   0.47920  -0.52343
C    -1.22080   1.62296  -1.37100
O    -0.54759   2.15119  -2.26732
N    -2.48143   2.02350  -1.12009
C    -3.12581   3.04111  -1.92512
C    -1.70714  -0.30518   0.21749
C    -1.71207  -0.31244   1.62294
C    -2.72301  -0.96529   2.33008
C    -3.75514  -1.61536   1.64664
C    -3.76822  -1.60108   0.24705
C    -2.75727  -0.95025  -0.45999
N     0.54471   0.71828   0.06570
C     1.10972   2.08313   0.01078
H     5.49511  -0.12905   1.31769
H     5.16126   1.58529   0.96261
H     5.83963   0.52849  -0.31074
H     3.67763  -0.06564  -0.88484
H     3.22223  -2.41116   0.39858
H     2.05332  -3.59568   1.06752
H     2.65991  -2.24181   2.07179
H     1.86086  -1.99241  -1.71887
H     2.15377  -0.25328  -2.28522
H    -0.58731  -1.68414  -2.08282
H    -0.22257  -0.05341  -2.88198
H    -3.00351   1.57944  -0.37284
H    -3.09279   2.77583  -2.99341
H    -4.17313   3.13139  -1.61216
H    -2.63379   4.02008  -1.80659
H    -0.90662   0.18898   2.16245
H    -2.70408  -0.96458   3.42277
H    -4.54646  -2.12688   2.19956
H    -4.57086  -2.10382  -0.29797
H    -2.77577  -0.94647  -1.55143
H     0.30019   2.81696   0.02934
H     1.72240   2.23071  -0.88759
H     1.71453   2.24659   0.90778
