50
Generated by autodE on: 2022-05-30. E = -1038.979088 Ha
C     1.67176  -0.23930   2.48245
C     0.97939  -0.62605   1.17154
C     1.09237   0.49809   0.14928
C     2.37884   1.04670  -0.34469
C     3.58627   0.33244  -0.24241
C     4.77723   0.87546  -0.72925
C     4.78517   2.14288  -1.31778
C     3.59158   2.86691  -1.41870
C     2.40155   2.32391  -0.93814
N    -0.01440   1.00325  -0.26460
C    -1.15533   0.41697   0.45611
C    -1.60382   1.49759   1.36521
N    -1.95513   2.37986   2.03337
C    -2.35752   0.15369  -0.46611
C    -3.49417  -0.50333   0.02523
C    -4.59071  -0.73868  -0.80748
C    -4.57100  -0.30818  -2.13773
C    -3.44876   0.36691  -2.62512
C    -2.35045   0.60148  -1.79302
C    -0.59709  -0.82045   1.27426
C    -1.15336  -0.84642   2.70290
C    -0.78221  -2.22412   0.62179
C    -0.38897  -2.26488  -0.87443
C     1.16356  -2.17399  -0.85440
C     1.46946  -2.02333   0.64666
C     0.41681  -2.97187   1.24213
H     1.53636  -1.02390   3.24029
H     2.75142  -0.10672   2.32619
H     1.27047   0.70185   2.88644
H     3.60451  -0.65862   0.20669
H     5.70369   0.30281  -0.64690
H     5.71879   2.56792  -1.69370
H     3.59035   3.86142  -1.87085
H     1.47162   2.88808  -1.00908
H    -3.53221  -0.83648   1.06277
H    -5.46558  -1.25968  -0.41164
H    -5.42850  -0.49368  -2.78873
H    -3.42437   0.71506  -3.66050
H    -1.47386   1.12308  -2.17445
H    -0.89875   0.05856   3.26778
H    -0.76986  -1.70489   3.26724
H    -2.24969  -0.92885   2.68444
H    -1.77291  -2.64983   0.82560
H    -0.84787  -1.46884  -1.46814
H    -0.72602  -3.21860  -1.30700
H     1.55046  -1.34839  -1.46628
H     1.62353  -3.09887  -1.23320
H     2.51001  -2.23673   0.92284
H     0.41687  -3.00704   2.33862
H     0.51687  -3.99943   0.86019
