23
Generated by autodE on: 2022-05-30. E = -351.531680 Ha
C     2.23207  -1.05374   0.29071
C     0.94497  -0.41428  -0.11167
C     0.55446   0.87683  -0.02872
C     1.28785   2.06796   0.49164
C    -0.92868   0.91750  -0.38762
C    -1.67995   0.25477   0.81228
C    -1.22997  -1.23310   0.71660
C    -0.28079  -1.22458  -0.52533
C    -1.00754  -0.21267  -1.43201
H     2.98288  -0.31720   0.61401
H     2.07322  -1.76224   1.12428
H     2.66428  -1.64379  -0.53679
H     0.79378   2.46706   1.39643
H     1.29287   2.89095  -0.24484
H     2.33136   1.83641   0.75278
H    -1.31846   1.90399  -0.67572
H    -2.76989   0.35293   0.68959
H    -1.40868   0.72593   1.76874
H    -0.70990  -1.58447   1.62020
H    -2.08805  -1.90152   0.54465
H    -0.07115  -2.22036  -0.94074
H    -0.45136   0.01486  -2.35407
H    -2.03918  -0.50849  -1.68398
