23
Generated by autodE on: 2022-06-23. E = -351.521383 Ha
C     3.69885  -0.74879   0.23763
C     2.58609  -0.02081  -0.00256
C     2.67171   1.40801  -0.47506
C     1.26665  -0.61683   0.19724
C     0.07830   0.00571  -0.00575
C    -1.20394  -0.63345   0.20918
C    -2.43157  -0.08182   0.03505
C    -3.67705  -0.87892   0.30187
C    -2.67147   1.32910  -0.42200
H     4.69824  -0.32769   0.09699
H     3.63349  -1.78587   0.58103
H     3.71713   1.72948  -0.58373
H     2.16680   1.53648  -1.44691
H     2.17107   2.09063   0.23161
H     1.25886  -1.65802   0.54157
H     0.07775   1.04399  -0.34839
H    -1.16222  -1.67525   0.54946
H    -3.45219  -1.90382   0.63170
H    -4.30844  -0.93341  -0.60322
H    -4.29614  -0.39047   1.07586
H    -3.28007   1.33407  -1.34351
H    -3.25810   1.88043   0.33413
H    -1.75039   1.89308  -0.61752
