34
Generated by autodE on: 2022-07-27. E = -674.955877 Ha
C    -0.03980  -0.81067   2.45779
C    -0.50779  -0.85597   1.04022
C    -1.43433  -1.90806   0.61939
C    -1.30977  -2.62280  -0.59784
C    -2.19184  -3.65155  -0.92772
C    -3.22223  -4.01680  -0.05453
C    -3.35130  -3.33873   1.16337
C    -2.47447  -2.30767   1.49577
N    -0.01325   0.08359   0.19575
C    -0.59156   0.21734  -1.15677
C     0.89072   1.02758   0.59714
C     1.59928   2.00530  -0.18357
C     2.21224   3.06714   0.54829
C     2.95945   4.05966  -0.07369
C     3.14152   4.05243  -1.46493
C     2.57023   3.01220  -2.20517
C     1.82334   2.00653  -1.59029
H    -0.44958  -1.64644   3.03564
H    -0.31336   0.13412   2.96653
H     1.06477  -0.87362   2.50776
H    -0.48945  -2.39644  -1.27873
H    -2.06048  -4.18543  -1.87243
H    -3.90965  -4.82469  -0.31527
H    -4.14961  -3.60987   1.85900
H    -2.60629  -1.78201   2.44355
H    -0.63379   1.28009  -1.41281
H     0.00594  -0.31468  -1.90565
H    -1.60762  -0.18455  -1.15665
H     1.08611   1.05079   1.66390
H     2.07830   3.09601   1.63308
H     3.40343   4.85452   0.53197
H     3.72455   4.83409  -1.95678
H     2.71801   2.97045  -3.28794
H     1.44462   1.19965  -2.21300
