46
Generated by autodE on: 2022-06-22. E = -1238.417023 Ha
C     3.76454   2.19050   1.17089
O     2.84309   1.10116   0.99527
C     2.37553   0.92103  -0.22522
O     2.74820   1.52817  -1.20593
C     1.35645  -0.25075  -0.31746
C     1.80975  -1.06085  -1.47700
N     2.25106  -1.70827  -2.33172
N     1.26466  -1.00761   0.92237
C     2.20195  -2.10498   1.09648
N    -0.10059  -1.39424   1.18180
C    -0.54632  -0.91477   2.48633
C    -0.86017  -1.07384  -0.00227
O    -0.71813  -2.06196  -0.99355
C    -0.88238  -3.43264  -0.64554
C    -2.34991  -0.81868   0.28410
O    -3.12098  -1.76313   0.26514
C    -2.81413   0.55973   0.57384
C    -4.25177   0.73055   0.94541
C    -1.95508   1.61964   0.55840
C    -2.39864   2.99658   0.93813
C    -0.52739   1.43573   0.22122
O     0.31099   2.28353   0.47546
C    -0.14719   0.17756  -0.57946
O    -0.51553   0.33200  -1.91658
C    -0.21030   1.55803  -2.58971
H     4.05475   2.16920   2.22708
H     3.26773   3.14082   0.92825
H     4.64443   2.05613   0.52653
H     2.12589  -2.47780   2.12751
H     2.02522  -2.94389   0.39877
H     3.22308  -1.72486   0.94853
H    -0.50936   0.18306   2.60142
H     0.10167  -1.36080   3.25389
H    -1.57052  -1.26601   2.67441
H    -1.89705  -3.77862  -0.89376
H    -0.68846  -3.60174   0.42192
H    -0.14895  -4.00260  -1.23591
H    -4.33714   1.06762   1.99246
H    -4.72427   1.50805   0.32468
H    -4.80418  -0.20902   0.83216
H    -1.57053   3.71228   0.88291
H    -3.21024   3.33347   0.27292
H    -2.80757   3.00237   1.96180
H     0.86588   1.77381  -2.56115
H    -0.77110   2.40633  -2.16474
H    -0.52886   1.40984  -3.62949
