26
Generated by autodE on: 2022-06-22. E = -689.460890 Ha
C     2.27479   2.38968  -0.80766
O     0.92821   2.22163  -0.35171
C     0.36773   1.02446  -0.18369
C     0.89272  -0.21320  -0.40721
O     2.14727  -0.41263  -0.90916
C     3.11990  -0.89529   0.02343
C     0.07372  -1.42381  -0.18387
O     0.54702  -2.52974  -0.43962
C    -1.32007  -1.29153   0.33802
C    -2.09380  -2.54896   0.57930
C    -1.85437  -0.06508   0.56092
C    -3.25334   0.11604   1.06362
C    -1.04828   1.15730   0.31143
O    -1.50189   2.27638   0.50710
H     2.43292   3.47496  -0.84498
H     2.98882   1.93898  -0.10387
H     2.40941   1.95862  -1.80811
H     4.06289  -0.99546  -0.53020
H     3.25564  -0.17744   0.84948
H     2.83122  -1.87474   0.43305
H    -1.48875  -3.43604   0.35898
H    -2.43594  -2.60049   1.62602
H    -3.00065  -2.57395  -0.04790
H    -3.38179  -0.37341   2.04325
H    -3.50392   1.17846   1.16556
H    -3.97742  -0.35541   0.37904
