20
Generated by autodE on: 2022-06-22. E = -548.940737 Ha
C    -2.71345  -0.28624   1.22078
N    -2.50551  -0.33059  -0.20005
N    -1.32087  -0.23009  -0.64631
C    -1.20480  -0.51522  -2.09786
C    -0.17962   0.12471   0.06520
C    -0.27125   1.05046   1.12646
N    -0.32226   1.85407   1.97258
C     1.14274  -0.31777  -0.36680
O     1.38880  -1.11147  -1.26164
O     2.10565   0.25073   0.38550
C     3.45358  -0.14241   0.10481
H    -1.91269  -0.81286   1.76990
H    -3.68426  -0.75739   1.42075
H    -2.75758   0.74634   1.60514
H    -2.20703  -0.38883  -2.51685
H    -0.86446  -1.54765  -2.23022
H    -0.49050   0.17529  -2.55582
H     4.08103   0.40518   0.81783
H     3.58030  -1.22604   0.24494
H     3.73015   0.12590  -0.92538
