43
Generated by autodE on: 2022-05-30. E = -1127.976468 Ha
C    -1.16339  -2.96091  -0.77740
C    -1.15688  -1.63293  -0.11296
C    -2.10896  -0.71762   0.14350
C    -3.54914  -0.69783  -0.19589
F    -4.02673  -1.88965  -0.59748
F    -4.30809  -0.30643   0.85406
F    -3.81657   0.18558  -1.19170
C    -1.37999   0.50602   0.69666
O    -0.30037  -0.11528   1.41143
C     0.13661  -0.94588   0.32304
C     0.45953   0.10052  -0.78419
C     1.80063   0.87757  -0.60172
C     2.94920   0.04673  -0.08042
C     3.81828  -0.57108  -0.99289
C     4.86094  -1.39162  -0.55415
C     5.05621  -1.60505   0.81387
C     4.19776  -0.99521   1.73376
C     3.15158  -0.18098   1.29039
N     1.49865   2.06450   0.20782
C     0.13560   2.48666  -0.19074
C    -0.48231   3.32492   0.92420
C     0.21202   3.32225  -1.47489
C    -0.64444   1.16967  -0.50465
H    -2.16151  -3.26774  -1.11028
H    -0.75781  -3.72807  -0.09634
H    -0.48954  -2.93496  -1.65132
H    -1.96302   1.16764   1.34405
H     0.95622  -1.60551   0.62536
H     0.40707  -0.35891  -1.77932
H     2.08806   1.22103  -1.60644
H     3.67370  -0.40168  -2.06331
H     5.52647  -1.86071  -1.28304
H     5.87332  -2.24175   1.16148
H     4.33952  -1.15656   2.80526
H     2.48410   0.26839   2.02822
H     1.42581   1.75972   1.17862
H     0.08146   4.26183   1.05353
H    -0.46987   2.78946   1.88605
H    -1.52548   3.58442   0.68839
H     0.61725   2.74080  -2.31717
H    -0.79098   3.67086  -1.76548
H     0.85732   4.20121  -1.32277
H    -1.34344   1.31557  -1.33712
