19
Generated by autodE on: 2022-05-30. E = -684.055144 Ha
C    -0.15591   2.58042   0.20595
C    -0.47048   1.20442  -0.24731
C     0.16962   0.02780  -0.17525
C     1.44784  -0.35968   0.45423
F     1.24119  -1.17367   1.51961
F     2.23989  -1.05770  -0.39287
F     2.17394   0.68352   0.89460
C    -0.82688  -1.02376  -0.73016
C    -1.98094  -1.12744   0.29145
C    -2.62064   0.04275   0.20173
C    -1.84485   0.83105  -0.87518
O    -1.45201  -0.23559  -1.75557
H     0.83594   2.65959   0.66608
H    -0.21945   3.28495  -0.64045
H    -0.91700   2.90538   0.93742
H    -0.39927  -1.95490  -1.11678
H    -2.15143  -1.96913   0.96168
H    -3.45989   0.42824   0.77943
H    -2.37102   1.63643  -1.39908
