24
Generated by autodE on: 2022-07-26. E = -443.816184 Ha
C    -3.27519   2.19763   0.60617
C    -2.22365   1.79281  -0.37040
C    -2.20591   2.30881  -1.76423
N    -1.27685   0.94739   0.00378
C    -0.22845   0.42861  -0.70154
C     0.70942  -0.47905  -0.12570
C     1.76509  -0.99624  -0.93488
C     2.70661  -1.88617  -0.42970
C     2.65423  -2.31374   0.90658
C     1.62747  -1.81812   1.72215
C     0.67818  -0.92511   1.22935
H    -3.27541   3.29166   0.76547
H    -3.13161   1.70939   1.58241
H    -4.28474   1.93790   0.23816
H    -2.28032   1.48497  -2.50082
H    -3.03733   3.00500  -1.93644
H    -1.25638   2.83336  -1.98757
H    -1.34619   0.63484   0.97372
H    -0.13632   0.73252  -1.74179
H     1.82615  -0.67911  -1.97998
H     3.49743  -2.25632  -1.08887
H     3.39419  -3.01355   1.30088
H     1.56404  -2.13338   2.76781
H    -0.09838  -0.56755   1.91243
