24
Generated by autodE on: 2022-05-30. E = -443.816193 Ha
C    -3.30817  -1.42794  -0.54251
C    -2.87205  -0.19232   0.15928
C    -3.84741   0.72824   0.81063
N    -1.57932   0.08819   0.20207
C    -0.51393  -0.59591  -0.31125
C     0.83324  -0.14801  -0.17098
C     1.88687  -0.93213  -0.72981
C     3.21979  -0.55013  -0.62510
C     3.58372   0.63185   0.03952
C     2.56679   1.41970   0.59606
C     1.22711   1.04875   0.49852
H    -4.40015  -1.53675  -0.50577
H    -2.85052  -2.33047  -0.09209
H    -2.99157  -1.42225  -1.60381
H    -4.44077   0.20207   1.58076
H    -4.57398   1.12618   0.07837
H    -3.34400   1.58136   1.29133
H    -1.34890   0.95028   0.69912
H    -0.73336  -1.52002  -0.84105
H     1.62883  -1.85798  -1.25212
H     3.99242  -1.18472  -1.06922
H     4.63119   0.93010   0.12058
H     2.82167   2.34627   1.11893
H     0.47738   1.70372   0.95141
