43
Generated by autodE on: 2022-05-30. E = -1127.879631 Ha. Imaginary frequency = -208.3 cm-1
C    -1.19790  -3.13123  -0.79913
C    -1.17445  -1.75359  -0.24882
C    -2.12751  -0.88887   0.14058
C    -3.59941  -0.97488   0.10438
F    -4.06853  -2.21060  -0.15344
F    -4.16144  -0.58196   1.27337
F    -4.12138  -0.15368  -0.84384
C    -1.38681   0.43884   0.44023
O    -0.17171  -0.09626   0.99429
C     0.13519  -0.92825  -0.14139
C     0.09555   0.10375  -1.28169
C     2.23745   1.39929  -0.55125
C     3.10877   0.37980  -0.03170
C     3.97260  -0.29858  -0.93127
C     4.80207  -1.33153  -0.50432
C     4.81142  -1.73175   0.83965
C     3.96899  -1.07310   1.74355
C     3.13171  -0.03973   1.32387
N     1.43514   2.15396   0.23638
C     0.43481   2.95179  -0.16414
C    -0.37932   3.62441   0.89484
C     0.49661   3.56180  -1.52808
C    -0.87477   0.99062  -0.90431
H    -2.20982  -3.54800  -0.86643
H    -0.57268  -3.80038  -0.18373
H    -0.74686  -3.12802  -1.80741
H    -1.88377   1.13179   1.12766
H     1.05647  -1.50183   0.00701
H     0.51394  -0.07183  -2.27053
H     2.37640   1.73441  -1.57552
H     3.97442   0.00048  -1.98298
H     5.45217  -1.83176  -1.22734
H     5.46293  -2.54163   1.17519
H     3.96089  -1.36983   2.79589
H     2.48625   0.43700   2.06456
H     1.34965   1.84065   1.20159
H    -0.03361   4.65975   1.08093
H    -0.33505   3.07610   1.84831
H    -1.43420   3.69275   0.58469
H     0.68223   2.81946  -2.31804
H    -0.44696   4.07707  -1.75598
H     1.31148   4.31076  -1.58330
H    -1.45313   1.66535  -1.53236
