32
Generated by autodE on: 2022-05-29. E = -3491.346184 Ha
C     4.41767   2.82327   0.86585
N     3.48564   1.76699   1.19749
C     3.24731   0.71373   0.40448
O     3.80937   0.51179  -0.67930
C     2.20928  -0.28465   0.92704
N     1.51316   0.21237   2.11578
N     0.41158   0.93464   1.59710
C     0.22171   2.23178   1.98819
C    -0.89145   2.97486   1.29200
O     0.91065   2.75550   2.86494
C    -0.07523   0.33600   0.35268
C    -1.17131  -0.74628   0.59302
O    -0.38286  -1.83824   1.09801
C     0.47771  -1.96381  -0.04655
C    -0.55136  -2.03197  -1.16462
F    -0.32451  -2.61473  -2.32918
C    -1.58249  -1.27313  -0.77912
Br   -3.07725  -0.71733  -1.75440
C     1.11942  -0.54806  -0.13020
H     4.00074   3.79405   1.16890
H     4.59344   2.83007  -0.21783
H     5.38784   2.68864   1.37300
H     2.92868   1.83247   2.04926
H     2.75502  -1.20427   1.18367
H     1.13845  -0.58540   2.63072
H    -1.80102   2.36608   1.19108
H    -1.11228   3.88387   1.86473
H    -0.56656   3.26742   0.27989
H    -0.39081   1.10148  -0.36099
H    -1.97135  -0.46612   1.28570
H     1.17054  -2.80717   0.04508
H     1.46901  -0.32192  -1.14291
