32
Generated by autodE on: 2022-05-29. E = -3491.253750 Ha. Imaginary frequency = -329.0 cm-1
C     3.96701   3.11996  -0.11453
N     3.12431   2.19402   0.61304
C     3.43587   0.89280   0.71466
O     4.46461   0.39405   0.23501
C     2.47392   0.00357   1.44216
N     1.51144   0.44723   2.25575
N     0.77715   1.49517   1.87470
C    -0.37477   1.64189   2.62585
C    -1.26107   2.76854   2.17541
O    -0.64671   0.92260   3.59001
C     0.20748   0.54690  -0.21078
C    -1.02570  -0.26919   0.22198
O    -0.39223  -1.26776   1.04476
C     0.53439  -1.72312   0.04238
C    -0.45936  -2.03970  -1.08642
F    -0.24570  -2.96432  -2.00655
C    -1.43930  -1.13629  -0.98843
Br   -2.87065  -0.78907  -2.13597
C     1.22849  -0.38664  -0.31911
H     4.00479   2.87587  -1.18959
H     3.56464   4.13378   0.00180
H     4.99828   3.10183   0.27014
H     2.20714   2.47189   0.97037
H     2.88660  -0.97312   1.69984
H     1.02835  -0.24342   2.84391
H    -2.31382   2.50245   2.34322
H    -1.03539   3.65681   2.78985
H    -1.09153   3.02838   1.12250
H     0.14962   1.52407  -0.68385
H    -1.83927   0.24404   0.74352
H     1.15917  -2.55262   0.38996
H     2.05300  -0.33838  -1.02968
