42
Generated by autodE on: 2022-12-30. E = -1181.863653 Ha
C    -3.87093  -1.17373   1.82560
N    -2.62255  -1.15197   1.09036
C    -2.05104  -0.00382   0.71212
O    -2.57396   1.09641   0.92344
C    -0.73144  -0.10860  -0.07022
C    -0.91463  -1.17774  -1.23005
C     0.28922  -1.16533  -2.15648
C     1.27491  -1.75781  -1.47224
C     0.67673  -2.09155  -0.11573
O    -0.68901  -2.37314  -0.46713
C     0.48867  -0.74752   0.69901
O     0.12331  -0.96786   2.03546
C     1.10406  -1.49187   2.92024
C     1.60842   0.31570   0.53077
C     3.02783  -0.18521   0.29160
C     3.88953   0.61481  -0.63474
O     3.41856  -1.17627   0.88222
O     1.20685   1.15495  -0.54859
C    -0.20045   1.28035  -0.50497
C    -0.48373   2.39219   0.44255
N    -0.47327   3.36077   1.08337
C    -0.73441   1.74419  -1.89419
C     0.21525   2.51358  -2.75050
O    -1.87704   1.47449  -2.19161
H    -4.65857  -0.63206   1.27992
H    -3.76257  -0.70531   2.81773
H    -4.18424  -2.21629   1.95929
H    -2.10733  -2.01110   0.91631
H    -1.90581  -1.17126  -1.68941
H     0.31491  -0.71213  -3.14661
H     2.31124  -1.91444  -1.76669
H     1.11920  -2.91319   0.45273
H     0.60006  -1.62252   3.88762
H     1.95397  -0.80275   3.05022
H     1.48833  -2.46828   2.58516
H     1.64473   0.90792   1.46583
H     4.91173   0.21580  -0.63148
H     3.88487   1.67499  -0.33556
H     3.46904   0.57127  -1.65194
H     0.64812   3.34797  -2.17639
H     1.05219   1.85823  -3.03920
H    -0.30305   2.88230  -3.64428
