18
Generated by autodE on: 2022-12-30. E = -551.550880 Ha
C     2.75454   1.25950  -0.24648
C     2.59401  -0.14335   0.26571
O     3.52987  -0.85927   0.60965
C     1.23899  -0.69429   0.36257
O     0.26563   0.05954  -0.00114
C    -1.04609  -0.15872  -0.02495
C    -1.56610  -1.39768   0.40267
N    -1.97857  -2.42928   0.75980
C    -1.89228   0.92372  -0.50509
C    -1.21378   2.19820  -0.93064
O    -3.11209   0.76272  -0.54542
H     2.34554   1.34136  -1.26630
H     2.19023   1.96377   0.38550
H     3.81891   1.52532  -0.24730
H     1.05022  -1.70885   0.72953
H    -0.65000   2.63214  -0.08971
H    -0.49197   2.00073  -1.73863
H    -1.97477   2.90951  -1.27522
