29
Generated by autodE on: 2022-12-30. E = -724.984160 Ha
C     3.83420   0.70094  -1.77497
N     2.40808   0.71471  -1.51564
C     1.86821   0.02753  -0.48707
O     2.56532  -0.65899   0.27378
C     0.40182   0.20208  -0.30354
C    -0.53886  -0.70336   0.03203
O    -0.56870  -2.02404   0.19173
C     0.53569  -2.82678  -0.23733
C    -1.88504  -0.00978   0.22728
C    -3.01278  -0.62676  -0.59593
C    -2.24150  -0.03894   1.67390
N    -2.52215  -0.03906   2.79971
O    -1.65138   1.32823  -0.16891
C    -0.23881   1.57609  -0.35050
C     0.27327   2.52726   0.72137
H     4.18129  -0.29933  -2.08218
H     4.05612   1.41306  -2.57910
H     4.39830   0.99157  -0.87543
H     1.79848   1.22572  -2.14486
H     0.19250  -3.86699  -0.18249
H     0.80206  -2.57458  -1.27595
H     1.40655  -2.67025   0.41120
H    -3.93314  -0.04008  -0.46530
H    -2.71942  -0.61674  -1.65517
H    -3.19713  -1.66222  -0.27756
H    -0.12822   2.04366  -1.34464
H     1.33968   2.74691   0.56076
H    -0.28284   3.47627   0.68400
H     0.15220   2.07961   1.72003
