15
Generated by autodE on: 2022-12-30. E = -400.058634 Ha
C    -1.54785   1.72869  -0.67071
N    -2.11038   0.45719  -0.25306
C    -1.40411  -0.61855   0.15959
O    -1.94488  -1.67820   0.51310
C     0.03428  -0.46068   0.16471
C     1.24703  -0.35895   0.17973
O     2.52856  -0.30044   0.21407
C     3.14092   0.94961  -0.21058
H    -0.87916   1.61359  -1.53799
H    -0.97927   2.21054   0.14025
H    -2.37128   2.39472  -0.95671
H    -3.12013   0.34112  -0.25115
H     2.79190   1.76619   0.43680
H     2.87830   1.14700  -1.25931
H     4.22120   0.80381  -0.10248
