14
Generated by autodE on: 2022-12-30. E = -324.772646 Ha
C     2.88226  -0.32225  -0.66793
C     1.45744  -0.70473  -0.66121
O     0.61830   0.06509  -0.06521
C    -0.71960  -0.10560   0.05775
C    -1.35846  -1.30276  -0.53969
C    -1.36009   0.90943   0.76239
N    -1.93198   1.75187   1.35343
H     3.49698  -1.10858  -0.19335
H     3.03530   0.62660  -0.13513
H     3.25238  -0.22152  -1.70425
H     1.08737  -1.61539  -1.14005
H    -2.43987  -1.28662  -0.35004
H    -0.94451  -2.24050  -0.11823
H    -1.19743  -1.34877  -1.63523
