14
Generated by autodE on: 2023-01-01. E = -324.766034 Ha
C     2.01687   0.78126   0.66555
C     1.29792   1.17516  -0.55823
O     0.15233   0.70961  -0.91074
C    -0.71737  -0.17859  -0.39004
C    -1.94738  -0.38706  -1.21881
C    -0.49651  -0.84822   0.81509
N    -0.41131  -1.46165   1.81618
H     2.96975   1.32345   0.72155
H     1.42445   1.00498   1.57157
H     2.22171  -0.30494   0.67979
H     1.68629   1.90177  -1.27518
H    -2.50697   0.55347  -1.36809
H    -1.71061  -0.79740  -2.21695
H    -2.61644  -1.09858  -0.71495
