29
Generated by autodE on: 2022-12-30. E = -724.830142 Ha. Imaginary frequency = -277.4 cm-1
C     3.57252   1.40054  -2.14216
N     2.40389   0.60258  -1.83274
C     2.09547   0.26781  -0.55765
O     2.83824   0.56294   0.39560
C     0.86897  -0.47197  -0.37610
C    -0.07423  -1.25062  -0.21325
O    -0.75269  -2.35430  -0.05891
C    -0.29653  -3.21891   1.00864
C    -2.02537   0.20766   0.00556
C    -3.02457  -0.31690  -0.97990
C    -2.20633  -0.06075   1.37972
N    -2.42001  -0.39280   2.48292
O    -1.32495   1.27287  -0.42783
C    -0.28445   1.85476   0.07615
C     0.07593   1.88191   1.51067
H     3.63290   1.53254  -3.22952
H     3.52328   2.39539  -1.66851
H     4.49533   0.90932  -1.79576
H     1.74642   0.37092  -2.56905
H    -0.94595  -4.10181   0.98200
H     0.75126  -3.50665   0.83519
H    -0.39704  -2.70020   1.97264
H    -3.99187   0.21574  -0.93588
H    -2.62055  -0.22534  -1.99900
H    -3.21670  -1.38118  -0.77935
H     0.14379   2.57825  -0.62147
H     1.06609   2.34263   1.61727
H    -0.65498   2.50094   2.06655
H     0.09277   0.88675   1.97214
