48
Generated by autodE on: 2022-06-23. E = -1166.246992 Ha
C     0.74380  -3.15578   1.70023
N     1.11398  -1.84038   1.20327
C     2.35879  -1.59259   0.73047
C     2.75424  -0.43471   0.12259
C     4.15001  -0.34541  -0.32387
N     4.50272   0.77865  -1.00105
O     4.99558  -1.23959  -0.11104
C     1.76111   0.67605  -0.11231
C     0.58355   0.57298   0.86613
C     0.06711  -0.86473   1.00925
C    -0.78134  -1.02691  -0.27580
C    -1.88546  -2.04645  -0.19325
C    -1.80880  -3.22609  -0.94418
C    -2.80429  -4.20229  -0.83657
C    -3.89216  -3.99967   0.01724
C    -3.98046  -2.81737   0.76182
C    -2.98256  -1.84640   0.65862
O    -1.33007   0.29014  -0.49960
C    -0.69529   1.26686   0.32241
C    -1.61713   1.56769   1.44953
N    -2.35347   1.77842   2.32121
C    -0.42963   2.55346  -0.45071
C    -0.62834   2.61030  -1.83268
C    -0.33074   3.78464  -2.53243
C     0.16453   4.90200  -1.85578
C     0.36058   4.84491  -0.47120
C     0.06273   3.67545   0.23011
H     1.63510  -3.66568   2.09048
H     0.01258  -3.05206   2.51563
H     0.29330  -3.78716   0.91642
H     3.08427  -2.39513   0.87846
H     3.83515   1.49350  -1.26062
H     5.44874   0.84757  -1.35904
H     1.39187   0.65951  -1.15255
H     2.22975   1.66165   0.02399
H     0.86803   0.98571   1.84263
H    -0.61060  -0.92283   1.87471
H    -0.11384  -1.27648  -1.11597
H    -0.95924  -3.37997  -1.61445
H    -2.73232  -5.11975  -1.42545
H    -4.67330  -4.75911   0.10050
H    -4.83140  -2.65250   1.42711
H    -3.05541  -0.92626   1.24270
H    -1.01240   1.73553  -2.35671
H    -0.48807   3.82305  -3.61285
H     0.39685   5.81769  -2.40448
H     0.74740   5.71447   0.06497
H     0.21877   3.63355   1.31107
