28
Generated by autodE on: 2022-06-23. E = -708.440768 Ha
N     1.33469   3.30858   1.14045
C     1.25389   2.20575   0.74940
C     1.12202   0.89217   0.28311
O    -0.12497   0.38636   0.14552
C    -1.26795   0.93632   0.39088
C    -2.47092   0.20296   0.15690
C    -3.70719   0.83557   0.43051
C    -4.90438   0.16023   0.21166
C    -4.89263  -1.15081  -0.28016
C    -3.67192  -1.78702  -0.55297
C    -2.46930  -1.12427  -0.33931
C     2.22452   0.02168  -0.06146
C     3.55869   0.47377   0.06717
C     4.62647  -0.35902  -0.26074
C     4.40045  -1.66090  -0.72411
C     3.08317  -2.11748  -0.85518
C     2.00603  -1.29459  -0.53058
H    -1.28295   1.96297   0.77134
H    -3.71067   1.85872   0.81335
H    -5.85378   0.65655   0.42436
H    -5.83329  -1.67868  -0.45210
H    -3.66489  -2.80977  -0.93631
H    -1.52013  -1.61890  -0.55235
H     3.75294   1.48658   0.42836
H     5.64812   0.01356  -0.15214
H     5.23992  -2.31110  -0.97973
H     2.89030  -3.13116  -1.21562
H     0.98636  -1.66713  -0.63879
