48
Generated by autodE on: 2022-06-23. E = -1166.152096 Ha. Imaginary frequency = -334.4 cm-1
C     1.85140  -3.24736  -0.39706
N     1.77711  -1.94267   0.24149
C     2.57413  -0.92264  -0.19897
C     2.53796   0.34182   0.30305
C     3.42989   1.34070  -0.30487
N     3.43462   2.57681   0.26469
O     4.17459   1.08910  -1.27240
C     1.62623   0.66734   1.46736
C     0.52987  -0.35959   1.56968
C     0.66525  -1.62715   1.03902
C    -1.11495  -1.67461  -0.48524
C    -2.28544  -2.13282   0.25514
C    -2.24165  -3.41343   0.85073
C    -3.35051  -3.92448   1.51975
C    -4.53547  -3.18068   1.59260
C    -4.60379  -1.93000   0.97151
C    -3.49391  -1.40797   0.30620
O    -0.93182  -0.43567  -0.92106
C    -0.91522   0.72488  -0.23855
C    -1.81515   1.01119   0.81322
N    -2.49199   1.32996   1.71267
C    -0.18924   1.81256  -0.88430
C     0.62287   1.56627  -2.01230
C     1.35740   2.59586  -2.59548
C     1.31343   3.89067  -2.06515
C     0.51272   4.14649  -0.94738
C    -0.23209   3.12307  -0.36138
H     1.42846  -4.00774   0.27322
H     1.29898  -3.27670  -1.35242
H     2.90083  -3.50286  -0.59520
H     3.26903  -1.17363  -1.00196
H     3.88376   3.31711  -0.26523
H     2.68086   2.86238   0.87905
H     1.18983   1.67537   1.36910
H     2.19700   0.69520   2.41996
H    -0.23893  -0.21605   2.32853
H     0.15318  -2.48005   1.47882
H    -0.65031  -2.39305  -1.16434
H    -1.32566  -4.00513   0.78442
H    -3.29389  -4.91152   1.98450
H    -5.40497  -3.58205   2.11796
H    -5.53290  -1.35581   0.99599
H    -3.58138  -0.45226  -0.20879
H     0.67888   0.55793  -2.42169
H     1.98760   2.37991  -3.46109
H     1.89955   4.69274  -2.51909
H     0.46821   5.15244  -0.52341
H    -0.85203   3.33857   0.51099
