13
Generated by autodE on: 2022-10-07. E = -245.298493 Ha
C     1.71827   0.59083   0.78517
N     0.27153   0.62803   0.65701
C    -0.42389  -0.13852  -0.18635
N    -1.75534  -0.03290  -0.23494
N     0.20194  -1.00916  -0.98117
H     2.21429   0.85458  -0.16266
H     2.01418   1.32189   1.54562
H     2.06917  -0.40348   1.10486
H    -0.25284   1.27514   1.23729
H    -2.24038   0.62896   0.36080
H    -2.29438  -0.60496  -0.87571
H    -0.32959  -1.59123  -1.61943
H     1.20887  -1.11712  -0.95695
