25
Generated by autodE on: 2022-10-07. E = -611.140488 Ha
N    -0.63558  -2.42581   2.01502
N    -0.40993  -1.56432   1.30038
C    -0.15223  -0.57701   0.48175
C    -1.30352   0.22689   0.02474
C    -2.47485   0.32396   0.80287
C    -3.57072   1.06127   0.35409
C    -3.52168   1.72607  -0.87572
C    -2.36481   1.63483  -1.65641
C    -1.26870   0.89013  -1.21822
C     1.26284  -0.37948   0.10476
C     1.75163   0.90547  -0.20422
C     3.09279   1.09200  -0.54265
C     3.97737   0.00882  -0.56878
C     3.50451  -1.26879  -0.25170
C     2.16255  -1.46375   0.07658
H    -2.52664  -0.17765   1.77190
H    -4.46721   1.12290   0.97575
H    -4.37792   2.30853  -1.22312
H    -2.31548   2.14061  -2.62380
H    -0.38456   0.81277  -1.85177
H     1.08236   1.76576  -0.16653
H     3.45055   2.09731  -0.77807
H     5.02672   0.15933  -0.83212
H     4.18332  -2.12488  -0.26843
H     1.80747  -2.47071   0.30765
