38
Generated by autodE on: 2022-10-07. E = -856.365932 Ha. Imaginary frequency = -232.6 cm-1
C    -0.91304   1.81532   1.97195
N    -1.33585   2.08139   0.60842
C    -0.48382   1.78223  -0.49286
N     0.76062   2.47288  -0.37675
N    -1.16789   2.03427  -1.72794
N    -0.65751   0.31481  -2.84631
N    -0.16360  -0.23345  -1.98192
C    -0.02024   0.04101  -0.55203
C    -1.05370  -0.84885   0.13208
C    -2.41785  -0.68696  -0.16826
C    -3.38153  -1.48233   0.45085
C    -2.99786  -2.46551   1.36763
C    -1.64252  -2.66057   1.64157
C    -0.67602  -1.86539   1.02235
C     1.42361  -0.17441  -0.15278
C     1.81986  -0.03942   1.18788
C     3.15887  -0.18252   1.54949
C     4.12979  -0.45747   0.58174
C     3.74549  -0.59323  -0.75302
C     2.40350  -0.45405  -1.11706
H    -0.89924   0.74496   2.24098
H    -1.61281   2.31897   2.65413
H     0.08538   2.23538   2.14224
H    -2.29193   1.77755   0.44545
H     0.59260   3.47709  -0.44998
H     1.41787   2.19622  -1.10533
H    -0.77646   2.79407  -2.28213
H    -2.18820   2.06075  -1.69763
H    -2.75388   0.04074  -0.90770
H    -4.43581  -1.33637   0.20724
H    -3.75280  -3.08768   1.85339
H    -1.32815  -3.44175   2.33684
H     0.37490  -2.04624   1.23846
H     1.08653   0.18243   1.95877
H     3.44295  -0.07476   2.59855
H     5.17799  -0.56797   0.86814
H     4.48873  -0.81457  -1.52195
H     2.13102  -0.57447  -2.16680
