56
Generated by autodE on: 2022-06-25. E = -1246.124960 Ha
C     2.29653   0.72294  -2.96181
C     2.20008  -0.26043  -1.82355
O     2.84394  -1.29550  -1.82931
C     1.25378   0.10820  -0.65411
C     2.00134   1.16139   0.17009
C     3.29494   0.89182   0.64647
C     3.97955   1.83423   1.41745
C     3.38567   3.06474   1.71744
C     2.10566   3.34624   1.23195
C     1.42087   2.40131   0.46135
N    -0.03580   0.59305  -1.14573
C    -1.09243  -0.41492  -1.00212
C    -1.06379  -1.42514  -2.16752
C    -2.46691   0.25945  -0.93246
C    -2.58639   1.64193  -0.72449
C    -3.84081   2.25331  -0.63572
C    -5.00659   1.49283  -0.75414
C    -4.90304   0.11549  -0.97076
C    -3.64816  -0.49177  -1.06499
C    -0.65816  -1.06049   0.37132
C    -1.23308  -2.47030   0.58579
N    -2.46609  -2.56070   1.11399
O    -0.59260  -3.48342   0.28103
C    -0.96373  -0.11236   1.55217
C    -0.10660  -0.43854   2.73930
C     1.07439  -1.07344   2.59199
N     1.61393  -1.44306   1.37812
C     2.60759  -2.49825   1.33963
C     0.87103  -1.17775   0.16898
H     2.16785   1.76187  -2.62709
H     3.25912   0.59967  -3.47536
H     1.49262   0.49867  -3.68385
H     3.77646  -0.05828   0.41322
H     4.98308   1.60568   1.78470
H     3.92108   3.80181   2.32082
H     1.63432   4.30717   1.45304
H     0.42263   2.61539   0.08134
H    -0.00955   0.99607  -2.07781
H    -1.79204  -2.23815  -2.04647
H    -0.07240  -1.88375  -2.27946
H    -1.29916  -0.89567  -3.10332
H    -1.68181   2.24072  -0.63193
H    -3.90400   3.33221  -0.47293
H    -5.98764   1.96871  -0.68350
H    -5.80479  -0.49348  -1.07183
H    -3.59742  -1.56663  -1.23582
H    -3.03910  -1.74743   1.29985
H    -2.88664  -3.48019   1.20711
H    -0.79026   0.92022   1.21346
H    -2.02946  -0.14197   1.81992
H    -0.42958  -0.13727   3.73745
H     1.69359  -1.32748   3.45727
H     3.24534  -2.43842   2.23371
H     2.15080  -3.50636   1.30655
H     3.24657  -2.38562   0.45324
H     1.04528  -2.02811  -0.49273
