36
Generated by autodE on: 2022-06-25. E = -788.388433 Ha
C    -2.50512   3.04627  -0.17302
C    -1.14349   2.39427  -0.11104
O    -0.11693   3.11436  -0.25323
C    -1.01887   0.98114   0.08164
N     0.30423   0.58609   0.01340
C     0.98067  -0.50413   0.31231
C     0.31590  -1.67438   0.95779
C     2.42245  -0.52559   0.02213
C     3.10509  -1.75901  -0.04396
C     4.46981  -1.80961  -0.33062
C     5.19104  -0.63281  -0.54849
C     4.53034   0.59980  -0.47750
C     3.16710   0.65569  -0.19907
C    -2.13590   0.02306   0.12071
C    -3.20570   0.18041   1.02370
C    -4.28584  -0.70487   1.01957
C    -4.31812  -1.77658   0.12148
C    -3.26220  -1.94749  -0.78106
C    -2.18841  -1.05692  -0.78627
H    -2.81800   3.36343   0.83595
H    -2.42991   3.94894  -0.79652
H    -3.28470   2.38295  -0.57028
H     0.84955   1.40397  -0.30025
H    -0.06921  -2.39645   0.21773
H    -0.53522  -1.34896   1.56840
H     1.02927  -2.20352   1.60264
H     2.56206  -2.69174   0.11160
H     4.97137  -2.77855  -0.38568
H     6.26014  -0.67277  -0.76855
H     5.08406   1.52839  -0.63379
H     2.69532   1.63848  -0.12881
H    -3.17801   0.99766   1.74668
H    -5.10237  -0.56327   1.73209
H    -5.15993  -2.47298   0.12352
H    -3.28009  -2.77587  -1.49377
H    -1.38086  -1.18911  -1.50953
