56
Generated by autodE on: 2022-06-25. E = -1246.070957 Ha. Imaginary frequency = -325.1 cm-1
C     1.96773  -0.06112  -3.27949
C     2.14753  -0.50267  -1.84470
O     2.99755  -1.35246  -1.57534
C     1.40159   0.21242  -0.77126
C     2.22689   1.09585   0.09249
C     3.61728   1.24731  -0.09327
C     4.37580   2.05505   0.75304
C     3.77161   2.74096   1.81266
C     2.39494   2.60785   2.00890
C     1.63623   1.79323   1.16652
N     0.12698   0.70969  -1.08369
C    -0.94367  -0.09535  -1.35775
C    -0.76226  -1.20045  -2.35863
C    -2.28328   0.52768  -1.25096
C    -2.48368   1.78744  -0.64216
C    -3.76209   2.32213  -0.48662
C    -4.88422   1.61860  -0.93435
C    -4.70678   0.37966  -1.55552
C    -3.42784  -0.15373  -1.71856
C    -0.66054  -1.32240   0.58286
C    -1.34509  -2.54568   0.12794
N    -2.69910  -2.60497   0.27738
O    -0.74103  -3.51549  -0.37506
C    -1.30625  -0.41624   1.61980
C    -0.56130  -0.47218   2.92703
C     0.75176  -0.76533   2.94096
N     1.44986  -1.13522   1.80175
C     2.86370  -1.45155   1.91030
C     0.77757  -1.39986   0.61340
H     2.84314   0.57105  -3.51122
H     1.06754   0.53780  -3.44798
H     1.99275  -0.92624  -3.95766
H     4.12071   0.72252  -0.90509
H     5.45035   2.15192   0.57946
H     4.36829   3.37037   2.47690
H     1.90353   3.12806   2.83459
H     0.57176   1.68608   1.37076
H    -0.10897   1.55275  -0.57060
H    -1.56530  -1.93978  -2.29871
H     0.17622  -1.74538  -2.21314
H    -0.76632  -0.78602  -3.37976
H    -1.64474   2.38715  -0.28506
H    -3.87926   3.29895  -0.01201
H    -5.88530   2.03728  -0.80930
H    -5.57054  -0.17897  -1.92333
H    -3.32607  -1.11806  -2.21164
H    -3.24648  -1.76568   0.42289
H    -3.16934  -3.38650  -0.16762
H    -1.32125   0.63021   1.25633
H    -2.36390  -0.66781   1.77313
H    -1.06970  -0.21614   3.85875
H     1.34794  -0.75452   3.85620
H     3.02536  -2.43065   2.39752
H     3.30493  -1.48443   0.90838
H     3.38588  -0.68020   2.49508
H     1.24269  -2.18750   0.02115
