68
Generated by autodE on: 2022-07-02. E = -2402.289681 Ha
N    -7.99701  -7.88905   0.03181
C    -8.36256  -8.61830  -0.79257
C    -8.67932  -9.69044  -1.77888
C    -9.95667 -10.43297  -1.38128
C   -10.18367 -11.69825  -1.93969
C   -11.36186 -12.38680  -1.65512
C   -12.32360 -11.81783  -0.81161
C   -12.09324 -10.56160  -0.24729
C   -10.91008  -9.87078  -0.52834
O    -7.55741 -10.55937  -1.71146
C    -6.89682 -10.71400  -2.98187
C    -6.92126 -12.21583  -3.29331
C    -7.26168 -12.77040  -4.53030
C    -7.26182 -14.15916  -4.71207
C    -6.91800 -15.00959  -3.66124
C    -6.56651 -14.46146  -2.42192
C    -6.56511 -13.07901  -2.24294
C    -5.45379 -10.20051  -2.88549
C    -4.43629 -10.77250  -3.66168
C    -3.14609 -10.23474  -3.64894
C    -2.85499  -9.12539  -2.85067
C    -3.86272  -8.55960  -2.06321
C    -5.15393  -9.09111  -2.08319
C    -7.69143  -9.79922  -3.91946
C    -8.68261  -9.18654  -3.23830
C    -9.72749  -8.21582  -3.73901
Cl  -11.29935  -9.14774  -4.01971
Cl  -10.12664  -6.98323  -2.44058
C    -9.45419  -7.43165  -5.01826
C    -8.27283  -6.45907  -4.99617
C    -6.91700  -7.02307  -4.57444
C    -6.38933  -8.20673  -5.38541
C    -7.15705  -9.57189  -5.31775
C    -8.12728  -9.88314  -6.46139
C    -7.83303  -9.48260  -7.77506
C    -8.67364  -9.82127  -8.83839
C    -9.82823 -10.57723  -8.61480
C   -10.12384 -10.99782  -7.31639
C    -9.27965 -10.65925  -6.25607
H    -9.44284 -12.14050  -2.60637
H   -11.53225 -13.37141  -2.09654
H   -13.24828 -12.35671  -0.59217
H   -12.83477 -10.11313   0.41772
H   -10.74347  -8.88763  -0.08626
H    -7.53581 -12.14244  -5.37238
H    -7.53694 -14.57001  -5.68623
H    -6.92122 -16.09268  -3.80408
H    -6.29200 -15.11492  -1.59042
H    -6.29198 -12.65942  -1.27365
H    -4.64993 -11.64145  -4.28510
H    -2.36565 -10.68993  -4.26306
H    -1.84614  -8.70638  -2.83767
H    -3.64499  -7.69585  -1.43073
H    -5.92914  -8.63279  -1.47110
H    -9.34501  -8.15512  -5.83137
H   -10.37421  -6.87127  -5.23538
H    -8.52131  -5.61050  -4.33974
H    -8.19379  -6.05049  -6.01746
H    -6.17447  -6.21357  -4.66766
H    -6.93128  -7.27846  -3.50358
H    -5.36536  -8.40741  -5.04035
H    -6.29983  -7.90998  -6.43943
H    -6.35939 -10.31707  -5.45301
H    -6.93592  -8.89832  -7.98319
H    -8.42122  -9.49110  -9.84901
H   -10.48814 -10.83774  -9.44557
H   -11.02100 -11.58946  -7.11898
H    -9.54177 -10.98819  -5.25180
