30
Generated by autodE on: 2022-07-02. E = -1462.564436 Ha
Cl   -0.67956   0.01538  -3.37476
C    -1.27235   0.62310  -1.75793
Cl   -2.34001   2.08039  -2.07462
C    -0.17721   1.00594  -0.90002
C     0.40065   1.04860   0.16594
C     0.71231   0.80752   1.56738
C     1.73981  -0.29721   1.77829
C     2.44100  -0.34123   2.99318
C     3.34946  -1.36879   3.25585
C     3.57108  -2.37046   2.30411
C     2.87915  -2.33280   1.09072
C     1.96954  -1.30257   0.82904
C    -0.66717   0.46232   2.22533
C    -1.51086  -0.62381   1.52738
C    -2.48900  -0.20057   0.39499
C    -2.09075  -0.48184  -1.06806
H     1.09205   1.72083   2.05108
H     2.27226   0.44066   3.73847
H     3.89024  -1.38545   4.20526
H     4.28326  -3.17384   2.50692
H     3.04755  -3.10813   0.33932
H     1.43943  -1.27743  -0.12506
H    -0.45034   0.14755   3.25799
H    -1.25253   1.39350   2.29332
H    -0.85522  -1.43608   1.17010
H    -2.12701  -1.07835   2.31840
H    -2.76348   0.86164   0.50417
H    -3.42345  -0.76039   0.55162
H    -1.48205  -1.39824  -1.11797
H    -2.98612  -0.65112  -1.68445
