68
Generated by autodE on: 2022-07-02. E = -2402.181518 Ha. Imaginary frequency = -211.3 cm-1
N    -7.03370  -7.90857  -0.97485
C    -7.70428  -8.84043  -1.18859
C    -8.56259  -9.93806  -1.44696
C    -9.75546 -10.16520  -0.63882
C   -10.49517 -11.35998  -0.77350
C   -11.66123 -11.55434  -0.03788
C   -12.11239 -10.57419   0.85501
C   -11.37176  -9.39771   1.01234
C   -10.20398  -9.19376   0.27935
O    -8.13633 -11.01223  -2.13044
C    -7.13294 -11.18697  -2.97869
C    -7.40590 -12.29047  -3.90633
C    -8.74938 -12.62192  -4.19662
C    -9.05245 -13.69317  -5.03077
C    -8.02641 -14.44458  -5.61580
C    -6.69354 -14.11749  -5.34864
C    -6.38187 -13.05853  -4.49660
C    -5.78075 -10.72686  -2.62671
C    -4.80234 -10.47485  -3.60857
C    -3.50665 -10.11020  -3.24604
C    -3.15253 -10.00554  -1.89710
C    -4.10592 -10.28226  -0.91187
C    -5.40494 -10.63816  -1.26911
C    -8.01408  -9.19816  -4.37486
C    -8.98959  -8.87399  -3.69047
C   -10.24333  -8.13963  -3.62348
Cl  -11.62514  -9.32712  -3.37273
Cl  -10.26826  -6.95864  -2.23177
C   -10.50908  -7.37991  -4.93089
C    -9.56115  -6.21663  -5.25789
C    -8.04567  -6.47461  -5.33766
C    -7.61726  -7.64414  -6.24385
C    -7.09677  -8.91087  -5.49525
C    -6.90696 -10.04395  -6.48604
C    -5.65348 -10.26485  -7.07224
C    -5.48161 -11.26544  -8.03420
C    -6.56786 -12.05104  -8.42849
C    -7.82586 -11.82643  -7.85836
C    -7.99315 -10.82932  -6.89598
H   -10.15228 -12.13027  -1.46406
H   -12.22429 -12.48276  -0.16063
H   -13.02771 -10.73107   1.43007
H   -11.70532  -8.62986   1.71441
H    -9.63834  -8.27080   0.41115
H    -9.55214 -12.01491  -3.77802
H   -10.09669 -13.93215  -5.24451
H    -8.26496 -15.27543  -6.28344
H    -5.88610 -14.69835  -5.79974
H    -5.33757 -12.84268  -4.27554
H    -5.05452 -10.57065  -4.66066
H    -2.76854  -9.90933  -4.02579
H    -2.13705  -9.71878  -1.61479
H    -3.83652 -10.22446   0.14510
H    -6.12721 -10.87176  -0.48585
H   -10.48500  -8.13767  -5.72875
H   -11.53765  -6.99191  -4.88383
H    -9.73785  -5.40591  -4.53376
H    -9.89995  -5.83144  -6.23451
H    -7.58952  -5.54516  -5.71362
H    -7.63527  -6.61384  -4.32531
H    -6.80978  -7.33315  -6.92434
H    -8.45708  -7.95338  -6.88619
H    -6.11503  -8.66117  -5.06078
H    -4.80314  -9.64814  -6.77005
H    -4.49545 -11.43075  -8.47486
H    -6.43576 -12.83786  -9.17491
H    -8.67898 -12.44015  -8.15567
H    -8.97468 -10.66487  -6.44673
