12
Generated by autodE on: 2022-06-17. E = -157.300303 Ha
C     1.96214  -0.08037   0.03440
C     0.52050  -0.25467  -0.33602
C    -0.52050   0.25460   0.33607
C    -1.96214   0.08043  -0.03443
H     2.52748   0.41076  -0.77759
H     2.45304  -1.05529   0.20342
H     2.07887   0.52476   0.94723
H     0.31986  -0.85132  -1.23697
H    -0.31986   0.85125   1.23701
H    -2.52766  -0.41022   0.77771
H    -2.45283   1.05537  -0.20397
H    -2.07889  -0.52507  -0.94702
