22
Generated by autodE on: 2022-06-17. E = -554.015193 Ha
C    -2.88966   1.99162   0.57922
N    -1.74847   1.13651   0.32818
C    -1.89490  -0.07386  -0.24936
O    -2.99745  -0.53023  -0.58998
C    -0.66026  -0.85980  -0.46837
C    -0.64182  -2.19657  -1.08230
O     0.43501  -0.29006  -0.08272
C     1.68658  -0.73462  -0.14929
C     2.70245   0.12479   0.36615
C     2.28057   1.46128   0.94449
O     3.89783  -0.22167   0.33679
H    -2.54428   2.90697   1.07444
H    -3.62647   1.49296   1.22909
H    -3.40071   2.26664  -0.35791
H    -0.81834   1.45958   0.57310
H    -1.65920  -2.50922  -1.33999
H    -0.18984  -2.93206  -0.39009
H    -0.01158  -2.19453  -1.99192
H     1.88591  -1.71423  -0.58299
H     1.57290   1.32528   1.77768
H     3.17216   1.99081   1.30515
H     1.77321   2.07568   0.18360
