55
Generated by autodE on: 2022-06-28. E = -1435.363613 Ha
C    -1.78873   4.83066  -1.74024
O    -1.22164   3.96692  -0.74539
C    -0.26972   3.12636  -1.15258
O     0.22898   3.15535  -2.26069
C     0.20629   2.23061  -0.02245
N     1.36942   1.44806  -0.39790
C     1.18879   0.02743  -0.11710
C     0.72566  -0.78719  -1.35652
C     1.09880  -0.26866  -2.71464
O     0.12755  -1.84028  -1.21889
C     2.51130  -0.63927   0.30658
C     3.65600   0.14177   0.51515
C     4.85506  -0.44380   0.93068
C     4.92980  -1.82281   1.14176
C     3.79529  -2.61137   0.92690
C     2.59850  -2.02734   0.50663
C     0.10395   0.07391   1.05057
C     0.79415   0.44361   2.37278
C    -0.65242  -1.23586   1.29108
O    -0.19835  -2.08389   2.05019
C    -1.97869  -1.45073   0.67537
O    -2.66148  -2.57051   1.00806
C    -2.06385  -3.85622   0.76849
C    -2.51714  -0.54863  -0.19996
O    -3.63168  -0.69056  -0.92599
C    -4.11382  -1.98876  -1.30046
C    -1.79191   0.71081  -0.50389
O    -2.02722   1.30953  -1.54157
C    -0.82738   1.22935   0.55540
C    -1.70493   1.86359   1.65083
H    -1.01589   5.47906  -2.17690
H    -2.26030   4.23322  -2.53425
H    -2.54286   5.43464  -1.22284
H     0.45452   2.93217   0.79371
H     1.68331   1.65200  -1.34195
H     2.16448   0.00863  -2.74569
H     0.51725   0.63863  -2.93991
H     0.88826  -1.03773  -3.46810
H     3.59432   1.21729   0.35779
H     5.73488   0.18446   1.09001
H     5.86656  -2.28185   1.46657
H     3.84022  -3.69172   1.08373
H     1.72957  -2.66095   0.33713
H     0.05516   0.53521   3.17967
H     1.50562  -0.33781   2.65956
H     1.33833   1.39228   2.28468
H    -2.88312  -4.53178   0.48467
H    -1.33626  -3.80458  -0.05328
H    -1.57234  -4.23133   1.67593
H    -4.81480  -1.81289  -2.12673
H    -4.63442  -2.47855  -0.46798
H    -3.28389  -2.62144  -1.64921
H    -1.07799   2.38266   2.38738
H    -2.38408   2.60246   1.20371
H    -2.30729   1.10597   2.17022
