29
Generated by autodE on: 2022-07-27. E = -745.872779 Ha
C    -2.21682   4.63742  -0.11114
O    -1.35173   3.55259   0.24069
C    -1.53105   2.39994  -0.42989
O    -2.38220   2.25334  -1.30574
C    -0.61454   1.37004  -0.00395
N    -0.74497   0.18706  -0.60310
C    -0.10383  -0.98150  -0.45579
C    -0.56425  -2.11676  -1.25086
C    -1.74244  -1.93052  -2.18646
O    -0.00176  -3.21405  -1.16740
C     1.03599  -1.10403   0.47316
C     2.11315  -0.19964   0.41886
C     3.19620  -0.33093   1.28955
C     3.22168  -1.36655   2.22928
C     2.15774  -2.27231   2.29017
C     1.07420  -2.14479   1.41948
H    -1.92575   5.47801   0.52987
H    -2.09055   4.90946  -1.16975
H    -3.26904   4.37193   0.07040
H     0.13072   1.53002   0.76941
H    -1.50226   0.19942  -1.30019
H    -1.53117  -1.16952  -2.95588
H    -2.64611  -1.61582  -1.63962
H    -1.94368  -2.88694  -2.68470
H     2.11081   0.60448  -0.32009
H     4.02662   0.37655   1.23002
H     4.06869  -1.46751   2.91192
H     2.16961  -3.08273   3.02289
H     0.24562  -2.85194   1.47329
