26
Generated by autodE on: 2022-06-28. E = -689.460829 Ha
C    -2.70484  -1.94964  -0.62840
O    -1.30339  -2.02818  -0.34734
C    -0.54028  -0.94688  -0.18775
C    -0.85733   0.36603  -0.37212
O    -2.07316   0.77878  -0.83617
C    -2.91590   1.44904   0.10739
C     0.16213   1.41585  -0.15882
O    -0.12251   2.59107  -0.38318
C     1.53010   1.03893   0.30954
C     2.51071   2.14332   0.54768
C     1.86071  -0.26503   0.48104
C     3.22848  -0.68948   0.91872
C     0.85314  -1.32851   0.23585
O     1.12083  -2.51329   0.38240
H    -3.05709  -2.98891  -0.63204
H    -2.88798  -1.49029  -1.60808
H    -3.23076  -1.38681   0.15617
H    -3.84635   1.69217  -0.42262
H    -3.14411   0.78962   0.96126
H    -2.45088   2.37609   0.47308
H     3.38267   2.03918  -0.11968
H     2.05279   3.12445   0.37702
H     2.89916   2.10363   1.57854
H     3.30211  -1.78072   0.99241
H     3.99305  -0.32962   0.21070
H     3.47707  -0.25126   1.89942
