31
Generated by autodE on: 2022-05-28. E = -1186.574710 Ha
C    -0.34912   2.63261   0.33626
C    -1.23387   1.65795  -0.39603
O    -2.12108   2.04762  -1.14442
C    -1.01324   0.20502  -0.19130
C    -1.85597  -0.80098  -0.50891
Cl   -3.39838  -0.70294  -1.25056
C    -1.34057  -2.13267  -0.06325
N     0.06642  -1.84650   0.18804
C     0.76234  -2.79429   1.03639
C     0.18714  -0.42294   0.54639
C    -0.06171  -0.23424   2.00695
N    -0.31238  -0.17906   3.13932
C     1.55121   0.13128   0.14155
C     2.51126   0.51823   1.08077
C     3.75047   1.01250   0.65911
C     4.03374   1.12428  -0.70350
C     3.07501   0.73347  -1.64639
C     1.84154   0.23691  -1.22595
H     0.64109   2.66332  -0.14541
H    -0.80198   3.63115   0.28340
H    -0.19251   2.34220   1.38548
H    -1.89808  -2.45439   0.84404
H    -1.47168  -2.91790  -0.82493
H     1.82098  -2.50968   1.12369
H     0.33345  -2.86494   2.05618
H     0.71311  -3.79224   0.57695
H     2.29562   0.44217   2.14817
H     4.49340   1.31205   1.40169
H     4.99923   1.51479  -1.03329
H     3.28962   0.81889  -2.71410
H     1.09418  -0.06421  -1.96239
