9
Generated by autodE on: 2022-05-28. E = -689.705306 Ha
C    -2.72619  -0.22391  -0.35909
C    -1.65959   0.41056   0.48493
O    -1.89660   1.15055   1.42861
C    -0.28494   0.09664   0.12012
C     0.85821  -0.16984  -0.19449
Cl    2.40152  -0.52448  -0.61290
H    -2.59170   0.07412  -1.41190
H    -3.71868   0.07983  -0.00088
H    -2.62456  -1.32093  -0.31939
