37
Generated by autodE on: 2022-06-18. E = -1008.338041 Ha
C     3.15779   1.12969  -2.59459
O     2.74866   0.79139  -1.25812
C     1.56260   1.24264  -0.86220
O     0.85024   1.98120  -1.50725
C     1.20840   0.69184   0.51171
O     0.01988   1.28277   0.99930
N    -1.02286   0.55014   0.39514
C    -2.24933   1.11312   0.39427
C    -2.34666   2.47953   1.01206
O    -3.22048   0.52648  -0.11186
C    -0.56934  -0.79085  -0.04182
C    -0.56713  -0.89799  -1.59590
N    -1.73765  -0.62986  -2.18172
O     0.44409  -1.24258  -2.21210
C    -1.43710  -1.90752   0.57873
C    -1.31634  -1.86425   2.07150
C    -0.09595  -1.63881   2.59239
N     1.02129  -1.44695   1.79179
C     2.31283  -1.28818   2.43471
C     0.88580  -0.82265   0.48168
H     2.44677   0.70609  -3.31818
H     3.20879   2.22056  -2.71697
H     4.14957   0.68362  -2.72845
H     2.01205   0.94139   1.21493
H    -1.66371   3.17103   0.49588
H    -3.38155   2.83040   0.92177
H    -2.04811   2.44937   2.07080
H    -1.79629  -0.67354  -3.19488
H    -2.53197  -0.30112  -1.62427
H    -1.05488  -2.85862   0.16335
H    -2.47410  -1.79818   0.24363
H    -2.18793  -1.99650   2.71246
H     0.09129  -1.62944   3.66987
H     2.44202  -0.30310   2.92295
H     3.11336  -1.40649   1.68955
H     2.44465  -2.06569   3.20005
H     1.52653  -1.33323  -0.24512
