20
Generated by autodE on: 2022-06-18. E = -457.715322 Ha
C    -3.12710   0.41106   0.39521
N    -1.80267  -0.17350   0.26498
C    -1.66593  -1.56643   0.21746
C    -0.48183  -2.17256   0.03710
C     0.81346  -1.41782  -0.13419
C     0.56638   0.08090  -0.07501
C     1.67064   1.04377  -0.21216
N     2.90594   0.51175  -0.39161
O     1.51469   2.28131  -0.16917
C    -0.68478   0.58936   0.10963
H    -3.63727   0.02601   1.29222
H    -3.75383   0.18359  -0.48332
H    -3.03556   1.50049   0.48668
H    -2.59652  -2.12327   0.34129
H    -0.45487  -3.26447   0.01710
H     1.29599  -1.70278  -1.09179
H     1.54042  -1.73002   0.64343
H     3.69493   1.14019  -0.49571
H     3.07173  -0.48542  -0.43721
H    -0.83392   1.66968   0.14409
