17
Generated by autodE on: 2022-06-18. E = -550.538338 Ha
C    -3.73125   0.43590  -0.62939
O    -2.30269   0.49168  -0.46215
C    -1.71413  -0.61135  -0.02778
O    -2.26659  -1.65851   0.24044
C    -0.23774  -0.47961   0.12231
O     0.27196   0.63696  -0.19484
N     1.57219   1.11031  -0.18716
C     2.51381   0.22908   0.26317
C     3.89502   0.83468   0.23897
O     2.32118  -0.93044   0.65595
H    -4.21564   0.20983   0.33119
H    -3.99506  -0.33456  -1.36773
H    -4.02936   1.42778  -0.98578
H     0.36591  -1.31028   0.48546
H     4.31017   0.80667   1.25856
H     4.54156   0.21342  -0.40038
H     3.89525   1.86763  -0.13049
