17
Generated by autodE on: 2022-07-27. E = -550.540383 Ha
C     3.23893  -0.52800  -2.33235
O     2.72334  -0.38137  -0.99871
C     1.40489  -0.22852  -0.88482
O     0.61777  -0.20641  -1.80414
C     1.08306  -0.09026   0.56226
O    -0.06578   0.07747   1.05552
N    -1.22789   0.15609   0.32958
C    -2.24971   0.34901   1.23565
C    -3.58747   0.44452   0.54619
O    -2.13078   0.43930   2.45840
H     2.80086  -1.41542  -2.81147
H     4.32267  -0.64445  -2.22437
H     3.00385   0.36586  -2.92808
H     1.88477  -0.12812   1.30563
H    -4.04674   1.41376   0.79677
H    -4.24656  -0.34428   0.94195
H    -3.50912   0.34539  -0.54379
