27
Generated by autodE on: 2022-06-06. E = -910.229036 Ha
C    -3.49316   2.19512  -0.49232
O    -2.72561   1.12860   0.09227
C    -1.58714   0.81466  -0.51444
O    -1.14348   1.39608  -1.48712
C    -0.89285  -0.33801   0.10401
N     0.43150  -0.40919   0.13340
C     1.45786   0.41763  -0.10710
C     1.34032   1.80078  -0.36199
N     1.31246   2.95437  -0.52713
C     2.77970  -0.21703   0.04522
O     2.91012  -1.39236   0.34555
O     3.77819   0.62970  -0.17924
C     5.11202   0.10810  -0.05662
C    -1.53960  -1.58350   0.57198
O    -0.88559  -2.51981   1.00636
O    -2.85856  -1.58623   0.44200
C    -3.54627  -2.77613   0.86287
H    -2.91230   3.12828  -0.48669
H    -4.38733   2.29646   0.13246
H    -3.77304   1.94165  -1.52477
H     0.76579  -1.34231   0.44703
H     5.28646  -0.25333   0.96676
H     5.26674  -0.71283  -0.77106
H     5.78168   0.94448  -0.28514
H    -4.61028  -2.58258   0.68760
H    -3.21058  -3.63953   0.27107
H    -3.36173  -2.96537   1.92987
