27
Generated by autodE on: 2022-07-27. E = -910.223149 Ha
C    -2.37273   1.30463  -1.73226
O    -1.66560   0.60637  -0.69450
C    -0.97391  -0.47206  -1.06205
O    -1.01132  -0.97525  -2.16286
C    -0.23127  -1.03732   0.09736
N     0.43616  -0.31093   0.98200
C     0.86595   0.96808   1.00847
C     1.36913   1.45521   2.23789
N     1.77725   1.85904   3.25304
C     0.99817   1.77346  -0.21043
O     0.89693   1.32975  -1.34135
O     1.30735   3.04019   0.07247
C     1.55776   3.90795  -1.04436
C    -0.32508  -2.46278   0.47698
O     0.22087  -2.89805   1.47905
O    -1.06796  -3.18085  -0.35277
C    -1.21814  -4.57658  -0.04319
H    -1.67287   1.61988  -2.51847
H    -3.15141   0.66026  -2.16412
H    -2.82459   2.17878  -1.25047
H     0.69633  -0.88141   1.80467
H     1.79538   4.88718  -0.61405
H     0.66407   3.97658  -1.68102
H     2.40528   3.53481  -1.63682
H    -1.84067  -4.99354  -0.84241
H    -1.71170  -4.69871   0.93140
H    -0.23582  -5.06946  -0.02480
