53
Generated by autodE on: 2022-06-06. E = -1488.247682 Ha. Imaginary frequency = -265.6 cm-1
C    -0.73289   4.70286  -0.52234
O    -0.84485   3.73686   0.53260
C    -1.62623   2.67624   0.29356
O    -2.26067   2.52600  -0.73602
C    -1.57838   1.72576   1.40886
C    -0.89797   2.09789   2.59843
N    -0.31172   2.37251   3.56725
N    -2.32288   0.59055   1.47385
C    -2.70198  -0.21244   0.45949
C    -3.45353   0.26648  -0.75785
O    -3.22607  -0.06489  -1.89945
O    -4.50999   0.98569  -0.37737
C    -5.32465   1.52797  -1.42851
C    -3.03121  -1.58299   0.93281
O    -2.84568  -1.94429   2.08162
O    -3.49765  -2.35745  -0.03858
C    -3.78929  -3.72377   0.30243
C    -0.58055  -0.55070  -0.42629
C    -0.02034  -1.67286   0.47912
O     0.21044  -0.93158   1.68753
C     1.06370   0.05440   1.08186
C     2.12531  -0.85564   0.40998
C     3.50809  -0.44273   0.18877
C     4.55196  -1.37792   0.02312
C     5.86108  -0.95281  -0.20538
C     6.16255   0.41240  -0.26817
C     5.14115   1.35120  -0.09045
C     3.83075   0.93037   0.14154
C     1.42696  -1.94302   0.01128
C     1.77172  -3.12196  -0.82459
C     0.14636   0.55837  -0.04116
H    -0.05468   5.47766  -0.14738
H    -1.71627   5.13686  -0.75293
H    -0.31531   4.23617  -1.42619
H    -2.18202   0.04621   2.33297
H    -4.72316   2.19279  -2.06454
H    -5.75382   0.72033  -2.03825
H    -6.12038   2.09370  -0.93087
H    -4.15812  -4.18850  -0.61840
H    -4.55731  -3.76352   1.08754
H    -2.87758  -4.23046   0.64916
H    -1.03263  -0.71912  -1.40127
H    -0.63872  -2.56024   0.64777
H     1.42686   0.78419   1.81215
H     4.33863  -2.44480   0.09982
H     6.65501  -1.69391  -0.32643
H     7.18898   0.74191  -0.44532
H     5.36598   2.41977  -0.13118
H     3.04364   1.67614   0.27264
H     2.73170  -3.00284  -1.34526
H     0.98169  -3.28906  -1.57700
H     1.82360  -4.04284  -0.21687
H     0.34856   1.44819  -0.63404
