31
Generated by autodE on: 2022-10-13. E = -805.034120 Ha
C    -0.47945   4.08103  -0.23764
O    -0.03868   2.74025   0.00457
C    -0.74447   1.76372  -0.59450
O    -1.69041   1.98869  -1.33753
C    -0.25575   0.42098  -0.27809
O     0.72622   0.41874   0.60292
C     1.61276  -0.46437   0.99791
C     1.80470  -1.77761   0.35069
C     2.46795   0.02915   2.07253
C     2.20610   1.41530   2.61026
O     3.36523  -0.68852   2.52846
C    -0.92482  -0.77936  -0.77399
C    -1.26578  -1.82327   0.11277
C    -1.96446  -2.94092  -0.34565
C    -2.33521  -3.03746  -1.68977
C    -2.01279  -2.00116  -2.57505
C    -1.31957  -0.88003  -2.12467
H    -1.51520   4.21919   0.10611
H    -0.41844   4.32164  -1.30927
H     0.19674   4.72826   0.33305
H     1.77767  -1.67668  -0.74661
H     2.77836  -2.17282   0.66590
H     1.02770  -2.51422   0.62156
H     3.00227   1.67912   3.31805
H     1.23348   1.44585   3.12781
H     2.15910   2.15623   1.79858
H    -1.01172  -1.73994   1.17077
H    -2.22572  -3.73740   0.35471
H    -2.87828  -3.91522  -2.04739
H    -2.29929  -2.07175  -3.62691
H    -1.06503  -0.07896  -2.81875
