31
Generated by autodE on: 2022-10-07. E = -805.027651 Ha
C    -0.28705   3.14533  -1.72971
O    -0.39037   1.75705  -1.38853
C     0.47570   1.29855  -0.48063
O     1.44028   1.92601  -0.08778
C     0.20614  -0.12566  -0.14977
O    -1.01411  -0.60944  -0.16537
C    -2.20378  -0.02783   0.06202
C    -3.36335  -0.90063  -0.27937
C    -2.26335   1.15902   0.85000
C    -3.62581   1.58958   1.34198
O    -1.23282   1.77736   1.20415
C     1.25645  -1.10913   0.01519
C     2.61469  -0.81345  -0.25422
C     3.59340  -1.79077  -0.09360
C     3.25075  -3.07943   0.33157
C     1.91081  -3.38508   0.60137
C     0.92492  -2.41511   0.45336
H     0.67443   3.35334  -2.22098
H    -1.11552   3.34939  -2.41766
H    -0.38156   3.76468  -0.82658
H    -3.95739  -0.47912  -1.10933
H    -4.04820  -1.03233   0.57361
H    -3.00097  -1.88944  -0.59408
H    -4.32524   1.70971   0.49952
H    -3.52914   2.54372   1.87621
H    -4.06063   0.83778   2.02094
H     2.89748   0.18116  -0.59400
H     4.63587  -1.54538  -0.30847
H     4.02391  -3.84080   0.45634
H     1.63538  -4.38613   0.94096
H    -0.11307  -2.65424   0.68633
