30
Generated by autodE on: 2022-07-27. E = -729.773239 Ha
C    -2.84302  -1.45598   1.14379
C    -3.13509  -0.43691   0.07390
O    -4.27125  -0.24945  -0.36641
C    -2.01612   0.36346  -0.44018
C    -2.15176   1.31733  -1.54163
O    -0.86210   0.03677   0.08822
C     0.35778   0.57405  -0.08292
C     0.48749   2.01036  -0.24085
C     1.78546   2.60254  -0.73756
O    -0.45675   2.76320   0.05699
C     1.42249  -0.39947   0.14619
C     2.68631  -0.04436   0.66769
C     3.66487  -1.01414   0.87925
C     3.40710  -2.35976   0.59337
C     2.15437  -2.72918   0.09243
C     1.17488  -1.76362  -0.13332
H    -3.74886  -2.04540   1.33433
H    -2.53019  -0.95335   2.07333
H    -2.01521  -2.11774   0.84446
H    -1.30254   1.18688  -2.24050
H    -2.07328   2.36490  -1.19168
H    -3.11139   1.15825  -2.04762
H     1.52778   3.43449  -1.41008
H     2.42156   1.88322  -1.26810
H     2.35520   3.03002   0.10364
H     2.89773   0.98879   0.93985
H     4.63401  -0.71762   1.28714
H     4.17722  -3.11556   0.76321
H     1.94196  -3.77642  -0.13513
H     0.20956  -2.05754  -0.54831
