30
Generated by autodE on: 2022-06-17. E = -729.775680 Ha
C    -3.23661   1.12768   1.63245
C    -3.12901   0.04257   0.58985
O    -4.10037  -0.65117   0.27009
C    -1.83051  -0.19505  -0.03587
C    -1.62827  -1.19854  -1.09989
O    -0.89469   0.63046   0.36949
C     0.40436   0.73604   0.12151
C     0.95399   2.02883   0.51646
C     0.00804   3.05470   1.09532
O     2.15461   2.27907   0.36181
C     1.23285  -0.37999  -0.33473
C     2.24350  -0.18472  -1.29821
C     3.07642  -1.23845  -1.67014
C     2.92678  -2.50090  -1.08319
C     1.93827  -2.70215  -0.11557
C     1.09693  -1.65331   0.25787
H    -2.60391   0.89245   2.50288
H    -2.89164   2.09341   1.23365
H    -4.28310   1.20930   1.95252
H    -1.08785  -2.09729  -0.75329
H    -2.61471  -1.51043  -1.46481
H    -1.03679  -0.77215  -1.92621
H    -0.73886   3.35746   0.34443
H     0.58929   3.93222   1.40600
H    -0.54397   2.64803   1.95571
H     2.36029   0.79425  -1.76247
H     3.84607  -1.07629  -2.42836
H     3.58150  -3.32418  -1.37797
H     1.82239  -3.68033   0.35666
H     0.34816  -1.81171   1.03629
