46
Generated by autodE on: 2022-06-14. E = -1151.001284 Ha
C    -0.31529  -2.69408   2.72883
C     0.47628  -1.41500   2.39937
C     0.56924  -0.55148   3.66165
F     1.21111   0.61094   3.43919
F    -0.64833  -0.23555   4.14252
F     1.23137  -1.18239   4.64940
C    -0.16456  -0.65798   1.31914
C    -0.36956  -0.28123   0.18580
C    -0.14659  -0.03218  -1.24331
C    -1.41084  -0.18673  -2.09940
C    -2.61632  -0.64609  -1.55570
C    -3.74661  -0.81153  -2.36393
C    -3.68397  -0.52097  -3.72873
C    -2.48240  -0.06082  -4.27978
C    -1.35704   0.10724  -3.47092
C     0.40904   1.39380  -1.41902
C     1.53741   1.67803  -2.19767
C     1.97606   2.99802  -2.36026
C     1.29334   4.05043  -1.74778
C     0.16326   3.77517  -0.96879
C    -0.27117   2.45933  -0.80771
C     0.87143  -1.15700  -1.63603
C     2.10865  -1.31866  -0.72642
C     2.01694  -2.31581   0.46375
C     1.91656  -1.74566   1.89310
H    -0.35989  -3.33763   1.84053
H     0.17863  -3.24828   3.53985
H    -1.34295  -2.45369   3.03403
H    -2.67287  -0.87589  -0.48975
H    -4.67972  -1.16816  -1.92083
H    -4.56618  -0.64844  -4.36053
H    -2.42228   0.17282  -5.34558
H    -0.42808   0.47802  -3.90909
H     2.08694   0.87537  -2.68901
H     2.86018   3.19908  -2.97015
H     1.63819   5.07937  -1.87431
H    -0.38102   4.58934  -0.48412
H    -1.15508   2.25113  -0.19975
H     1.18750  -0.97300  -2.67303
H     0.30795  -2.10260  -1.65467
H     2.43782  -0.33264  -0.36037
H     2.92174  -1.67158  -1.37976
H     1.20088  -3.03551   0.28612
H     2.93871  -2.91762   0.45205
H     2.34929  -2.46670   2.60367
H     2.52578  -0.83066   1.95285
