21
Generated by autodE on: 2022-07-27. E = -678.332745 Ha
C     2.89571  -1.78410  -0.46408
N     1.93084  -0.71990  -0.26385
C     0.62679  -0.97646  -0.13969
O     0.09402  -2.08649  -0.21394
C    -0.25812   0.19760   0.17379
O    -1.46126   0.29285  -0.25096
N    -2.11340  -0.36776  -1.26390
C    -1.32480  -0.94700  -2.15285
N    -0.77214  -1.43079  -3.07062
C     0.13540   1.24937   1.17744
O     1.33627   1.47680   1.36385
N    -0.86335   1.89153   1.78744
C    -0.60483   2.96033   2.73466
H     3.12283  -2.30700   0.47982
H     2.49459  -2.51648  -1.17742
H     3.82196  -1.35510  -0.86500
H     2.24156   0.21048   0.01923
H    -1.82274   1.65854   1.54623
H    -0.16630   3.83780   2.23306
H    -1.55138   3.25093   3.20418
H     0.09683   2.62378   3.51227
