31
Generated by autodE on: 2022-10-06. E = -988.075857 Ha
C     2.78259   2.44905  -1.10881
N     2.04142   1.57026  -0.22809
C     1.61487   0.36381  -0.63386
O     1.98492  -0.16886  -1.68225
C     0.63094  -0.35147   0.33094
C     1.39556  -1.57824   0.85213
C     1.90312  -1.54699   2.26387
O     1.65258  -2.49124   0.08372
N     0.20371   0.55760   1.40242
C    -0.99001   0.95950   1.15646
C    -1.73672   1.89758   2.03971
C    -1.59153   0.43423  -0.13176
C    -1.61126   1.58604  -1.19289
O    -0.71636   1.58824  -2.07261
O    -2.52766   2.43558  -1.05779
C    -0.65962  -0.75243  -0.43947
C    -1.31329  -2.03695   0.11337
O    -2.07657  -2.65880  -0.66785
O    -1.08310  -2.33484   1.31776
H     3.14253   3.31387  -0.53743
H     2.14624   2.80810  -1.93594
H     3.64622   1.92527  -1.54296
H     1.60432   1.94664   0.60832
H     2.44908  -2.47447   2.48197
H     1.06395  -1.42171   2.96115
H     2.56750  -0.67843   2.39778
H    -1.10669   2.26933   2.85879
H    -2.12605   2.73746   1.44520
H    -2.61356   1.37875   2.46327
H    -2.63946   0.13373   0.01889
H    -0.48511  -0.85903  -1.51398
