21
Generated by autodE on: 2022-10-06. E = -532.953657 Ha
C     3.89932  -0.70544   0.31862
C     2.51244  -0.33736   0.17659
N     1.40037  -0.03419   0.05558
C     0.08009   0.25251  -0.06678
C    -0.30120   1.58042  -0.44497
C     0.80193   2.58921  -0.68977
O    -1.49731   1.92369  -0.57691
C    -0.81332  -0.88426   0.21618
O    -0.36627  -2.00291   0.53750
N    -2.13598  -0.63597   0.10620
C    -3.12501  -1.65886   0.35967
H     4.36144  -0.15740   1.15439
H     3.94563  -1.78635   0.52792
H     4.44458  -0.49946  -0.61579
H     1.47713   2.24911  -1.49142
H     1.41551   2.72964   0.21479
H     0.35332   3.54923  -0.97590
H    -2.39309   0.31564  -0.16331
H    -4.12526  -1.22853   0.22232
H    -3.01700  -2.51414  -0.32852
H    -3.05338  -2.05177   1.38773
