10
Generated by autodE on: 2022-10-06. E = -455.051707 Ha
O     2.59198  -1.14476   0.89627
C     1.93749  -0.31990   0.19902
O     2.42948   0.54308  -0.57902
C     0.42977  -0.39544   0.32818
C    -0.42993   0.39583  -0.32799
C    -1.93754   0.31994  -0.19899
O    -2.42923  -0.54351   0.57873
O    -2.59206   1.14485  -0.89617
H     0.03938  -1.15798   1.01087
H    -0.03964   1.15836  -1.01072
