31
Generated by autodE on: 2022-10-06. E = -987.999515 Ha. Imaginary frequency = -366.6 cm-1
C     2.80429   1.14796  -2.71393
N     2.35003   0.34596  -1.59997
C     1.65649   0.88738  -0.57937
O     1.37773   2.09651  -0.52403
C     1.21461  -0.05707   0.48167
C     1.70621  -1.40975   0.65976
C     1.34365  -2.11761   1.94126
O     2.37273  -1.99177  -0.21481
N     0.49338   0.50782   1.46896
C    -0.61377   0.87043   1.76515
C    -1.37363   1.55938   2.80724
C    -1.89408   0.23786   0.13759
C    -2.28131   1.63909  -0.32263
O    -1.61398   2.16889  -1.24827
O    -3.26474   2.16383   0.27358
C    -1.12104  -0.59305  -0.64351
C    -1.06673  -2.08517  -0.45647
O    -0.45433  -2.74491  -1.34199
O    -1.63514  -2.57785   0.56411
H     3.51251   1.93065  -2.39367
H     1.96204   1.64949  -3.21812
H     3.30871   0.49728  -3.43937
H     2.54950  -0.65334  -1.53074
H     1.83759  -3.09766   1.96401
H     1.63932  -1.52781   2.82200
H     0.25205  -2.26084   1.98094
H    -2.19760   2.11923   2.34299
H    -0.72484   2.22263   3.39838
H    -1.81747   0.79373   3.46490
H    -2.56603  -0.23245   0.86249
H    -0.65748  -0.19953  -1.54906
