50
Generated by autodE on: 2022-06-10. E = -2515.300494 Ha
C    -2.97082  -3.66099   1.18525
N    -1.94134  -3.13472   0.31029
C    -1.11774  -2.15238   0.70721
O    -1.09348  -1.72325   1.86502
C    -0.10745  -1.67213  -0.35278
N     1.23992  -2.06997   0.01022
C     1.88153  -0.98066   0.75103
C     3.39028  -1.08958   0.45307
C     1.64096  -1.10126   2.27147
O     1.22380  -0.23359   3.00411
O     1.96407  -2.32978   2.69301
C     1.69458  -2.63050   4.06952
C     1.12702   0.25571   0.20640
C     0.01265  -0.14739  -0.46282
C    -1.05134   0.60910  -1.29973
C    -2.35779   0.79218  -0.46422
F    -3.31823   1.39554  -1.18624
F    -2.88351  -0.36583  -0.03393
F    -2.13382   1.54267   0.61583
C    -1.40822  -0.23214  -2.57030
F    -2.08917   0.49064  -3.46893
F    -0.29176  -0.66776  -3.17744
F    -2.16893  -1.31328  -2.31449
C    -0.67875   2.03028  -1.81370
C     0.49904   2.18204  -2.77604
C     1.84721   1.63633  -2.31906
C     2.39030   2.14786  -0.98493
C     1.73901   1.64983   0.33174
Cl    3.07918   1.76145   1.59006
Cl    0.53574   2.84327   1.03891
H    -3.74918  -2.90607   1.38803
H    -3.43711  -4.53191   0.70862
H    -2.53722  -3.97028   2.14721
H    -1.97839  -3.36447  -0.67719
H    -0.36248  -2.13647  -1.31027
H     1.27206  -2.93999   0.53876
H     3.66051  -2.15237   0.52797
H     4.02413  -0.52574   1.14242
H     3.58642  -0.75738  -0.57672
H     0.61737  -2.53620   4.26960
H     2.25275  -1.95240   4.73068
H     2.02060  -3.66554   4.22392
H    -1.57028   2.42905  -2.31095
H    -0.52255   2.66301  -0.94154
H     0.25524   1.73937  -3.75377
H     0.59801   3.26586  -2.95362
H     2.59580   1.92064  -3.07578
H     1.83833   0.53670  -2.31294
H     2.41032   3.24752  -0.95233
H     3.43407   1.81249  -0.92369
