24
Generated by autodE on: 2022-07-27. E = -609.427337 Ha
C    -3.80446  -0.16534   0.12921
N    -2.71287  -0.37832  -0.79533
C    -1.47041   0.12547  -0.55753
O    -1.20202   0.68822   0.52397
C    -0.54621   0.01238  -1.67065
N     0.73502   0.41288  -1.61650
C     1.60018   0.60048  -0.61071
C     2.80277   1.45648  -0.85447
C     1.45273  -0.02269   0.69750
O     2.00394   0.40277   1.70682
O     0.77814  -1.18708   0.68212
C     0.52828  -1.80038   1.94753
H    -4.14359   0.88590   0.14763
H    -4.65215  -0.79773  -0.16418
H    -3.50112  -0.43497   1.15171
H    -2.92303  -0.72865  -1.72395
H    -0.92643  -0.17565  -2.67391
H     1.12165   0.66478  -2.53166
H     2.97557   1.58379  -1.93521
H     3.70595   1.02144  -0.40041
H     2.67569   2.46593  -0.42262
H    -0.02431  -1.11445   2.60627
H    -0.08014  -2.68896   1.73954
H     1.46832  -2.09603   2.43697
