24
Generated by autodE on: 2022-06-10. E = -609.449317 Ha
C     4.80241   0.91664   0.53379
N     3.64941   0.49316  -0.22934
C     2.39149   0.44815   0.27006
O     2.10734   0.76484   1.44419
C     1.36002  -0.00180  -0.65738
N     0.12609  -0.04178  -0.17264
C    -1.03609  -0.39145  -0.73509
C    -1.06604  -0.83056  -2.15530
C    -2.17101  -0.28845   0.15619
O    -2.10029   0.08025   1.33023
O    -3.33841  -0.63784  -0.42250
C    -4.50597  -0.55563   0.39852
H     5.27098   1.81024   0.09000
H     4.48187   1.15973   1.55349
H     5.56236   0.12011   0.58359
H     3.78497   0.22045  -1.19756
H     1.55672  -0.29022  -1.68816
H     0.06117   0.25222   0.81525
H    -0.42896  -1.72107  -2.30964
H    -2.08656  -1.07522  -2.46924
H    -0.67287  -0.04171  -2.82300
H    -4.66611   0.47482   0.74970
H    -5.34496  -0.87035  -0.23372
H    -4.42090  -1.22300   1.26928
