50
Generated by autodE on: 2022-06-10. E = -2515.202628 Ha. Imaginary frequency = -139.3 cm-1
C    -3.00401  -2.61234   1.97072
N    -1.92969  -2.77725   1.01296
C    -0.76278  -2.09541   1.16197
O    -0.49582  -1.49782   2.21849
C     0.08477  -2.10047  -0.03435
N     1.41728  -1.87059  -0.06026
C     2.25209  -1.37860   0.85188
C     3.58960  -0.87012   0.41487
C     2.12355  -1.74733   2.28645
O     2.50248  -1.06116   3.21422
O     1.71800  -3.01891   2.42877
C     1.52981  -3.48174   3.77062
C     0.59575   0.85075   0.33010
C    -0.23011   0.31371  -0.42164
C    -1.16560   0.57674  -1.54656
C    -2.62111   0.61522  -1.01505
F    -3.50258   0.79644  -2.01308
F    -2.96758  -0.51239  -0.37823
F    -2.78145   1.61953  -0.14529
C    -1.06206  -0.46859  -2.68681
F    -1.54843   0.01463  -3.83846
F     0.21734  -0.81177  -2.90911
F    -1.73827  -1.60249  -2.43054
C    -0.82823   2.00093  -2.09541
C     0.55630   2.24475  -2.72024
C     1.85247   1.81319  -2.01211
C     2.25019   2.40535  -0.65263
C     1.34708   2.06821   0.55742
Cl    2.36120   2.05887   2.08294
Cl    0.14730   3.47271   0.84937
H    -3.38074  -1.57522   1.99519
H    -3.83022  -3.28137   1.69902
H    -2.66115  -2.87115   2.98292
H    -2.18337  -3.06269   0.07219
H    -0.29399  -2.58351  -0.93040
H     1.77829  -1.81672  -1.01607
H     4.37686  -1.62867   0.57449
H     3.85968   0.01316   1.00959
H     3.57675  -0.58831  -0.64693
H     0.79026  -2.85531   4.28926
H     2.47952  -3.46480   4.32497
H     1.16007  -4.51050   3.68695
H    -1.58835   2.26138  -2.84607
H    -0.97259   2.67941  -1.24968
H     0.57983   1.77966  -3.71874
H     0.60129   3.33193  -2.90149
H     2.67315   2.09133  -2.69377
H     1.89520   0.71799  -1.94240
H     2.34645   3.49954  -0.69969
H     3.24634   2.00777  -0.41408
