46
Generated by autodE on: 2022-06-06. E = -3799.667846 Ha
C    -3.28385   3.90009   0.17357
O    -2.17948   2.97562   0.11834
C    -2.23101   1.93906   0.93532
O    -3.11826   1.70443   1.72591
C    -1.05287   1.01297   0.76190
O     0.05540   1.60691   0.09536
C     0.94142   0.51969   0.20673
C     2.32789   0.83566  -0.25159
C     3.43312   0.23487   0.36418
C     4.72102   0.51053  -0.10051
C     4.90889   1.38362  -1.17613
C     3.80456   1.98661  -1.78624
C     2.51427   1.71478  -1.32695
O     0.90999   0.24656   1.63957
C    -0.32817   0.59113   2.06253
O    -0.68435   0.59063   3.20511
C     0.15295  -0.63113  -0.51455
Br    0.97184  -2.34466  -0.00342
C     0.08942  -0.48442  -2.05902
C    -0.66526  -1.68621  -2.65960
C    -2.11775  -1.47048  -2.15182
C    -2.04805  -0.09794  -1.42375
C    -0.97942   0.61094  -2.27441
C    -1.34491  -0.32478  -0.05835
C    -2.07942  -1.29179   0.89058
C    -3.57331  -1.41893   0.77578
O    -1.46502  -1.83475   1.78830
H    -3.36035   4.33492   1.17955
H    -4.21889   3.38201  -0.08088
H    -3.05938   4.67603  -0.56585
H     3.28690  -0.44075   1.20674
H     5.58107   0.04207   0.38291
H     5.91755   1.59758  -1.53705
H     3.94651   2.67436  -2.62267
H     1.65266   2.18666  -1.80044
H     1.07855  -0.30951  -2.49767
H    -0.24639  -2.65376  -2.36092
H    -0.60864  -1.62177  -3.75504
H    -2.83528  -1.40707  -2.98176
H    -2.44584  -2.29421  -1.50600
H    -3.01439   0.41178  -1.32748
H    -1.27741   0.66038  -3.33152
H    -0.70954   1.61281  -1.93785
H    -4.01819  -0.42497   0.94078
H    -3.90013  -1.75700  -0.21512
H    -3.93118  -2.11218   1.54744
