24
Generated by autodE on: 2022-06-06. E = -800.464881 Ha
C    -4.25343   1.83105  -0.08590
O    -2.93506   1.27096  -0.05247
C    -2.85737  -0.07182  -0.09977
O    -3.83301  -0.80780  -0.16461
C    -1.50311  -0.55007  -0.06758
O    -0.42378   0.33994   0.00296
C     0.67694  -0.34998   0.00354
C     1.97757   0.26501   0.07731
C     3.12897  -0.54699   0.09624
C     4.38384   0.04949   0.17300
C     4.49482   1.44410   0.22989
C     3.34968   2.25076   0.20987
C     2.08848   1.66928   0.13390
O     0.47084  -1.62606  -0.06141
C    -1.02217  -1.85902  -0.11556
O    -1.42988  -2.98973  -0.18039
H    -4.77207   1.55161  -1.01482
H    -4.84436   1.48867   0.77635
H    -4.11989   2.91837  -0.04234
H     3.02865  -1.63227   0.05269
H     5.28039  -0.57292   0.18917
H     5.48229   1.90694   0.29054
H     3.44428   3.33731   0.25423
H     1.19005   2.28766   0.11861
