39
Generated by autodE on: 2022-06-18. E = -843.944596 Ha
C     2.29206  -0.80008   2.07140
C     2.21539  -1.45995   0.90677
C     3.14240  -2.59488   0.56903
C     1.19507  -1.12064  -0.16497
C    -0.16327  -0.60562   0.38011
C    -1.36456  -1.14029  -0.36287
C    -2.50529  -1.60869   0.17622
C    -3.62638  -2.08940  -0.70581
C    -2.78993  -1.68534   1.65082
C    -0.03761   0.87919   0.12886
C    -0.99077   1.83613   0.78406
O    -1.73162   1.49673   1.68535
O    -0.92886   3.06533   0.28641
C    -1.80186   4.04271   0.87597
N     0.88100   1.26526  -0.66987
C     1.65346   0.07402  -1.10845
C     3.14818   0.40409  -1.11868
C     1.23451  -0.21853  -2.49141
N     0.90565  -0.45728  -3.57866
H     1.61888   0.02293   2.32595
H     3.04824  -1.06478   2.81630
H     3.66649  -2.41137  -0.38347
H     2.56893  -3.52815   0.43104
H     3.89383  -2.75813   1.35498
H     1.04214  -2.01650  -0.78020
H    -0.26607  -0.80321   1.45246
H    -1.28211  -1.11110  -1.45529
H    -3.86106  -3.14789  -0.49679
H    -4.55139  -1.52190  -0.50118
H    -3.38594  -1.98938  -1.77441
H    -3.59211  -0.97528   1.91774
H    -3.16097  -2.68971   1.91634
H    -1.91995  -1.45898   2.28023
H    -1.61118   4.97871   0.33916
H    -2.85148   3.73856   0.75499
H    -1.57522   4.16119   1.94529
H     3.73364  -0.45479  -1.47273
H     3.33326   1.25765  -1.78549
H     3.47259   0.66525  -0.10347
