39
Generated by autodE on: 2022-06-18. E = -843.856249 Ha. Imaginary frequency = -359.0 cm-1
C     2.38835  -0.53390   2.20137
C     2.32597  -1.42129   1.18120
C     3.49699  -2.30885   0.84290
C     1.16106  -1.55353   0.31335
C    -0.11100  -1.08002   0.63166
C    -1.26794  -1.41359  -0.20166
C    -2.57181  -1.27416   0.13140
C    -3.65949  -1.65332  -0.83312
C    -3.05195  -0.74654   1.45470
C     0.07808   1.03564   0.10100
C    -0.92409   1.97674   0.61446
O    -0.72680   2.63739   1.61504
O    -2.05343   1.93199  -0.08060
C    -3.15376   2.71368   0.42264
N     1.00157   1.11945  -0.68815
C     1.92611   0.38823  -1.30460
C     3.37976   0.66222  -1.06475
C     1.50652  -0.32984  -2.45750
N     1.18235  -0.94592  -3.39558
H     3.28384  -0.45872   2.82419
H     1.56210   0.14310   2.43478
H     3.80604  -2.15981  -0.20498
H     3.22223  -3.37319   0.93927
H     4.36230  -2.11225   1.49199
H     1.26850  -2.19523  -0.56419
H    -0.30127  -0.79708   1.66907
H    -1.02957  -1.80280  -1.19807
H    -4.26743  -0.76880  -1.09638
H    -3.25930  -2.08721  -1.76132
H    -4.35569  -2.37995  -0.37771
H    -3.52008  -1.55754   2.04139
H    -3.83552   0.01385   1.30359
H    -2.25621  -0.30250   2.06742
H    -3.35355   2.45622   1.47154
H    -2.92321   3.78519   0.33982
H    -4.01250   2.45729  -0.20701
H     3.98704  -0.16099  -1.46294
H     3.56449   0.75982   0.01667
H     3.69545   1.59540  -1.56106
