31
Generated by autodE on: 2022-05-28. E = -1297.972592 Ha
C     4.68029   1.01861  -0.35263
O     3.40775   0.71021   0.24150
C     2.34208   1.32714  -0.26304
O     2.38213   2.14316  -1.16034
C     1.07407   0.84045   0.39354
N    -0.06081   1.69215   0.04094
N    -1.16954   0.82174   0.14066
C    -2.42525   1.27757   0.45006
C    -2.54086   2.74192   0.77418
O    -3.38770   0.51304   0.43842
C    -0.84644  -0.53200  -0.20806
Cl   -1.44421  -0.92648  -1.89793
C    -1.28537  -1.61198   0.83939
C    -0.86933  -2.97191   0.29129
C     0.46199  -3.01101   0.41656
C     0.85330  -1.67390   1.02794
O    -0.29549  -1.37107   1.84588
C     0.70459  -0.59207  -0.07612
H     5.41719   0.40772   0.18063
H     4.90944   2.08670  -0.23015
H     4.67378   0.76326  -1.42186
H     1.21530   0.84265   1.48400
H     0.04280   1.96578  -0.94310
H    -3.56677   2.94272   1.10684
H    -1.82167   3.03206   1.55283
H    -2.32014   3.34855  -0.11785
H    -2.30084  -1.48521   1.21938
H    -1.53928  -3.69438  -0.17206
H     1.16152  -3.77428   0.07611
H     1.78352  -1.61718   1.60317
H     1.19251  -0.85881  -1.01978
