18
Generated by autodE on: 2022-05-28. E = -530.749536 Ha
C     4.15582   0.07338   0.09739
O     2.92218   0.45446  -0.53146
C     1.80036   0.02110   0.04228
O     1.75484  -0.66861   1.04680
C     0.61370   0.48452  -0.69029
N    -0.54682   0.13223  -0.22071
N    -1.72823   0.43603  -0.70836
C    -2.72311  -0.12175   0.07699
C    -4.11478   0.12867  -0.42360
O    -2.49204  -0.79296   1.09037
H     4.95249   0.52322  -0.50557
H     4.25712  -1.02151   0.10846
H     4.19384   0.45581   1.12760
H     0.67614   1.10041  -1.58728
H    -0.55781  -0.45598   0.64269
H    -4.17449   1.06282  -0.99761
H    -4.81950   0.14362   0.41885
H    -4.40227  -0.70069  -1.09283
