13
Generated by autodE on: 2022-05-28. E = -767.141595 Ha
Cl   -1.66703   1.31255  -0.91155
C    -0.63313   0.22359  -0.06809
C    -0.78101  -1.07565   0.20121
C     0.57130  -1.46114   0.84682
C     1.65182  -1.39434  -0.26073
C     1.78590  -0.09400  -0.53527
C     0.78688   0.61066   0.41354
O     0.87452  -0.24352   1.56518
H    -1.59533  -1.75420  -0.04431
H     0.57433  -2.33825   1.50286
H     2.12500  -2.25844  -0.72605
H     2.39722   0.40586  -1.28558
H     0.95528   1.66624   0.65126
