31
Generated by autodE on: 2022-05-28. E = -1297.878214 Ha. Imaginary frequency = -291.8 cm-1
C     4.63403   1.19930  -0.28781
O     3.42123   0.79553   0.36663
C     2.31345   1.46087   0.03866
O     2.27186   2.38709  -0.75274
C     1.13251   0.90273   0.71649
N    -0.01495   1.55912   0.56835
N    -1.12464   0.93639   0.94121
C    -2.32386   1.56191   0.66811
C    -2.34662   2.97581   0.13943
O    -3.36202   0.92549   0.85171
C    -0.75710  -0.93130  -0.45812
Cl   -1.78490  -0.49006  -1.78411
C    -1.16193  -2.02879   0.53945
C    -0.82625  -3.37278  -0.14800
C     0.51027  -3.40794  -0.19154
C     0.97364  -2.09150   0.47179
O    -0.06547  -1.92008   1.45758
C     0.62279  -0.93906  -0.49723
H     4.86499   2.24818  -0.05288
H     4.53871   1.07912  -1.37669
H     5.41914   0.54080   0.10034
H     1.23761   0.24646   1.57673
H    -0.02684   2.27739  -0.16983
H    -3.38179   3.33758   0.13218
H    -1.71854   3.65294   0.73729
H    -1.96644   2.98667  -0.89739
H    -2.13629  -1.90910   1.02314
H    -1.55611  -4.07480  -0.54937
H     1.17072  -4.15070  -0.63825
H     1.97196  -2.07146   0.92249
H     1.21920  -0.67881  -1.37058
