21
Generated by autodE on: 2022-06-19. E = -590.885677 Ha
C    -0.52062   2.90919   0.12781
C    -1.26538   1.63259  -0.19487
O    -2.42464   1.66556  -0.62398
C    -0.55208   0.38439  -0.01242
O     0.70367   0.56212   0.53081
C     1.70914  -0.23147   0.46596
C     2.84555   0.01453   1.37744
C     1.81447  -1.22861  -0.55040
N     2.04960  -1.96021  -1.42462
C    -1.08195  -0.95495   0.02187
C    -2.52812  -1.18382  -0.33432
O    -0.37290  -1.90523   0.40116
H     0.35917   3.02219  -0.52546
H    -0.15369   2.89883   1.16612
H    -1.19825   3.75980  -0.01933
H     2.88743  -0.80178   2.12148
H     3.79611  -0.00180   0.82215
H     2.70497   0.97022   1.89873
H    -2.75706  -2.24604  -0.17692
H    -3.19588  -0.55446   0.27061
H    -2.70500  -0.91498  -1.38660
