20
Generated by autodE on: 2022-06-19. E = -457.715322 Ha
C     3.13219  -0.51597   0.14710
N     1.82208   0.11418   0.13761
C     1.72796   1.51094   0.09816
C     0.55399   2.15616   0.01173
C    -0.77515   1.44510  -0.05357
C    -0.57295  -0.06149  -0.02822
C    -1.71458  -0.98804  -0.09400
N    -2.94318  -0.41652  -0.16566
O    -1.59466  -2.23024  -0.08784
C     0.67140  -0.61108   0.05823
H     3.67190  -0.33872  -0.79854
H     3.74514  -0.12401   0.97358
H     3.01280  -1.59790   0.28450
H     2.68291   2.03731   0.14651
H     0.56192   3.24839  -0.00792
H    -1.42289   1.77213   0.78587
H    -1.32824   1.75479  -0.96403
H    -3.08365   0.58553  -0.16047
H    -3.75702  -1.01998  -0.20850
H     0.78843  -1.69582   0.07167
