37
Generated by autodE on: 2022-06-17. E = -859.095759 Ha
C     2.02689   2.07473  -1.14195
O     1.88048   1.07770  -0.11923
C     1.45789  -0.12383  -0.50658
O     1.28963  -0.41865  -1.67566
C     1.26374  -1.09891   0.66150
C     2.47891  -1.01907   1.59392
N     1.10075  -2.45815   0.09884
C    -0.16291  -2.99731   0.61047
C    -1.07195  -1.79327   0.86347
C    -0.05907  -0.81991   1.47938
C    -0.55149   0.62355   1.56622
C    -1.15727   1.05009   0.25293
C    -1.20493   2.44274  -0.19128
N    -0.78805   3.38233   0.69808
O    -1.59074   2.79231  -1.33013
C    -1.63303   0.09333  -0.60197
N    -1.65022  -1.23710  -0.36938
C    -2.10861  -2.14979  -1.40119
H     2.82945   1.79157  -1.83793
H     1.08501   2.19447  -1.69413
H     2.28307   3.00415  -0.62165
H     2.39874  -1.81296   2.35101
H     2.52656  -0.04911   2.10919
H     3.41601  -1.16652   1.03579
H     1.01046  -2.34555  -0.91119
H    -0.57129  -3.74648  -0.07815
H    -0.00871  -3.50075   1.57877
H    -1.88211  -2.03970   1.57094
H     0.14293  -1.18076   2.49740
H    -1.28331   0.68949   2.39086
H     0.28830   1.27614   1.84780
H    -0.82499   4.35751   0.42389
H    -0.53467   3.15480   1.65060
H    -2.04029   0.40295  -1.56665
H    -2.72173  -2.95280  -0.96365
H    -1.26877  -2.61245  -1.94799
H    -2.72673  -1.60052  -2.12340
