17
Generated by autodE on: 2022-06-17. E = -401.312969 Ha
C    -2.87080   0.94947  -0.21130
N    -1.56315   0.88913  -0.13715
C    -0.73156  -0.18361  -0.02699
C    -1.32105  -1.54836   0.02549
C     0.65171   0.16093   0.02504
O     1.09962   1.31771  -0.02281
O     1.47909  -0.91503   0.13575
C     2.87657  -0.63757   0.19005
H    -3.33463   1.93053  -0.29617
H    -3.46248   0.03552  -0.18811
H    -1.04845   1.77789  -0.16363
H    -1.91301  -1.77224  -0.88299
H    -0.53599  -2.30755   0.11767
H    -2.01249  -1.66062   0.88296
H     3.12516  -0.01010   1.05996
H     3.37804  -1.60945   0.28016
H     3.21778  -0.12754  -0.72412
