20
Generated by autodE on: 2022-06-17. E = -457.715312 Ha
C     3.01177  -0.66401   0.77508
N     1.81730  -0.05855   0.20995
C     1.93763   1.07698  -0.60061
C     0.87786   1.69019  -1.15103
C    -0.54191   1.22001  -0.95178
C    -0.57423  -0.00612  -0.05371
C    -1.84465  -0.65549   0.30619
N    -2.96695  -0.09613  -0.21264
O    -1.92116  -1.66008   1.04257
C     0.56959  -0.54898   0.45151
H     3.70399  -0.98776  -0.01901
H     2.72721  -1.54132   1.36900
H     3.54437   0.04527   1.42959
H     2.96053   1.42661  -0.75189
H     1.05243   2.57176  -1.77208
H    -1.15669   2.03886  -0.52518
H    -1.01298   1.00510  -1.93313
H    -3.86395  -0.51547   0.00587
H    -2.94597   0.71518  -0.81710
H     0.51783  -1.43127   1.09158
