23
Generated by autodE on: 2022-06-19. E = -351.521383 Ha
C    -3.69964   0.16565  -0.76270
C    -2.57667   0.21533  -0.01279
C    -2.63321   0.51270   1.46386
C    -1.27428  -0.02110  -0.63255
C    -0.07752   0.00462   0.00615
C     1.18723  -0.23712  -0.65777
C     2.42087  -0.22328  -0.09253
C     2.68460   0.05574   1.35994
C     3.64770  -0.49559  -0.91612
H    -4.68679   0.33849  -0.32499
H    -3.65528  -0.05027  -1.83469
H    -2.05004   1.41563   1.71008
H    -2.19806  -0.31219   2.05220
H    -3.66825   0.66796   1.79946
H    -1.28794  -0.23572  -1.70794
H    -0.05497   0.21855   1.07818
H     1.12531  -0.45275  -1.73134
H     1.77623   0.25707   1.94227
H     3.36010   0.92306   1.46544
H     3.20909  -0.79807   1.82426
H     4.34581   0.35980  -0.87355
H     3.40532  -0.69465  -1.97034
H     4.20353  -1.36242  -0.51552
