45
Generated by autodE on: 2022-06-03. E = -3682.702394 Ha
C     0.88143   2.83997  -2.70733
N     0.74731   1.61799  -1.93460
C     0.77707   1.63051  -0.60110
O     0.90606   2.67903   0.04531
C     0.68918   0.33512   0.22021
C     2.07963   0.09375   0.89991
C     3.12221  -0.09711  -0.22520
C     2.78505  -1.51454  -0.77662
C     1.58259  -1.95968   0.09121
C     1.99828  -1.34233   1.44218
C     0.33656  -1.13031  -0.29608
Br   -0.06736  -1.45352  -2.23791
C    -1.00302  -1.44256   0.47097
C    -1.43595  -2.88388   0.53908
C    -2.04744  -0.46874  -0.13707
O    -3.02292  -0.67715  -0.80704
O    -1.67889   0.76895   0.28301
C    -0.52049   0.53970   1.18752
C    -0.39615   1.66790   2.19764
O     0.43156   1.63240   3.08239
O    -1.29488   2.62081   2.02841
C    -1.20238   3.75217   2.91151
N    -0.76604  -0.75189   1.75531
C    -1.83097  -0.84092   2.75370
H     0.82375   2.58905  -3.77332
H     0.07800   3.55172  -2.46262
H     1.84645   3.33056  -2.50611
H     0.63093   0.73394  -2.41794
H     2.32437   0.88387   1.61606
H     3.08379   0.68249  -0.99696
H     4.12989  -0.06980   0.21242
H     3.61514  -2.21535  -0.61132
H     2.56511  -1.51590  -1.85076
H     1.38831  -3.03863   0.07399
H     2.98876  -1.70790   1.75114
H     1.28484  -1.48429   2.25256
H    -2.42519  -2.97037   1.00827
H    -0.71439  -3.47812   1.11565
H    -1.50834  -3.30055  -0.47452
H    -1.30143   3.43072   3.95756
H    -2.02785   4.41666   2.63402
H    -0.23684   4.25764   2.76719
H    -1.54871  -0.23875   3.62780
H    -2.81574  -0.49493   2.38874
H    -1.92532  -1.88272   3.08467
