24
Generated by autodE on: 2022-06-03. E = -3054.571195 Ha
C     4.05756  -0.66437  -0.85488
N     2.64262  -0.57940  -1.15046
C     1.71108  -0.65457  -0.16939
O     2.02853  -0.82668   1.01459
C     0.30679  -0.52389  -0.62077
C    -0.76721  -0.10340   0.08434
Br   -0.86324   0.50192   1.86587
C    -1.94569   0.05811  -0.85392
C    -1.60942   1.30531  -1.73583
C    -0.39828   0.81739  -2.58028
C    -0.18642  -0.64275  -2.06700
C    -1.64488  -1.08699  -1.84156
H     4.62137  -0.62247  -1.79488
H     4.38825   0.16474  -0.20739
H     4.29904  -1.60697  -0.33873
H     2.35207  -0.39593  -2.10384
H    -2.93051   0.08360  -0.37348
H    -2.47312   1.55108  -2.37079
H    -1.38201   2.18635  -1.11914
H    -0.63533   0.80836  -3.65440
H     0.50294   1.43007  -2.43757
H     0.43090  -1.27445  -2.71784
H    -2.25821  -1.04042  -2.75408
H    -1.72671  -2.08307  -1.38318
