21
Generated by autodE on: 2022-06-03. E = -628.104518 Ha
C     3.85527   0.42630   0.10617
O     2.43922   0.65414   0.11755
C     1.66246  -0.42859  -0.02283
O     2.09252  -1.56538  -0.15268
C     0.25661  -0.06154   0.00018
O    -0.14005   1.21473   0.14211
C    -1.55310   1.26832   0.12448
O    -2.14041   2.33683   0.23988
C    -1.96112  -0.08028  -0.04061
C    -3.34153  -0.61223  -0.13167
N    -0.82847  -0.84024  -0.10773
C    -0.85716  -2.29301  -0.27884
H     4.16672  -0.01845  -0.85018
H     4.31818   1.41133   0.23482
H     4.14565  -0.24075   0.93082
H    -3.52475  -1.12191  -1.09248
H    -4.04702   0.22535  -0.04574
H    -3.56035  -1.33309   0.67386
H    -1.35104  -2.52615  -1.23138
H     0.16502  -2.67536  -0.27614
H    -1.43469  -2.73272   0.54454
