45
Generated by autodE on: 2022-06-03. E = -3682.651613 Ha. Imaginary frequency = -362.7 cm-1
C     0.47155   3.26286  -1.91564
N     0.47836   1.89676  -1.43163
C     0.95886   1.58438  -0.21745
O     1.52419   2.43442   0.49098
C     0.76111   0.19111   0.32781
C     1.75585  -0.17203   1.45268
C     3.14828  -0.26514   0.75682
C     3.02877  -1.55883  -0.10211
C     1.58845  -2.05604   0.22691
C     1.50540  -1.67054   1.70714
C     0.62310  -1.05237  -0.39524
Br    0.51786  -1.20146  -2.31743
C    -1.55062  -1.61602   0.57066
C    -1.73694  -3.08004   0.69300
C    -2.02838  -0.82023  -0.54309
O    -2.55956  -1.11359  -1.59111
O    -1.77308   0.50055  -0.18854
C    -1.10834   0.47772   1.03126
C    -1.10678   1.73997   1.81660
O    -0.73364   1.80504   2.97073
O    -1.47612   2.77644   1.07486
C    -1.30048   4.07992   1.65652
N    -1.39833  -0.73978   1.61131
C    -1.38920  -1.04857   3.03622
H     0.19222   3.26257  -2.97670
H     1.46729   3.71620  -1.80939
H    -0.24913   3.88560  -1.35866
H    -0.04686   1.19840  -1.94383
H     1.71986   0.50283   2.31449
H     3.38031   0.62762   0.16232
H     3.93200  -0.36578   1.52207
H     3.75940  -2.32074   0.20773
H     3.16727  -1.37721  -1.17648
H     1.38857  -3.10211  -0.03690
H     2.31859  -2.11989   2.29575
H     0.56486  -1.93126   2.18561
H    -2.70614  -3.32253   1.16084
H    -0.93941  -3.53884   1.29455
H    -1.72464  -3.52079  -0.31318
H    -0.23478   4.25021   1.86304
H    -1.66408   4.79249   0.90829
H    -1.88223   4.16729   2.58438
H    -0.47071  -0.69976   3.51750
H    -2.24888  -0.56143   3.51755
H    -1.48093  -2.13293   3.15819
