29
Generated by autodE on: 2022-07-27. E = -745.834983 Ha
C     0.24714   4.08252  -0.47871
N    -0.11641   2.69774  -0.26349
C     0.78525   1.70778  -0.41721
O     1.95164   1.91110  -0.78066
C     0.28920   0.33008  -0.11600
O    -0.91503   0.33509   0.35876
C    -1.82621  -0.56161   0.71022
C    -3.08329  -0.01050   1.10867
C    -4.16139  -0.99929   1.48472
O    -3.29966   1.21681   1.15521
C     1.08485  -0.87225  -0.31319
C     1.00557  -1.95837   0.58717
C     1.79152  -3.09284   0.39489
C     2.65612  -3.17485  -0.70161
C     2.74077  -2.10678  -1.60192
C     1.97143  -0.96197  -1.41065
H    -0.63880   4.70926  -0.32171
H     1.03884   4.40551   0.21709
H     0.61687   4.24029  -1.50417
H    -1.04722   2.46793   0.07182
H    -1.59384  -1.62190   0.64137
H    -5.03840  -0.84021   0.83639
H    -4.48418  -0.80390   2.52036
H    -3.83433  -2.04485   1.40016
H     0.35777  -1.90416   1.46228
H     1.72965  -3.91780   1.10790
H     3.26360  -4.06975  -0.85427
H     3.41141  -2.16733  -2.46188
H     2.04071  -0.13364  -2.11359
