29
Generated by autodE on: 2022-06-23. E = -745.833129 Ha
C    -1.21777   3.95512  -0.45653
N    -0.52357   2.73190  -0.10485
C    -0.93277   1.53763  -0.57835
O    -1.93302   1.42305  -1.30321
C    -0.15591   0.34268  -0.15817
O    -0.75047  -0.81766  -0.15302
C    -1.96769  -1.25796  -0.41496
C    -2.19788  -2.65816  -0.22051
C    -1.05106  -3.52387   0.25519
O    -3.32606  -3.13541  -0.43805
C     1.24060   0.30718   0.26304
C     2.17576   1.27094  -0.17562
C     3.51038   1.19496   0.22185
C     3.94449   0.15940   1.05469
C     3.02955  -0.80937   1.48593
C     1.69481  -0.74053   1.09758
H    -0.69677   4.80162   0.00623
H    -1.23580   4.09923  -1.54806
H    -2.26058   3.93940  -0.10045
H     0.26574   2.77907   0.53021
H    -2.73071  -0.56323  -0.75638
H    -0.17220  -3.42005  -0.39896
H    -0.73766  -3.22549   1.26907
H    -1.37895  -4.57148   0.27256
H     1.86671   2.06653  -0.85332
H     4.21883   1.94621  -0.13422
H     4.99035   0.10434   1.36460
H     3.35934  -1.62176   2.13756
H     0.98634  -1.49275   1.44643
