12
Generated by autodE on: 2022-06-23. E = -381.636094 Ha
O    -0.26896  -2.61933   0.42119
C    -0.14503  -1.41441   0.22714
C    -1.24639  -0.61447  -0.36183
C    -1.11104   0.70630  -0.57342
C     0.14502   1.41441  -0.22712
O     0.26896   2.61933  -0.42120
C     1.24639   0.61447   0.36183
C     1.11104  -0.70630   0.57341
H    -2.16184  -1.15743  -0.60858
H    -1.90840   1.31583  -1.00513
H     2.16185   1.15743   0.60857
H     1.90840  -1.31583   1.00511
