41
Generated by autodE on: 2022-06-23. E = -1127.490378 Ha. Imaginary frequency = -128.9 cm-1
C     0.92571   3.89035  -0.01842
N     0.66407   2.53998   0.43840
C     1.48396   1.52661   0.09929
O     2.56556   1.69724  -0.47244
C     0.98711   0.15009   0.42209
C     1.85321  -1.02619   0.33196
C     1.91439  -1.95105   1.39411
C     2.79029  -3.03455   1.33432
C     3.60947  -3.21767   0.21630
C     3.55631  -2.30279  -0.84193
C     2.69165  -1.21273  -0.78735
O    -0.13270   0.17231   1.10375
C    -1.00595  -0.78894   1.34252
C    -2.21901  -0.35470   2.02228
C    -3.17352  -1.44711   2.41388
O    -2.44033   0.83763   2.24724
C    -1.59157  -0.99460  -1.07324
C    -2.81167  -0.19122  -0.85228
O    -3.88705  -0.70279  -0.54147
C    -2.69604   1.27252  -1.05059
C    -1.60579   1.81468  -1.62220
C    -0.46492   0.97386  -2.06494
O     0.45381   1.45979  -2.73049
C    -0.48846  -0.44118  -1.67618
H     0.99791   3.92413  -1.11763
H     1.86921   4.27612   0.39735
H     0.10360   4.53837   0.30773
H    -0.24284   2.31914   0.83811
H     1.30202  -1.80897   2.28566
H     2.83460  -3.73696   2.16942
H     4.28874  -4.07177   0.16887
H     4.19129  -2.44264  -1.71946
H     2.64168  -0.50796  -1.61556
H    -0.69377  -1.82943   1.28984
H    -3.17644  -2.26456   1.67867
H    -2.84993  -1.86877   3.38174
H    -4.18390  -1.03335   2.52896
H    -1.69242  -2.07410  -0.95296
H    -3.55882   1.87185  -0.75105
H    -1.52297   2.88668  -1.81622
H     0.33243  -1.06249  -2.03079
