28
Generated by autodE on: 2022-06-16. E = -591.770158 Ha
C     3.82536   0.90836  -0.01314
N     2.48415   0.89465  -0.56538
C     1.59984  -0.07203  -0.26849
O     1.88798  -1.03945   0.44854
C     0.19883   0.09974  -0.84762
N    -0.51963  -1.17927  -0.90019
C    -1.64035  -1.12790   0.04430
C    -1.26593  -1.57700   1.40074
N    -0.95526  -1.94854   2.45658
C    -2.04965   0.36008   0.04550
C    -2.93051   0.69148  -1.15722
C    -0.66217   1.04384   0.04280
C    -0.63563   2.50516  -0.38022
H     4.37499  -0.00582  -0.28677
H     4.36509   1.77644  -0.41054
H     3.80712   0.97568   1.08660
H     2.18389   1.66463  -1.15429
H     0.28964   0.53121  -1.85890
H     0.11414  -1.94475  -0.67546
H    -2.46865  -1.77660  -0.28135
H    -2.59395   0.60741   0.96905
H    -3.21345   1.75413  -1.15325
H    -3.85732   0.09795  -1.12827
H    -2.42125   0.47789  -2.10901
H    -0.27535   0.97214   1.07307
H    -0.95394   2.62990  -1.42638
H    -1.30066   3.10918   0.25678
H     0.37997   2.91960  -0.28723
