16
Generated by autodE on: 2022-06-16. E = -434.401032 Ha
C     3.72469  -0.09915   0.02552
N     2.35526   0.35749   0.12070
C     1.28324  -0.43943  -0.08383
O     1.36646  -1.65212  -0.36646
C    -0.02129   0.20581   0.04803
N    -1.06695  -0.57693  -0.15606
C    -2.39173  -0.35478  -0.12412
C    -2.90679   0.91180   0.17447
N    -3.33382   1.97354   0.42601
H     4.26019   0.40742  -0.79394
H     3.72563  -1.17783  -0.16919
H     4.27078   0.09225   0.96277
H     2.18609   1.33515   0.33622
H    -0.16381   1.25758   0.29452
H    -0.77938  -1.54207  -0.38107
H    -3.04816  -1.19569  -0.33838
