28
Generated by autodE on: 2022-06-16. E = -591.691598 Ha. Imaginary frequency = -403.3 cm-1
C     4.05674   1.30563  -0.10038
N     2.77963   0.89426  -0.64677
C     1.98176   0.01526  -0.00460
O     2.32307  -0.54573   1.05396
C     0.65563  -0.21377  -0.59396
N    -0.03905  -1.24416  -0.08237
C    -1.37417  -1.35359  -0.30428
C    -2.13433  -2.27435   0.44807
N    -2.80930  -2.97507   1.09656
C    -1.91159   0.79284   0.40533
C    -3.13141   1.00760  -0.45168
C    -0.70919   1.46442   0.20750
C    -0.50962   2.47926  -0.88824
H     4.73432   0.44541   0.01825
H     4.52075   2.02587  -0.78507
H     3.93998   1.78097   0.88748
H     2.42571   1.35093  -1.48114
H     0.42412   0.11241  -1.60711
H     0.33874  -1.60425   0.79876
H    -1.74079  -1.09065  -1.29669
H    -2.09732   0.39154   1.40531
H    -3.62375   1.96803  -0.21022
H    -3.87516   0.21028  -0.29887
H    -2.88562   1.03778  -1.52482
H    -0.04847   1.55640   1.07424
H    -0.92372   2.13792  -1.84995
H    -1.00994   3.43483  -0.64501
H     0.55724   2.70106  -1.04162
