29
Generated by autodE on: 2022-06-22. E = -634.408973 Ha
C    -1.54233   3.84619  -0.27801
C    -1.03873   2.63966  -0.98893
N    -0.65508   1.58356  -0.52642
C    -0.18713   0.42765  -0.16458
C     1.26756   0.32702   0.07855
C     1.96826  -0.88166  -0.11111
C     3.34978  -0.94284   0.07931
C     4.06654   0.19721   0.45718
C     3.38456   1.40560   0.63848
C     2.00376   1.47044   0.45380
C    -1.13333  -0.70331  -0.05887
C    -2.31641  -0.71002  -0.82608
C    -3.23153  -1.75711  -0.72226
C    -2.99195  -2.82198   0.15380
C    -1.82788  -2.82159   0.92907
C    -0.90840  -1.77601   0.82739
H    -1.56081   3.73289   0.81992
H    -0.91232   4.70762  -0.55102
H    -2.55542   4.07952  -0.64227
H     1.43340  -1.77618  -0.43167
H     3.87144  -1.88993  -0.07917
H     5.14724   0.14523   0.60792
H     3.93148   2.30433   0.93408
H     1.48142   2.41673   0.61088
H    -2.51452   0.11591  -1.51281
H    -4.13798  -1.74331  -1.33254
H    -3.70900  -3.64210   0.23496
H    -1.63502  -3.63973   1.62739
H    -0.01731  -1.78426   1.45610
