20
Generated by autodE on: 2022-06-22. E = -457.715332 Ha
C    -3.10353  -0.67610  -0.09100
N    -1.82367   0.00958  -0.16225
C    -1.79349   1.40183  -0.31103
C    -0.65067   2.10613  -0.30913
C     0.70865   1.47170  -0.14677
C     0.57470  -0.03100   0.03837
C     1.75651  -0.88502   0.23804
N     2.95644  -0.25153   0.23861
O     1.69311  -2.12070   0.40155
C    -0.64257  -0.64403   0.02230
H    -3.72723  -0.42360  -0.96254
H    -3.65802  -0.40243   0.82261
H    -2.93389  -1.76006  -0.08610
H    -2.77107   1.87230  -0.43147
H    -0.70788   3.18967  -0.43575
H     1.34602   1.70753  -1.02385
H     1.24158   1.93025   0.71111
H     3.79657  -0.80337   0.37245
H     3.04915   0.74713   0.10315
H    -0.71122  -1.72440   0.15885
