49
Generated by autodE on: 2022-06-22. E = -1092.126942 Ha. Imaginary frequency = -403.1 cm-1
C     2.28646   2.48155   1.55416
C     1.46362   1.43366   0.90842
N     0.27486   1.17111   1.03134
C    -0.79131   0.48136   0.68612
C    -1.10373  -0.71955   1.48227
C    -2.41915  -1.21196   1.62635
C    -2.67461  -2.35231   2.38679
C    -1.62969  -3.02674   3.02933
C    -0.32546  -2.53636   2.91614
C    -0.06513  -1.39542   2.15797
C    -1.68246   1.06258  -0.32922
C    -1.62487   2.44288  -0.61669
C    -2.41606   2.99935  -1.62009
C    -3.29261   2.19657  -2.35864
C    -3.35430   0.82536  -2.09063
C    -2.55574   0.26118  -1.09596
C     1.35509  -0.30178  -1.27429
C     0.76859   0.60853  -2.21811
N    -0.15226   0.09595  -3.10910
O     1.06735   1.83055  -2.28623
C     0.93099  -1.75823  -1.20881
C     1.79539  -2.53438  -0.25625
C     2.82265  -1.97472   0.40863
N     3.19250  -0.64220   0.28636
C     4.23422  -0.12060   1.15006
C     2.37577   0.22922  -0.44865
H     2.71886   2.07441   2.48236
H     3.11960   2.77240   0.89916
H     1.68025   3.36442   1.80823
H    -3.25295  -0.68696   1.16222
H    -3.70159  -2.71152   2.48679
H    -1.83380  -3.92113   3.62245
H     0.49958  -3.04585   3.41952
H     0.95406  -1.02038   2.09092
H    -0.95672   3.08166  -0.03664
H    -2.35441   4.07160  -1.82115
H    -3.91901   2.63577  -3.13838
H    -4.01752   0.18201  -2.67380
H    -2.58537  -0.81648  -0.93925
H    -0.75889   0.79461  -3.52861
H    -0.63515  -0.75865  -2.85422
H    -0.13557  -1.86409  -0.91799
H     0.98504  -2.22226  -2.21570
H     1.59536  -3.59767  -0.10807
H     3.44595  -2.55659   1.09152
H     4.62760   0.81641   0.73330
H     5.06260  -0.84155   1.21244
H     3.87646   0.07770   2.17638
H     2.90771   1.10508  -0.83206
