39
Generated by autodE on: 2022-05-29. E = -1084.624026 Ha
C     4.99848   1.04626  -0.32403
N     3.65084   0.89532   0.19291
C     2.63767   0.51230  -0.58866
O     2.74090   0.24388  -1.78982
C     1.28379   0.36654   0.07609
N     0.20718   1.07133  -0.61592
C    -0.81306   0.73106   0.39794
C    -2.20281   1.30873   0.23102
O    -3.14896   0.83860   0.86920
N    -2.30496   2.33435  -0.62334
C    -3.56257   3.01549  -0.86217
C    -0.07012   1.25016   1.63418
O    -0.47701   1.74637   2.64851
O     1.24262   0.99886   1.38837
C    -0.74351  -0.82043   0.56579
C    -1.37700  -1.63533  -0.60112
O    -0.41127  -1.45390  -1.65299
C     0.70933  -2.01415  -0.93512
C     0.12970  -3.33206  -0.44569
C    -1.17599  -3.10374  -0.22902
C    -2.24079  -3.95255   0.36809
C     0.77794  -1.08354   0.31549
H     5.07015   1.90037  -1.01653
H     5.68416   1.21168   0.51523
H     5.30640   0.14033  -0.86648
H     3.45305   1.13904   1.15836
H     0.00457   0.55519  -1.47793
H    -1.45387   2.67667  -1.05891
H    -4.36415   2.28505  -1.04413
H    -3.85704   3.63750  -0.00089
H    -3.45877   3.65929  -1.74385
H    -1.12242  -1.13728   1.54321
H    -2.37892  -1.32220  -0.91506
H     1.60635  -2.03773  -1.56074
H     0.70626  -4.23032  -0.22362
H    -3.10026  -4.04964  -0.31706
H    -2.62798  -3.48795   1.29199
H    -1.86928  -4.95751   0.61512
H     1.32142  -1.54292   1.14801
