23
Generated by autodE on: 2022-05-29. E = -737.703481 Ha
C     4.61056   0.68664  -1.25054
N     3.25606   0.81385  -0.74720
C     2.36040  -0.16897  -0.90483
O     2.57164  -1.24421  -1.47274
C     1.01683   0.09847  -0.33946
N     0.01513  -0.74141  -0.39313
C    -1.10337  -0.22095   0.23554
C    -2.34532  -0.99516   0.15151
O    -2.42322  -1.90483  -0.69563
N    -3.36844  -0.71735   0.98892
C    -3.33011   0.04203   2.22756
C    -0.75508   1.08227   0.67420
O    -1.29240   2.02690   1.21347
O     0.65178   1.20653   0.28558
H     5.13466  -0.15256  -0.76681
H     4.60971   0.50775  -2.33675
H     5.15354   1.61526  -1.04093
H     2.97916   1.65813  -0.25418
H     0.04751  -1.65533  -0.84950
H    -4.19329  -1.28562   0.81628
H    -2.33874  -0.02585   2.69536
H    -3.57364   1.10450   2.08331
H    -4.06352  -0.39192   2.92045
