23
Generated by autodE on: 2022-07-26. E = -737.710177 Ha
C     4.86426  -0.79171  -0.16781
N     3.47559  -0.60832   0.20331
C     2.50508  -0.34752  -0.68495
O     2.64065  -0.22857  -1.90598
C     1.15256  -0.19242  -0.10098
N     0.07326   0.08293  -0.79438
C    -1.02385   0.16730   0.03531
C    -2.35598   0.46542  -0.48134
O    -2.53603   0.64572  -1.69734
N    -3.33158   0.52367   0.45286
C    -4.71741   0.80033   0.14395
C    -0.56975  -0.07787   1.34997
O    -1.07890  -0.12912   2.45537
O     0.85291  -0.30462   1.18803
H     4.95840  -0.69256  -1.25509
H     5.49962  -0.03488   0.31723
H     5.21801  -1.78951   0.13340
H     3.22180  -0.67508   1.18559
H     0.05680   0.21794  -1.80756
H    -3.06774   0.35760   1.42119
H    -5.06910   1.70219   0.66993
H    -4.81514   0.96315  -0.93570
H    -5.36623  -0.04194   0.43338
