39
Generated by autodE on: 2022-05-29. E = -1084.559178 Ha. Imaginary frequency = -369.5 cm-1
C     5.16469   0.08239  -0.04289
N     3.80967   0.37403   0.38549
C     2.79212   0.40990  -0.48490
O     2.89576   0.20116  -1.69922
C     1.44738   0.65612   0.09549
N     0.43655   1.17880  -0.64077
C    -0.60197   1.39376   0.22316
C    -1.95661   1.72794  -0.23324
O    -2.26292   1.64238  -1.43221
N    -2.82269   2.07921   0.73595
C    -4.21263   2.36377   0.44415
C    -0.03481   1.49815   1.54005
O    -0.48921   1.81366   2.62459
O     1.30305   1.10876   1.38306
C    -0.69059  -1.00659   0.73656
C    -1.45954  -1.49639  -0.50420
O    -0.48058  -1.25220  -1.53273
C     0.57123  -2.02322  -0.91293
C    -0.15511  -3.36372  -0.70444
C    -1.43043  -3.04419  -0.43842
C    -2.60671  -3.86682  -0.05444
C     0.63991  -1.31209   0.46141
H     5.18974  -0.84128  -0.63990
H     5.57727   0.89823  -0.65811
H     5.79636  -0.04684   0.84373
H     3.62876   0.59973   1.35910
H     0.26973   0.84817  -1.59192
H    -2.48021   2.13112   1.69277
H    -4.71646   1.48875   0.00282
H    -4.72307   2.63060   1.37728
H    -4.30959   3.20141  -0.26462
H    -1.14787  -0.88301   1.71713
H    -2.42126  -1.02667  -0.73609
H     1.48155  -2.02030  -1.52098
H     0.31817  -4.34538  -0.71058
H    -3.44922  -3.70316  -0.74834
H    -2.96698  -3.57517   0.94830
H    -2.36681  -4.93993  -0.03778
H     1.38710  -1.56153   1.21473
