20
Generated by autodE on: 2022-06-30. E = -566.022502 Ha
C    -3.95505  -0.82918   0.64785
N    -2.72112  -0.20104   0.22180
C    -1.50128  -0.70437   0.48572
O    -1.30425  -1.75696   1.12172
C    -0.33421   0.04988  -0.01685
C    -0.43559   1.24247  -0.74875
N    -0.59381   2.23122  -1.35353
N     0.84512  -0.53873   0.30442
C     2.12108  -0.27490   0.09614
C     3.18089  -1.19131   0.62374
C     2.51628   0.87918  -0.62975
N     2.92597   1.80149  -1.21372
H    -4.54064  -0.15047   1.28752
H    -3.71668  -1.73378   1.21851
H    -4.57511  -1.10996  -0.21819
H    -2.78651   0.66593  -0.30319
H     0.63959  -1.40126   0.84157
H     2.72307  -2.04158   1.14846
H     3.84316  -0.65577   1.32302
H     3.80521  -1.57486  -0.19919
