20
Generated by autodE on: 2022-07-27. E = -566.006107 Ha
C     1.47391  -0.61243  -1.75207
N     0.72861  -1.52658  -0.90960
C     0.29513  -1.33291   0.35684
O    -0.10980  -2.26886   1.06258
C     0.40207   0.03341   0.93026
C     0.84165   0.13234   2.26520
N     1.22228   0.20501   3.36842
N     0.05427   1.19514   0.30757
C    -0.69782   1.44827  -0.75823
C    -0.75440   2.82832  -1.33259
C    -1.49171   0.42464  -1.32990
N    -2.20994  -0.36161  -1.80546
H     0.82951  -0.05302  -2.45092
H     2.19423  -1.18826  -2.34895
H     2.03882   0.10348  -1.14078
H     0.57056  -2.46773  -1.26194
H     0.43285   2.04118   0.74909
H    -1.78991   3.09980  -1.58484
H    -0.15497   2.88729  -2.25685
H    -0.35261   3.55902  -0.61483
