64
Generated by autodE on: 2022-06-30. E = -1472.083007 Ha. Imaginary frequency = -265.2 cm-1
C     1.18916  -9.37737   4.13884
N     1.43994  -8.20771   4.95974
C     0.65112  -7.91802   6.01200
O    -0.19904  -8.69248   6.44037
C     0.95822  -6.55193   6.63376
C     1.90430  -6.55413   7.69261
N     2.66810  -6.57933   8.57399
N     1.00542  -5.46900   5.80444
C     0.07357  -5.14329   4.88911
C     0.26383  -3.87945   4.10090
C    -0.68660  -6.17376   4.25563
N    -1.28120  -6.97046   3.64948
C    -1.62337  -5.12418   6.74943
C    -1.11800  -5.89903   7.58374
C    -1.19153  -6.38365   9.01014
C    -0.71637  -7.82853   9.26838
C    -0.35178  -5.46260   9.80203
N     0.28343  -4.72619  10.43601
C    -2.67507  -6.29142   9.51468
C    -3.22877  -4.92512   9.92340
C    -3.15942  -3.79144   8.89520
C    -3.74996  -4.13599   7.51723
C    -2.68940  -4.15380   6.35780
C    -2.13291  -2.72433   6.27014
C    -0.84329  -2.40561   6.71391
C    -0.38269  -1.08471   6.70936
C    -1.21147  -0.05212   6.26736
C    -2.51204  -0.35237   5.84746
C    -2.96814  -1.67158   5.85848
C    -3.36543  -4.65744   5.06443
C    -4.03320  -5.89363   5.09780
C    -4.63950  -6.42016   3.95769
C    -4.58439  -5.72414   2.74568
C    -3.91235  -4.50233   2.69386
C    -3.31092  -3.97462   3.84227
H     0.19216  -9.32132   3.67179
H     1.23627 -10.29544   4.74284
H     1.95126  -9.42771   3.35197
H     2.08955  -7.50495   4.62123
H     1.56199  -4.67622   6.13006
H    -0.70448  -3.44808   3.82630
H     0.81352  -4.09919   3.16964
H     0.82939  -3.14015   4.68205
H    -0.76544  -8.03002  10.34787
H    -1.38407  -8.52280   8.74445
H     0.30692  -8.00614   8.92733
H    -3.28617  -6.74414   8.71998
H    -2.75557  -6.95558  10.38817
H    -4.28246  -5.09189  10.20579
H    -2.71938  -4.59305  10.84340
H    -2.11430  -3.46625   8.78852
H    -3.68733  -2.92153   9.31614
H    -4.24245  -5.11613   7.55394
H    -4.52684  -3.41367   7.22816
H    -0.18762  -3.19640   7.07784
H     0.62994  -0.86695   7.05732
H    -0.85342   0.98003   6.25960
H    -3.17904   0.44621   5.51375
H    -3.99174  -1.88174   5.54417
H    -4.05792  -6.47134   6.02324
H    -5.14845  -7.38544   4.01420
H    -5.05549  -6.13531   1.84972
H    -3.85092  -3.94788   1.75423
H    -2.79572  -3.01840   3.76932
