39
Generated by autodE on: 2022-06-17. E = -623.450375 Ha
C    -1.58951   1.89988  -2.13611
C    -1.05415   1.51151  -0.96800
C    -0.69450   2.51134   0.09947
C    -0.77782   0.04445  -0.71321
C     0.43262  -0.28553   0.17499
C     1.75699  -0.00730  -0.46469
C     2.81952   0.61299   0.08156
C     2.85724   1.15985   1.48359
C     4.08966   0.81249  -0.70271
C     0.18366  -1.77392   0.46342
C     0.81369  -2.27932   1.74576
O    -1.24221  -1.92019   0.52424
C    -1.92234  -0.77015  -0.03900
C    -2.62575  -0.03980   1.10465
C    -2.93984  -1.26629  -1.05933
H    -1.81397   1.17887  -2.92808
H    -1.81521   2.95138  -2.33932
H    -1.01351   3.52514  -0.18335
H     0.39605   2.52828   0.26229
H    -1.14944   2.26227   1.06990
H    -0.60353  -0.43431  -1.69057
H     0.34032   0.25842   1.12528
H     1.85322  -0.37231  -1.49560
H     3.06208   2.24480   1.46895
H     3.68390   0.69798   2.05134
H     1.92797   0.99247   2.04286
H     4.33821   1.88606  -0.77909
H     4.01701   0.40080  -1.72039
H     4.94534   0.33418  -0.19385
H     0.56462  -2.36889  -0.39034
H     0.44511  -1.70277   2.60917
H     0.57909  -3.34280   1.90920
H     1.90874  -2.17325   1.69627
H    -3.19874   0.82402   0.73567
H    -1.90699   0.30911   1.85981
H    -3.32670  -0.73094   1.59786
H    -3.70032  -1.89685  -0.57240
H    -2.44338  -1.85814  -1.84328
H    -3.45235  -0.41703  -1.53642
