16
Generated by autodE on: 2022-06-17. E = -271.805676 Ha
C     2.61746   0.46103   0.16310
C     1.36692  -0.35079   0.16375
O     0.25957   0.32724  -0.17681
C    -0.99074  -0.01404  -0.03860
C    -1.28834  -1.32809   0.56213
C    -1.99255   0.87154  -0.69000
H     3.49853  -0.20102   0.15834
H     2.72754   1.13025   1.04572
H     2.67926   1.10306  -0.73261
H     1.22943  -1.18127   0.86174
H    -2.36872  -1.52058   0.59178
H    -0.87804  -1.41430   1.58906
H    -0.79054  -2.13599  -0.02027
H    -1.52045   1.81082  -1.01326
H    -2.82382   1.11365  -0.00481
H    -2.45062   0.39483  -1.58020
