16
Generated by autodE on: 2022-07-27. E = -271.805667 Ha
C     1.25792   0.60187   2.26886
C     0.90333   0.72124   0.82563
O    -0.11891  -0.05517   0.43390
C    -0.50624  -0.36162  -0.77246
C    -1.79643  -1.09296  -0.88521
C     0.24383   0.20882  -1.90742
H     0.35642   0.60286   2.90576
H     1.88270   1.45599   2.57666
H     1.82987  -0.31842   2.52366
H     1.66340   0.93833   0.07018
H    -2.60339  -0.45010  -1.29168
H    -2.11774  -1.45715   0.10160
H    -1.71282  -1.95623  -1.56842
H     1.31051  -0.09512  -1.89116
H    -0.19691  -0.08617  -2.86863
H     0.25519   1.32003  -1.83780
