59
Generated by autodE on: 2022-06-08. E = -1451.771715 Ha
C     6.53572  -1.20583   1.22348
N     5.27972  -1.23871   0.50370
C     4.34274  -0.27330   0.59450
O     4.47760   0.75957   1.27033
C     3.09222  -0.48967  -0.16226
C     2.42600  -1.61183  -0.48183
C     1.07539  -1.13853  -0.99266
O     1.41277   0.11525  -1.60478
C     2.13150   0.64912  -0.48730
C     1.04595   0.62547   0.63293
C     0.29243  -0.69376   0.28964
C    -1.21013  -0.32125   0.11106
C    -2.01823  -0.60336   1.39675
C    -1.41256  -0.67423   2.65984
C    -2.17854  -0.82591   3.82008
C    -3.56991  -0.90932   3.74104
C    -4.18861  -0.83695   2.48900
C    -3.41980  -0.68491   1.33380
C    -1.79617  -1.07643  -1.08282
C    -1.92302  -0.48579  -2.34535
C    -2.36668  -1.23386  -3.44170
C    -2.67864  -2.58690  -3.29327
C    -2.54458  -3.18813  -2.03664
C    -2.11055  -2.43760  -0.94297
N    -1.15987   1.13672  -0.15327
C    -2.40452   1.88769  -0.13721
C    -0.03508   1.75156   0.52020
C    -0.37676   2.24839   1.88067
N    -0.70956   2.62541   2.93993
C     0.53191   2.97499  -0.25218
O     1.17002   3.84596   0.34211
N     0.31458   2.95247  -1.56834
C     0.93578   3.90556  -2.46629
H     6.63231  -0.23338   1.72039
H     6.58199  -1.99860   1.98798
H     7.38346  -1.33983   0.53444
H     5.08270  -2.03860  -0.08915
H     2.70452  -2.64956  -0.29621
H     0.54114  -1.79301  -1.68505
H     2.58556   1.61891  -0.70920
H     1.51310   0.64099   1.62239
H     0.39473  -1.46580   1.05622
H    -0.33010  -0.60426   2.76327
H    -1.67871  -0.87872   4.79018
H    -4.16856  -1.03070   4.64689
H    -5.27657  -0.90006   2.40932
H    -3.91951  -0.63300   0.36586
H    -1.66739   0.56481  -2.47977
H    -2.46451  -0.75233  -4.41768
H    -3.02266  -3.17130  -4.14990
H    -2.77963  -4.24739  -1.90728
H    -2.00553  -2.91762   0.03196
H    -3.14395   1.39519  -0.78138
H    -2.84202   1.98822   0.87284
H    -2.22856   2.89652  -0.53663
H    -0.14030   2.11921  -1.93372
H     0.54053   3.75193  -3.47781
H     0.71494   4.93540  -2.14939
H     2.03148   3.78097  -2.48869
