39
Generated by autodE on: 2022-06-08. E = -936.052803 Ha
C     3.97436  -2.01653   0.95253
N     3.17372  -1.53575  -0.15358
C     2.20046  -0.59955   0.03160
O     1.83550  -0.27495   1.18016
C     1.62391  -0.01350  -1.17122
C     2.18725  -0.19962  -2.43679
N     2.67885  -0.37698  -3.48912
N     0.50568   0.83469  -1.03975
C     0.56572   2.12077  -1.75228
C    -0.50223   0.51030  -0.24121
C    -0.78806  -0.89672   0.09499
C    -0.72281  -1.90230  -0.88955
C    -1.06514  -3.21436  -0.57410
C    -1.45671  -3.54925   0.72940
C    -1.52137  -2.55811   1.71157
C    -1.19652  -1.23742   1.39569
C    -1.36330   1.55547   0.33802
C    -0.79143   2.68522   0.95304
C    -1.60703   3.65147   1.54063
C    -2.99825   3.50588   1.51570
C    -3.57313   2.38049   0.91444
C    -2.76233   1.40234   0.34030
H     3.32797  -2.32763   1.78556
H     4.55864  -2.88448   0.62039
H     4.67388  -1.25209   1.33605
H     3.51368  -1.70392  -1.09436
H    -0.42305   2.58795  -1.78291
H     1.29452   2.78801  -1.27372
H     0.89579   1.91609  -2.78009
H    -0.41875  -1.64950  -1.90603
H    -1.02904  -3.98302  -1.34935
H    -1.71516  -4.58205   0.97416
H    -1.82630  -2.81183   2.72921
H    -1.24345  -0.46465   2.16423
H     0.29425   2.78522   0.99460
H    -1.15454   4.51848   2.02683
H    -3.63538   4.26612   1.97337
H    -4.65876   2.26258   0.89730
H    -3.20911   0.52109  -0.12302
