39
Generated by autodE on: 2022-07-27. E = -936.049985 Ha
C     2.14031   4.80167   0.83270
N     2.19388   3.38089   0.57147
C     1.23078   2.70967  -0.12177
O     0.29046   3.30978  -0.68801
C     1.34624   1.26062  -0.15443
C     2.11421   0.55779   0.77842
N     2.77131  -0.01553   1.56562
N     0.46145   0.51132  -0.97604
C     0.49018   0.83229  -2.41291
C    -0.27769  -0.46980  -0.47974
C    -0.59092  -0.50158   0.96266
C    -0.49725  -1.70199   1.68393
C    -0.84290  -1.73747   3.03749
C    -1.30123  -0.58174   3.67266
C    -1.41078   0.61678   2.95242
C    -1.04927   0.66352   1.60994
C    -0.80446  -1.54967  -1.32896
C     0.00078  -2.17777  -2.29914
C    -0.50879  -3.22913  -3.05948
C    -1.82686  -3.65926  -2.87227
C    -2.63187  -3.04476  -1.90680
C    -2.12216  -2.00681  -1.12885
H     1.29180   5.22849   0.28518
H     3.06116   5.30480   0.49616
H     2.00761   5.01527   1.90699
H     2.93599   2.84467   1.00813
H     1.39226   0.41112  -2.87523
H     0.51415   1.92358  -2.49685
H    -0.40814   0.44828  -2.90695
H    -0.14289  -2.60532   1.18448
H    -0.75582  -2.67310   3.59405
H    -1.57893  -0.61077   4.72875
H    -1.78377   1.51825   3.44352
H    -1.13360   1.59507   1.04765
H     1.03487  -1.86102  -2.43848
H     0.12816  -3.71877  -3.79926
H    -2.22459  -4.47950  -3.47417
H    -3.66034  -3.37968  -1.75605
H    -2.74767  -1.53225  -0.37121
