20
Generated by autodE on: 2022-06-08. E = -515.641434 Ha
C     3.79522   0.22789   0.24054
N     2.43137   0.48163  -0.17745
C     1.41510  -0.31635   0.20661
O     1.59205  -1.32426   0.91100
C     0.05862   0.05318  -0.23852
C    -0.48279   1.22202  -0.61319
C    -1.99465   0.93250  -0.73522
C    -2.52379   0.70076   0.70087
C    -1.98957  -0.46423   1.07797
C    -1.14124  -0.92041  -0.13058
O    -1.94973  -0.42596  -1.21467
H     3.89354   0.26502   1.33758
H     4.13754  -0.76492  -0.09330
H     4.44910   0.99156  -0.19753
H     2.23522   1.27890  -0.77268
H    -0.01653   2.20083  -0.72462
H    -2.57892   1.58718  -1.39067
H    -3.14280   1.40140   1.26019
H    -2.05147  -0.98666   2.03190
H    -0.91863  -1.98798  -0.22362
