59
Generated by autodE on: 2022-06-08. E = -1451.666503 Ha. Imaginary frequency = -297.7 cm-1
C     5.75783  -1.63127  -0.94766
N     5.60404  -0.35794  -0.27067
C     4.46514   0.32768  -0.04042
O     4.47351   1.42102   0.55638
C     3.17202  -0.20695  -0.50507
C     2.66076  -1.44219  -0.65767
C     1.14814  -1.22730  -0.86423
O     1.16294   0.02136  -1.58019
C     1.94960   0.73344  -0.61325
C     1.12681   0.49263   0.66432
C     0.57087  -0.76164   0.48435
C    -1.77720  -0.22823   0.03147
C    -2.32989  -0.45422   1.40651
C    -2.03340  -1.58300   2.18696
C    -2.67306  -1.79310   3.40879
C    -3.64054  -0.89112   3.86478
C    -3.97731   0.21224   3.07639
C    -3.33304   0.42360   1.85725
C    -2.23162  -1.20168  -0.99634
C    -1.63276  -1.27648  -2.27402
C    -2.04878  -2.22012  -3.21106
C    -3.07597  -3.11882  -2.90529
C    -3.68477  -3.05787  -1.64909
C    -3.26956  -2.11480  -0.70845
N    -1.51323   1.07005  -0.33532
C    -1.95739   1.58239  -1.64916
C    -0.74774   1.91046   0.46754
C    -0.86936   1.89835   1.88383
N    -0.84083   2.00003   3.04759
C    -0.04821   3.09717  -0.10261
O     0.19861   3.21575  -1.31271
N     0.39136   4.01791   0.78884
C     1.30377   5.06907   0.38654
H     6.80729  -1.73964  -1.25034
H     5.49784  -2.48646  -0.30246
H     5.13309  -1.67515  -1.85048
H     6.43744   0.07514   0.11908
H     3.13788  -2.41474  -0.55713
H     0.61342  -2.01147  -1.40811
H     2.14570   1.76301  -0.92013
H     1.39064   0.95689   1.61206
H     0.32715  -1.45248   1.28439
H    -1.31104  -2.31747   1.83233
H    -2.41813  -2.67163   4.00599
H    -4.13817  -1.05635   4.82320
H    -4.74697   0.91237   3.40944
H    -3.60696   1.28441   1.24423
H    -0.82498  -0.59762  -2.53272
H    -1.56090  -2.25586  -4.18786
H    -3.39992  -3.85846  -3.64105
H    -4.49555  -3.74545  -1.39750
H    -3.77125  -2.07956   0.25738
H    -2.83877   1.01248  -1.95729
H    -2.24631   2.63113  -1.52713
H    -1.17996   1.52076  -2.41479
H     0.22964   3.87575   1.77948
H     2.29823   4.66977   0.12200
H     0.91331   5.61287  -0.48567
H     1.42002   5.77401   1.21913
