21
Generated by autodE on: 2022-06-11. E = -512.804355 Ha
C     3.19657   0.91044   0.28944
C     2.44886  -0.33054  -0.05978
C     3.08693  -1.54996  -0.36341
N     3.64696  -2.54840  -0.60369
N     1.11278  -0.31352  -0.10679
N     0.39290   0.74072   0.10427
C    -0.98812   0.56174   0.11086
C    -1.76171   1.74124   0.04597
C    -3.15290   1.68365   0.04458
C    -3.81083   0.44932   0.11529
C    -3.05413  -0.72478   0.19749
C    -1.65958  -0.67910   0.20346
H     4.27579   0.71653   0.31894
H     2.86771   1.29253   1.27088
H     2.99277   1.70578  -0.44828
H     0.65947  -1.20898  -0.34342
H    -1.23967   2.69840  -0.01297
H    -3.73016   2.60967  -0.01300
H    -4.90195   0.40325   0.11615
H    -3.55504  -1.69313   0.27219
H    -1.11072  -1.61832   0.30571
