43
Generated by autodE on: 2022-06-11. E = -1148.806437 Ha
C    -0.71597   4.48656  -1.50034
O    -0.76264   3.09647  -1.13293
C    -1.08803   2.23358  -2.09048
O    -1.34114   2.54415  -3.23394
C    -1.14921   0.78786  -1.58327
C    -2.68193   0.49270  -1.40632
C    -3.28803   0.82432  -0.07765
O    -3.31081   0.03595  -2.33553
C    -0.43024   0.54848  -0.33890
C     0.21096  -0.07395   0.47744
C     1.00433  -1.16619   1.02870
C     0.57489  -1.61796   2.42868
O     1.32413  -2.18824   3.19259
O    -0.70542  -1.36925   2.67250
C    -1.23111  -1.83273   3.92979
C     2.48788  -0.76402   1.12726
O     3.40468  -1.38960   0.64737
O     2.62599   0.36378   1.81800
C     3.96524   0.85069   2.01043
C     0.81268  -2.37712   0.05710
C     0.92176  -2.05143  -1.44689
C    -0.37093  -1.63469  -2.20506
C    -0.53131  -0.16613  -2.64559
H    -0.43607   5.02780  -0.58974
H     0.03447   4.64581  -2.28735
H    -1.70173   4.81788  -1.85630
H    -2.96144   1.82300   0.25173
H    -2.91897   0.10560   0.67212
H    -4.38232   0.76963  -0.13721
H    -0.69091  -1.36159   4.76272
H    -2.28553  -1.53587   3.94042
H    -1.13880  -2.92575   3.99880
H     4.43988   1.05114   1.03951
H     3.86809   1.77732   2.58693
H     4.56005   0.11318   2.56782
H     1.56592  -3.12620   0.33866
H    -0.17643  -2.81179   0.26737
H     1.28855  -2.97545  -1.91933
H     1.71634  -1.30584  -1.61162
H    -1.25886  -1.95115  -1.63266
H    -0.40119  -2.22432  -3.13416
H     0.44631   0.24439  -2.94161
H    -1.18559  -0.11368  -3.52578
