64
Generated by autodE on: 2022-06-11. E = -1661.591447 Ha. Imaginary frequency = -339.4 cm-1
C    -7.02763 -10.50858  13.97964
O    -6.52875 -11.16192  12.80294
C    -7.08318 -12.32764  12.47620
O    -7.92969 -12.88064  13.14403
C    -6.49766 -12.92783  11.19541
C    -7.63890 -13.26090  10.18638
C    -7.24178 -14.05486   8.97098
O    -8.79178 -12.94656  10.40314
C    -5.83063 -14.28272  11.60473
C    -4.76542 -14.23111  12.70855
C    -3.29821 -14.03968  12.29479
C    -2.77760 -12.61411  12.07384
C    -2.91130 -12.01253  10.63679
C    -2.33731 -13.02426   9.63094
O    -2.99029 -13.58352   8.77609
O    -1.05194 -13.26645   9.85689
C    -0.40905 -14.21682   8.99119
C    -2.09675 -10.70623  10.59529
O    -1.27643 -10.42251   9.75008
O    -2.42734  -9.90830  11.60591
C    -1.72744  -8.65744  11.71551
C    -4.32943 -11.74828  10.28679
C    -5.51048 -12.04923  10.53977
N    -6.73106 -11.04437   8.93679
C    -7.34884  -9.82817   9.25944
C    -8.13467  -9.71440  10.42475
C    -8.81953  -8.53445  10.70921
C    -8.76731  -7.44264   9.83507
C    -8.03317  -7.56384   8.65162
C    -7.33904  -8.73752   8.35860
N    -5.71169 -11.01130   8.09687
C    -4.51896 -10.42155   8.37376
C    -4.38546  -9.07721   9.03318
C    -3.48079 -10.78411   7.45026
N    -2.61497 -11.06856   6.72708
H    -8.09716 -10.28252  13.86224
H    -6.45132  -9.58159  14.07471
H    -6.87919 -11.14526  14.86317
H    -7.37230 -15.12498   9.20480
H    -6.19305 -13.89893   8.68630
H    -7.91248 -13.80149   8.14004
H    -5.40161 -14.74048  10.70321
H    -6.65557 -14.92894  11.94079
H    -4.81784 -15.20583  13.21842
H    -5.03017 -13.48644  13.47843
H    -3.07624 -14.68189  11.42530
H    -2.69034 -14.44920  13.11676
H    -3.27596 -11.91959  12.76346
H    -1.70420 -12.59525  12.31388
H    -0.46527 -13.87402   7.94839
H     0.63416 -14.26723   9.32226
H    -0.88897 -15.20134   9.08376
H    -1.92989  -8.02565  10.83924
H    -0.64637  -8.83469  11.80164
H    -2.11117  -8.17980  12.62381
H    -8.22075 -10.55369  11.10545
H    -9.40747  -8.47410  11.62850
H    -9.30499  -6.52017  10.06418
H    -8.00137  -6.73672   7.93780
H    -6.80147  -8.82880   7.41444
H    -5.62118 -11.88005   7.56291
H    -4.93156  -9.02864   9.97991
H    -4.77027  -8.29206   8.36171
H    -3.32560  -8.86651   9.20984
