16
Generated by autodE on: 2022-05-29. E = -563.553542 Ha
C    -3.42573  -0.61596   0.42210
C    -2.20826   0.22770   0.61554
O    -2.19954   1.30569   1.19723
C    -0.91752  -0.27237   0.06217
C    -0.80894  -1.50085  -0.62719
N    -0.78838  -2.52248  -1.18686
N     0.10925   0.54808   0.27599
C     1.41285   0.51678  -0.03457
C     2.23212   1.60644   0.35967
N     2.92293   2.48972   0.67440
C     2.00998  -0.55844  -0.74049
N     2.55051  -1.41388  -1.31677
H    -3.60482  -0.77183  -0.65444
H    -4.29395  -0.12855   0.88140
H    -3.26818  -1.61059   0.87033
H    -0.21931   1.38250   0.80088
