20
Generated by autodE on: 2022-05-29. E = -610.059757 Ha
F     2.34652  -0.60513  -0.36718
C     1.45925   0.03829   0.42694
F     1.78034  -0.26544   1.69792
F     1.70783   1.36129   0.26200
C     0.05853  -0.30314   0.08789
C    -0.90202  -0.72798   0.92569
C    -2.19755  -0.73976   0.13854
C    -2.56820   0.76726  -0.08026
C    -1.45617   1.26505  -1.04755
C    -0.58296  -0.01358  -1.26086
C    -1.67290  -1.10665  -1.26815
H    -0.80528  -0.91422   1.99636
H    -3.00781  -1.35008   0.55591
H    -3.56448   0.84168  -0.54080
H    -2.59414   1.32190   0.86851
H    -1.87871   1.59473  -2.00820
H    -0.86264   2.09309  -0.63610
H     0.10253   0.03149  -2.11608
H    -2.42245  -0.96631  -2.06192
H    -1.25910  -2.12453  -1.32005
