36
Generated by autodE on: 2022-05-29. E = -1173.590237 Ha. Imaginary frequency = -312.8 cm-1
C     3.42811  -1.43038   0.53809
C     2.59572  -0.19740   0.34530
O     2.56239   0.71915   1.14542
C     1.79574  -0.10054  -0.91846
C     2.25841  -0.86822  -2.03356
N     2.61055  -1.52690  -2.92495
N     1.11721   1.04159  -1.25363
C     0.21117   1.70767  -0.46054
C    -0.85045   2.36716  -1.15929
N    -1.74967   2.86196  -1.70687
C     0.54375   2.37959   0.76262
N     0.66391   3.06402   1.69503
C    -0.89943  -0.34602   0.24860
C    -1.15709   0.01503   1.68032
F    -1.86788   1.15411   1.80019
F    -1.87521  -0.94015   2.32297
F    -0.02465   0.15807   2.39001
C    -2.05508  -0.51772  -0.73759
C    -2.76284  -1.86373  -0.37291
C    -1.66774  -2.92594  -0.67101
C    -0.50436  -2.07548  -1.27860
C    -1.30268  -0.97587  -2.00484
C     0.06617  -1.31202  -0.09435
H     2.90959  -2.34032   0.20438
H     4.34286  -1.32919  -0.07066
H     3.71132  -1.51299   1.59490
H     0.87841   1.09153  -2.24460
H    -2.73110   0.34022  -0.82614
H    -3.12991  -1.89172   0.65839
H    -3.62649  -1.98558  -1.04240
H    -2.00865  -3.66613  -1.40922
H    -1.34485  -3.46986   0.22834
H     0.21856  -2.65300  -1.86528
H    -1.98855  -1.38379  -2.76036
H    -0.68941  -0.20918  -2.48972
H     0.66948  -1.81203   0.66524
