52
Generated by autodE on: 2022-06-04. E = -1396.782457 Ha
C     4.64037  -0.98960   1.24324
O     3.40025  -0.26587   1.13543
C     2.43906  -0.58455   1.98368
O     2.51912  -1.39516   2.87777
C     1.16744   0.15981   1.65663
O     0.26060   0.13901   2.75609
C    -0.74404   0.89593   2.13990
C    -1.78445   1.20271   3.12358
N    -2.60293   1.40336   3.91689
O    -0.03509   2.10502   1.75478
C     1.24045   1.68735   1.47717
O     2.13280   2.42683   1.19066
C    -1.14600   0.11248   0.83883
C    -1.92627   0.98017  -0.14266
C    -2.66866   2.09157   0.29045
C    -3.42068   2.86171  -0.60169
C    -3.45373   2.53892  -1.95853
C    -2.72587   1.43483  -2.40869
C    -1.97596   0.67001  -1.51478
C    -1.90777  -1.21557   1.21390
C    -2.23072  -2.01316  -0.06431
C    -0.82105  -2.46809  -0.54717
C     0.11868  -1.98343   0.58968
C    -0.82177  -2.14251   1.79579
C     0.32617  -0.43941   0.43824
C     1.00746  -0.02358  -0.86202
C     1.83731  -0.93992  -1.53177
C     2.53716  -0.57663  -2.68397
C     2.43018   0.71951  -3.19422
C     1.62393   1.64732  -2.53190
C     0.92550   1.28037  -1.37974
H     4.45812  -2.06522   1.11222
H     5.10114  -0.80474   2.22330
H     5.27780  -0.60685   0.43913
H    -2.68257   2.39162   1.33630
H    -3.98134   3.71976  -0.22399
H    -4.03831   3.14085  -2.65799
H    -2.73320   1.16421  -3.46694
H    -1.40781  -0.16697  -1.91118
H    -2.78371  -1.00903   1.84363
H    -2.79411  -1.45074  -0.81583
H    -2.84784  -2.87733   0.21911
H    -0.55472  -2.05581  -1.52864
H    -0.75732  -3.56210  -0.62905
H     1.06268  -2.53669   0.65150
H    -0.40352  -1.86212   2.76138
H    -1.19173  -3.17568   1.86628
H     1.95387  -1.95304  -1.14989
H     3.17170  -1.31369  -3.18145
H     2.97463   1.00513  -4.09724
H     1.53198   2.66768  -2.91079
H     0.30306   2.03133  -0.89799
