52
Generated by autodE on: 2022-06-04. E = -1396.730952 Ha. Imaginary frequency = -225.5 cm-1
C     4.68714  -1.07149   1.16407
O     3.66121  -0.08557   1.34461
C     2.64757  -0.41191   2.15659
O     2.56579  -1.46096   2.77600
C     1.62623   0.61042   2.14031
O     0.48220   0.41717   2.86625
C    -0.43471   1.22467   2.32313
C    -1.60777   1.44407   3.11867
N    -2.57435   1.55994   3.75040
O     0.16743   2.25666   1.70640
C     1.53769   1.85957   1.47182
O     2.27097   2.55374   0.81455
C    -1.18367   0.08290   0.56757
C    -1.89028   1.07755  -0.31088
C    -2.52238   2.23936   0.15787
C    -3.22780   3.07857  -0.71037
C    -3.33250   2.76724  -2.06689
C    -2.72639   1.60285  -2.54847
C    -2.01613   0.77245  -1.68256
C    -2.04628  -1.03237   1.20777
C    -2.44286  -2.00049   0.05359
C    -1.08310  -2.64420  -0.33523
C    -0.08001  -1.99480   0.69093
C    -0.99746  -1.89513   1.92204
C     0.02840  -0.56900   0.18277
C     1.00441  -0.18840  -0.83644
C     1.97346  -1.13158  -1.25419
C     2.92718  -0.80822  -2.21570
C     2.94579   0.46817  -2.78791
C     2.00335   1.41831  -2.38179
C     1.04606   1.09859  -1.42308
H     5.37240  -0.65575   0.41687
H     5.21802  -1.25056   2.11038
H     4.25593  -2.01423   0.79983
H    -2.47807   2.52088   1.20723
H    -3.69952   3.98102  -0.31491
H    -3.88463   3.42357  -2.74348
H    -2.80385   1.33810  -3.60558
H    -1.54016  -0.12487  -2.07871
H    -2.89296  -0.65549   1.79464
H    -2.93445  -1.48708  -0.78196
H    -3.14452  -2.75165   0.44346
H    -0.79249  -2.44917  -1.37655
H    -1.08406  -3.73309  -0.18191
H     0.86018  -2.53924   0.81565
H    -0.53221  -1.44785   2.80104
H    -1.39638  -2.88098   2.20074
H     1.98347  -2.12951  -0.81867
H     3.66241  -1.55695  -2.51835
H     3.69437   0.72275  -3.54157
H     2.01651   2.42235  -2.81136
H     0.33664   1.86151  -1.11403
