29
Generated by autodE on: 2022-06-25. E = -762.889386 Ha
C    -4.01969   1.07187   0.33969
C    -2.51609   0.96889   0.28428
O    -1.83733   1.99924   0.40093
C    -1.84627  -0.31401   0.13160
N    -0.47803  -0.35610   0.03667
C     0.48400   0.47419  -0.32980
C     0.20469   1.67205  -1.05245
N     0.12135   2.60185  -1.74822
C     1.88946   0.10535  -0.11715
C     2.23914  -0.88390   0.82646
C     3.57248  -1.24738   1.00192
C     4.57944  -0.62251   0.25783
C     4.24377   0.37336  -0.66524
C     2.91228   0.73798  -0.85295
C    -2.36612  -1.67259   0.33154
C    -3.82911  -1.96125   0.51669
O    -1.55267  -2.61256   0.35274
H    -4.49710   0.54092  -0.49523
H    -4.28392   2.13642   0.29936
H    -4.41155   0.64874   1.27671
H    -0.17206  -1.31950   0.27003
H     1.47598  -1.35428   1.45000
H     3.82835  -2.01223   1.73807
H     5.62431  -0.90431   0.40494
H     5.02424   0.86845  -1.24680
H     2.66137   1.50810  -1.58380
H    -3.95510  -3.04742   0.60748
H    -4.41866  -1.59512  -0.33569
H    -4.21896  -1.47565   1.42320
