26
Generated by autodE on: 2022-06-25. E = -689.460825 Ha
C    -2.67296   1.67743   0.79325
O    -2.01969   1.17573  -0.37757
C    -0.83132   0.53507  -0.17339
C    -0.67783  -0.81094  -0.32384
O    -1.59011  -1.73395  -0.62664
C    -2.98328  -1.43169  -0.75479
C     0.68501  -1.43173  -0.16450
O     0.80394  -2.64004  -0.31529
C     1.84449  -0.57148   0.18437
C     3.17590  -1.23528   0.35534
C     1.67852   0.76544   0.33987
C     2.81680   1.66997   0.69206
C     0.33477   1.38819   0.14026
O     0.18907   2.60661   0.22214
H    -3.60923   2.14062   0.45468
H    -2.05652   2.43129   1.30453
H    -2.90370   0.85552   1.49123
H    -3.46890  -2.39320  -0.96446
H    -3.16268  -0.73469  -1.58328
H    -3.38282  -1.01557   0.18112
H     3.91592  -0.81129  -0.34317
H     3.10599  -2.31556   0.18206
H     3.56838  -1.06478   1.37147
H     3.27228   1.36720   1.64944
H     2.48611   2.71213   0.77038
H     3.61379   1.60666  -0.06741
