55
Generated by autodE on: 2022-06-25. E = -1452.315888 Ha. Imaginary frequency = -409.7 cm-1
C    -3.63351   0.43471  -1.58202
O    -2.60379   1.13193  -0.88023
C    -1.52041   0.37117  -0.45131
C    -1.86014  -0.58104   0.66326
O    -2.91702  -0.46094   1.26911
C    -0.93793  -1.70932   0.93730
C    -1.03863  -2.37961   2.27170
C    -0.12704  -2.16735  -0.05171
C     0.68137  -3.41462   0.11550
C    -0.02579  -1.46282  -1.37014
O     0.64170  -1.96066  -2.28794
C    -0.70251  -0.18251  -1.50741
O    -0.81803   0.47310  -2.68258
C    -0.82090  -0.21330  -3.94145
C     1.46796   0.90148  -0.84721
C     1.92527   1.06660  -2.19626
N     2.23246   1.20638  -3.30930
C     2.21485  -0.06150  -0.03051
C     3.24817  -0.79867  -0.65955
C     3.99799  -1.73721   0.04349
C     3.74287  -1.97514   1.39684
C     2.71232  -1.27464   2.02975
C     1.95352  -0.34220   1.32739
N     0.66690   1.94625  -0.46364
C    -0.44130   1.89484   0.36745
C    -1.35981   3.08199   0.03590
C    -2.49386   3.37648   0.96486
O    -1.10885   3.75269  -0.95036
C    -0.21535   1.79820   1.87276
C     0.92070   2.63568   2.39853
O    -0.97750   1.20229   2.60812
H    -4.36503   1.19560  -1.88560
H    -3.24517  -0.06786  -2.48064
H    -4.12885  -0.30357  -0.93337
H    -0.04274  -2.45128   2.73837
H    -1.41656  -3.41115   2.17232
H    -1.70852  -1.82908   2.94329
H     1.35875  -3.56489  -0.73220
H     1.26905  -3.38136   1.04448
H     0.01703  -4.29261   0.19088
H    -1.23163   0.50636  -4.66205
H     0.18965  -0.50904  -4.24336
H    -1.47213  -1.09904  -3.89977
H     3.47670  -0.62583  -1.71113
H     4.79246  -2.28104  -0.47161
H     4.33639  -2.70488   1.95144
H     2.48421  -1.45912   3.08123
H     1.14179   0.13580   1.85744
H     0.45806   2.59557  -1.23464
H    -2.94997   2.45663   1.34840
H    -3.23637   3.99774   0.44849
H    -2.09581   3.94217   1.82523
H     1.85275   2.46228   1.84399
H     1.05895   2.43945   3.46937
H     0.65344   3.69656   2.24909
