29
Generated by autodE on: 2022-05-26. E = -895.443251 Ha
C     4.66881  -0.00207  -0.33865
N     3.31002   0.47151  -0.16587
C     2.30074  -0.38733   0.05693
O     2.42120  -1.61430   0.11104
N     1.04599   0.19834   0.24877
N     0.85061   1.55375   0.08083
C    -0.40382   1.81924   0.07105
C    -0.96879   3.18466  -0.05579
C    -1.26016   0.56870   0.19953
C    -2.17002   0.63125   1.32844
N    -2.90727   0.69946   2.22162
C    -1.96486   0.13585  -1.16813
C    -2.73696  -1.13521  -0.86913
C    -1.80992  -2.09529  -0.74837
C    -0.48021  -1.40589  -0.98490
O    -0.82621  -0.34158  -1.87890
C    -0.17303  -0.56263   0.29601
F    -0.24867  -1.31935   1.43762
H     5.02441  -0.54345   0.55252
H     5.32209   0.86263  -0.50634
H     4.75293  -0.67869  -1.20382
H     3.09914   1.46322  -0.20308
H    -0.16528   3.92717  -0.14532
H    -1.62255   3.24630  -0.94128
H    -1.58922   3.42651   0.82302
H    -2.46710   0.95843  -1.68585
H    -3.81124  -1.18907  -0.69740
H    -1.93462  -3.13753  -0.45807
H     0.36712  -1.99348  -1.34716
