14
Generated by autodE on: 2022-05-26. E = -499.075703 Ha
N     3.23723   0.42724  -0.39110
C     2.07695   0.32901  -0.32221
C     0.67838   0.23522  -0.23383
C    -0.14368  -0.78435  -0.54199
F     0.14227  -1.97326  -1.01743
C    -1.56389  -0.35832  -0.13541
C    -1.58132  -0.31529   1.40966
C    -0.79881   0.71918   1.72895
C    -0.30684   1.28412   0.37927
O    -1.46054   1.04031  -0.44424
H    -2.38695  -0.85978  -0.65459
H    -2.09458  -1.03373   2.04691
H    -0.49543   1.08959   2.70720
H     0.02632   2.32541   0.34257
