29
Generated by autodE on: 2022-05-26. E = -895.327200 Ha. Imaginary frequency = -330.5 cm-1
C     4.06210  -1.29453  -0.26762
N     3.00343  -0.67020   0.49894
C     2.37294   0.44105   0.04835
O     2.77690   1.12423  -0.89580
N     1.21648   0.71861   0.79484
N     0.57187   1.76625   0.41930
C    -0.48504   2.23207   0.15867
C    -1.45883   3.29140  -0.03249
C    -1.51626   0.00703   0.22306
C    -2.56299   0.37197   1.08692
N    -3.43805   0.70329   1.78645
C    -1.65646  -0.23670  -1.31140
C    -2.16019  -1.68150  -1.48768
C    -1.13184  -2.45797  -1.12904
C    -0.00410  -1.47535  -0.75700
O    -0.26838  -0.39084  -1.65639
C    -0.43067  -0.78853   0.55400
F    -0.23759  -1.37821   1.72648
H     3.68561  -1.76927  -1.19085
H     4.81747  -0.54864  -0.55228
H     4.54497  -2.06342   0.34889
H     2.52939  -1.21814   1.20991
H    -0.95069   4.26866  -0.02829
H    -1.99474   3.15423  -0.98325
H    -2.19047   3.26229   0.79050
H    -2.14205   0.55734  -1.88681
H    -3.17141  -1.95964  -1.78230
H    -1.06801  -3.54197  -1.04618
H     1.02658  -1.83635  -0.81394
