16
Generated by autodE on: 2022-07-27. E = -546.541595 Ha
C     2.59213   2.24148  -1.08729
O     2.05530   0.93402  -0.84329
C     0.81498   0.87897  -0.33879
O     0.14375   1.86847  -0.08070
C     0.37460  -0.49479  -0.14023
C     1.21414  -1.58345  -0.46398
N     1.90967  -2.48154  -0.73157
N    -0.85984  -0.77720   0.36236
C    -1.83685   0.02749   0.74012
C    -3.04295  -0.51379   1.23166
N    -4.05460  -0.92324   1.64306
H     3.59841   2.08166  -1.49089
H     1.97168   2.78247  -1.81644
H     2.64488   2.81753  -0.15215
H    -1.05223  -1.78141   0.45671
H    -1.69674   1.10456   0.66484
