16
Generated by autodE on: 2022-06-01. E = -546.543746 Ha
C    -3.17184   0.24323   1.31502
O    -1.79349   0.17451   0.92082
C    -1.54093  -0.10642  -0.36660
O    -2.40095  -0.30619  -1.20758
C    -0.10907  -0.14423  -0.64427
C     0.34548  -0.41903  -1.94915
N     0.73722  -0.64531  -3.02462
N     0.77289   0.08778   0.35880
C     2.09110   0.10193   0.33645
C     2.82197   0.37357   1.51000
N     3.45341   0.59610   2.46539
H    -3.69171   1.03141   0.75182
H    -3.16697   0.48077   2.38471
H    -3.66813  -0.72221   1.14098
H     0.31096   0.27784   1.25871
H     2.61704  -0.09818  -0.59959
