26
Generated by autodE on: 2022-06-01. E = -875.881635 Ha
F     0.25884   1.86522  -1.29357
C     1.07641   1.69875  -0.23401
F     0.72164   2.64407   0.66943
F     2.32096   2.01544  -0.64922
C     1.04527   0.32350   0.32223
C     0.04785  -0.58008   0.40076
C    -1.37221  -0.53236   0.07076
C    -2.11989   0.65935   0.16565
C    -3.47238   0.67363  -0.17000
C    -4.10522  -0.49669  -0.60547
C    -3.37750  -1.68739  -0.69215
C    -2.02549  -1.70938  -0.34746
C     0.77694  -1.87959   0.86846
C     1.65394  -2.35358  -0.30851
C     2.63283  -1.44748  -0.38853
C     2.32851  -0.43816   0.74142
O     1.77086  -1.31158   1.73414
H    -1.64521   1.57137   0.52885
H    -4.03990   1.60314  -0.08461
H    -5.16564  -0.48136  -0.86748
H    -3.86588  -2.60576  -1.02583
H    -1.46676  -2.64462  -0.42125
H     0.15688  -2.62370   1.37809
H     1.43690  -3.21073  -0.94462
H     3.44510  -1.35328  -1.10826
H     3.15813   0.16288   1.12714
