40
Generated by autodE on: 2022-06-17. E = -939.383531 Ha
C     3.29599  -2.89022   0.29180
O     3.03868  -1.50222   0.02974
C     1.81582  -1.05064   0.31113
O     0.95263  -1.75343   0.80347
C     1.60353   0.41805  -0.08248
C     2.89774   1.22155   0.02604
N     0.54354   1.02118   0.72661
C    -0.77333   0.72117   0.17224
C    -1.64918   1.99372   0.08150
C    -0.96391   3.30152  -0.18245
O    -2.85791   1.91100   0.22415
C    -1.53981  -0.24719   1.08011
O    -1.40623  -0.26358   2.28728
O    -2.38974  -1.03049   0.42392
C    -3.18178  -1.93228   1.21263
C    -0.49902   0.13473  -1.25775
C    -1.44703   0.58000  -2.36481
C     0.98254   0.46176  -1.50670
C     1.64170  -0.42359  -2.55551
H     4.33734  -3.06509  -0.00182
H     2.62083  -3.52241  -0.30279
H     3.15847  -3.11134   1.35979
H     3.67001   0.83300  -0.65111
H     3.29514   1.19051   1.05232
H     2.69075   2.26865  -0.23634
H     0.59290   0.75656   1.70855
H    -0.49435   3.64695   0.75240
H    -1.70534   4.04207  -0.51032
H    -0.15731   3.19742  -0.92089
H    -2.53185  -2.62393   1.76730
H    -3.80751  -2.48454   0.50239
H    -3.80971  -1.37044   1.91882
H    -0.58414  -0.95596  -1.16171
H    -2.48992   0.34208  -2.11055
H    -1.20206   0.05638  -3.30102
H    -1.37825   1.66144  -2.56003
H     1.06418   1.51334  -1.82803
H     1.18492  -0.25053  -3.54151
H     1.52397  -1.49316  -2.31781
H     2.71705  -0.20759  -2.64418
