12
Generated by autodE on: 2022-06-17. E = -157.300302 Ha
C     1.95445   0.16031   0.11074
C     0.49169   0.45385  -0.03086
C    -0.49169  -0.45384   0.03088
C    -1.95445  -0.16032  -0.11075
H     2.39422   0.71642   0.95778
H     2.14179  -0.91303   0.27180
H     2.51501   0.47596  -0.78713
H     0.22220   1.50628  -0.19742
H    -0.22220  -1.50627   0.19743
H    -2.51503  -0.47602   0.78709
H    -2.39420  -0.71638  -0.95783
H    -2.14181   0.91303  -0.27176
