28
Generated by autodE on: 2022-06-17. E = -782.029609 Ha
C     3.21814   2.29875  -0.42080
O     2.73102   1.17918   0.33914
C     1.90678   0.35083  -0.28973
O     1.60313   0.42488  -1.46183
C     1.51295  -0.80557   0.57666
C     2.58206  -1.53308   1.31383
N     0.28914  -1.24470   0.58143
C    -0.92227  -0.75041   0.11018
C    -1.93834  -1.78274   0.10733
C    -3.36211  -1.49271  -0.29126
O    -1.62174  -2.93968   0.45417
C    -1.08431   0.67899  -0.01991
O    -0.24901   1.50916   0.34029
O    -2.26059   1.05533  -0.55531
C    -2.50772   2.46247  -0.63437
H     2.37452   2.92056  -0.75239
H     3.78762   1.94962  -1.29365
H     3.86641   2.86371   0.25808
H     2.97831  -0.88894   2.11661
H     2.19715  -2.46097   1.75926
H     3.42397  -1.76528   0.64213
H     0.13220  -2.18255   0.98929
H    -3.93836  -2.42422  -0.21618
H    -3.41113  -1.10565  -1.31923
H    -3.80685  -0.72580   0.35957
H    -3.49818   2.56822  -1.09286
H    -2.50620   2.91808   0.36683
H    -1.74856   2.95721  -1.25773
