39
Generated by autodE on: 2022-05-29. E = -1101.580420 Ha
C     3.63367   2.34406  -0.25094
N     2.78807   1.19340  -0.50683
C     1.70988   0.88579   0.23322
O     1.35356   1.53892   1.22109
C     0.94464  -0.38099  -0.13187
C     1.14904  -1.41721   1.04306
C     2.30704  -2.38196   0.88765
N    -0.12716  -2.12028   1.23243
C    -1.12982  -1.07686   1.02728
C    -2.46539  -1.64596   0.78866
N    -3.50733  -2.10974   0.58668
C    -1.21013  -0.28855   2.28484
N    -1.22747   0.25226   3.30886
C    -0.61665  -0.18761  -0.18401
C    -1.24590   1.19026  -0.12080
O    -2.29284   1.39123   0.46540
O    -0.59509   2.11464  -0.80584
C    -1.13962   3.44427  -0.79867
C    -0.93023  -0.88708  -1.58695
C    -0.43455   0.04047  -2.68112
C     0.89864  -0.06075  -2.64695
C     1.20034  -1.05156  -1.53506
O     0.05536  -1.91991  -1.59910
H     3.62669   3.03162  -1.11086
H     3.25497   2.87240   0.63110
H     4.67192   2.03069  -0.06262
H     3.03546   0.60313  -1.29272
H     1.31701  -0.81160   1.94479
H     3.23861  -1.83225   0.69032
H     2.14005  -3.09517   0.06675
H     2.43880  -2.95622   1.81625
H    -0.23633  -2.78862   0.46588
H    -0.47342   4.04173  -1.43053
H    -2.15925   3.44173  -1.20776
H    -1.15064   3.83738   0.22753
H    -1.94521  -1.28608  -1.67469
H    -1.06330   0.69337  -3.28401
H     1.63996   0.48494  -3.22934
H     2.13387  -1.61607  -1.61067
