13
Generated by autodE on: 2022-05-29. E = -357.898965 Ha
C    -3.20230   0.06589   0.44052
C    -1.80967  -0.40090   0.27987
N    -0.81823   0.41150   0.08599
C     0.54537   0.12490  -0.08437
C     1.43537   1.18883  -0.28550
N     2.18814   2.07137  -0.45362
C     0.98753  -1.20454  -0.05087
N     1.34246  -2.32068  -0.02058
H    -3.84041  -0.39419  -0.33341
H    -3.28161   1.16073   0.37435
H    -3.59858  -0.27123   1.41367
H    -1.57674  -1.46942   0.32073
H    -1.04206   1.41140   0.04889
