26
Generated by autodE on: 2022-05-29. E = -743.630302 Ha
C     3.57924  -1.56155   0.49357
N     2.22392  -1.16028   0.18019
C     1.95878   0.05883  -0.31243
O     2.83931   0.89647  -0.56928
C     0.53817   0.41067  -0.56956
C    -0.66585  -0.06374  -0.17888
C    -1.02769  -1.20785   0.66337
O    -0.28684  -2.13260   0.97164
O    -2.29733  -1.13324   1.06658
C    -2.77941  -2.19717   1.90129
C    -1.68507   0.98537  -0.70128
C    -1.46994   2.26858   0.13144
C    -0.27849   2.73098  -0.25716
C     0.20618   1.72271  -1.32145
O    -1.04023   1.35153  -1.92970
H     4.00740  -0.95051   1.30594
H     4.23381  -1.45338  -0.38512
H     3.57615  -2.61270   0.80668
H     1.43301  -1.75146   0.45096
H    -2.70891  -3.15841   1.37234
H    -3.82607  -1.95710   2.11918
H    -2.19605  -2.24703   2.83180
H    -2.71060   0.63603  -0.85008
H    -2.14877   2.63452   0.90059
H     0.29867   3.58100   0.10411
H     0.95163   2.06136  -2.04614
