43
Generated by autodE on: 2022-10-21. E = -904.368074 Ha
C    -3.13866   1.16097   0.88982
O    -1.90086   0.56566   1.25577
C    -1.01200   0.25764   0.21051
C    -1.65631  -0.51240  -0.96994
C    -2.37767  -1.76696  -0.41957
C    -1.21164  -2.74944  -0.12532
C     0.03383  -1.87844  -0.37142
C    -0.41641  -1.12893  -1.63923
C     0.12820  -0.73829   0.70565
C    -0.07893  -1.24423   2.12975
C     1.45864   0.09599   0.57278
C     1.99647   0.70113   1.87958
C     2.62238  -0.73094   0.00144
C     3.21674  -0.33333  -1.31521
O     3.05695  -1.66222   0.65959
O     1.15755   1.15107  -0.35068
C    -0.20494   1.55398  -0.24856
C    -0.35791   2.75157   0.70166
C    -0.58220   2.01423  -1.60088
N    -0.87709   2.42126  -2.64641
H    -3.83934   0.42309   0.46682
H    -3.57540   1.57495   1.80949
H    -3.01579   1.97782   0.16129
H    -2.28905   0.11908  -1.60490
H    -2.96883  -1.54423   0.47757
H    -3.06604  -2.16468  -1.17882
H    -1.25478  -3.19026   0.87784
H    -1.20582  -3.58163  -0.84481
H     0.95142  -2.47114  -0.45283
H     0.30424  -0.39685  -2.02051
H    -0.68117  -1.81179  -2.45999
H    -1.05294  -1.73216   2.24582
H     0.70583  -1.97411   2.38011
H    -0.04151  -0.43010   2.86204
H     2.37358  -0.08615   2.54331
H     2.82877   1.37826   1.63510
H     1.22973   1.27353   2.41265
H     2.46208  -0.42571  -2.11127
H     3.51673   0.72558  -1.28838
H     4.08074  -0.97247  -1.53805
H    -1.32933   3.24492   0.56969
H     0.43630   3.47563   0.47262
H    -0.27378   2.43212   1.74493
