38
Generated by autodE on: 2022-07-27. E = -939.603973 Ha
N     0.91861   0.63569  -3.15484
C     1.09166   0.37404  -2.02478
C     1.37003   0.03506  -0.69515
O     0.37873  -0.21317   0.18888
C    -0.91461  -0.04438   0.18804
C    -1.60028  -0.72134   1.27406
C    -2.91461  -0.35455   1.64443
C    -3.55524  -0.99917   2.69985
C    -2.90424  -2.01530   3.40876
C    -1.60053  -2.38530   3.05347
C    -0.95321  -1.75234   1.99709
C    -1.59055   0.79463  -0.80660
C    -2.74430   0.33260  -1.46821
C    -3.40504   1.15343  -2.38154
C    -2.93626   2.44765  -2.63053
C    -1.79774   2.91874  -1.96686
C    -1.12128   2.09807  -1.06747
C     2.71424  -0.17296  -0.19592
C     3.83015  -0.07005  -1.05974
C     5.12199  -0.27561  -0.58075
C     5.34363  -0.59143   0.76567
C     4.24683  -0.69207   1.62978
C     2.94951  -0.48115   1.16500
H    -3.42307   0.45217   1.11620
H    -4.56855  -0.70070   2.97744
H    -3.41132  -2.51940   4.23442
H    -1.09079  -3.18269   3.59884
H     0.05272  -2.05949   1.70892
H    -3.10881  -0.67752  -1.27436
H    -4.29043   0.78128  -2.90156
H    -3.45820   3.09054  -3.34293
H    -1.43403   3.93150  -2.15316
H    -0.23395   2.46988  -0.55106
H     3.67634   0.16852  -2.11448
H     5.96680  -0.19099  -1.26892
H     6.35811  -0.75187   1.13698
H     4.40319  -0.93097   2.68486
H     2.10789  -0.54669   1.85573
