38
Generated by autodE on: 2022-06-08. E = -939.603991 Ha
N     0.99998   2.81980  -1.49707
C     1.14483   1.79571  -0.94418
C     1.39126   0.57168  -0.31104
O     0.38543  -0.28058  -0.01438
C    -0.91610  -0.19068   0.00272
C    -1.59429  -1.46820   0.12978
C    -2.94513  -1.53660   0.54173
C    -3.57829  -2.76955   0.67899
C    -2.88402  -3.95558   0.41385
C    -1.54429  -3.90088   0.00787
C    -0.90351  -2.67460  -0.13815
C    -1.60986   1.09922  -0.05794
C    -2.70521   1.28342  -0.92340
C    -3.38753   2.49931  -0.94262
C    -2.99955   3.53650  -0.08799
C    -1.91990   3.35669   0.78423
C    -1.22130   2.15176   0.79582
C     2.72487   0.08641  -0.01986
C     2.92650  -1.14479   0.64787
C     4.21585  -1.60520   0.91085
C     5.33624  -0.85558   0.53324
C     5.14682   0.36983  -0.11812
C     3.86408   0.83759  -0.39406
H    -3.48951  -0.62140   0.77513
H    -4.62040  -2.80630   1.00384
H    -3.38537  -4.92003   0.52108
H    -1.00020  -4.82322  -0.20759
H     0.13222  -2.63567  -0.47720
H    -3.00711   0.47466  -1.59083
H    -4.22622   2.63810  -1.62828
H    -3.53869   4.48639  -0.10129
H    -1.61933   4.16195   1.45792
H    -0.38020   2.01668   1.47856
H     2.06461  -1.73351   0.96453
H     4.34658  -2.56038   1.42588
H     6.34372  -1.21861   0.74768
H     6.01028   0.96914  -0.41765
H     3.73540   1.79266  -0.90827
