32
Generated by autodE on: 2022-10-13. E = -785.182935 Ha
C    -2.70314  -1.85933  -2.31278
N    -1.91733  -1.19319  -1.29551
C    -2.43592  -0.16131  -0.56483
O    -3.60550   0.22025  -0.75987
C    -1.57962   0.42703   0.45717
O    -0.20142   0.14086   0.46368
C     0.63652   0.37087  -0.49419
C     0.18687   1.04230  -1.72586
C     1.99517  -0.06072  -0.23579
C     2.32437  -0.67147   0.99858
C     3.62899  -1.07521   1.25218
C     4.62347  -0.89222   0.28132
C     4.30764  -0.30151  -0.94702
C     3.00498   0.11342  -1.20849
C    -2.02880   1.04931   1.65898
C    -0.96239   1.40058   2.68574
O    -3.22405   1.32687   1.89229
H    -2.04580  -2.51423  -2.89983
H    -3.15981  -1.12201  -2.98935
H    -3.51721  -2.47182  -1.88591
H    -1.06330  -1.64389  -0.98618
H    -0.62987   1.73809  -1.46974
H     1.00814   1.56836  -2.22297
H    -0.23978   0.30496  -2.42738
H     1.54723  -0.82425   1.74717
H     3.87670  -1.54153   2.20780
H     5.64707  -1.21603   0.48267
H     5.08153  -0.16421  -1.70460
H     2.77212   0.57023  -2.17005
H    -0.23589   2.12023   2.27554
H    -1.45439   1.84106   3.56315
H    -0.39247   0.50941   2.99428
