45
Generated by autodE on: 2022-10-07. E = -1030.453109 Ha. Imaginary frequency = -272.0 cm-1
C    -2.88356  -2.74031  -2.11919
N    -2.09971  -2.20494  -1.02645
C    -2.35982  -0.97624  -0.49736
O    -3.41973  -0.37881  -0.77270
C    -1.35444  -0.42803   0.40928
C    -1.68867   0.23138   1.62600
C    -0.62271   0.28694   2.71045
O    -2.79916   0.77258   1.83136
O    -0.03655  -0.94099   0.35303
C     0.84589  -0.49969  -0.57047
C     0.66335  -0.97451  -1.99374
C     2.25691  -0.55814  -0.05245
C     2.50028  -0.94439   1.27573
C     3.80515  -0.98228   1.76836
C     4.87887  -0.62653   0.94701
C     4.64292  -0.23739  -0.37489
C     3.34110  -0.20839  -0.87630
N     0.55405   1.28781  -0.65028
C    -0.75838   1.82989  -0.80292
N    -1.37717   1.63101  -1.96886
N    -1.20725   2.74869   0.03765
C    -0.59530   3.30554   1.23507
H    -2.48642  -3.72642  -2.39171
H    -2.84575  -2.08863  -3.00977
H    -3.94114  -2.85728  -1.83590
H    -1.22161  -2.65396  -0.79562
H     0.30494   0.76048   2.35886
H    -1.02021   0.85227   3.56370
H    -0.35686  -0.72923   3.04327
H     0.96843  -2.03178  -2.01339
H    -0.37561  -0.93092  -2.33293
H     1.30112  -0.42051  -2.69260
H     1.66664  -1.22511   1.91539
H     3.98245  -1.29161   2.80069
H     5.89925  -0.65320   1.33606
H     5.47628   0.04348  -1.02218
H     3.17724   0.10440  -1.90852
H     1.15589   1.58999  -1.43076
H     0.98609   1.62169   0.21729
H    -2.34719   1.93028  -2.04706
H    -1.12792   0.82667  -2.53385
H    -2.17649   3.02567  -0.11615
H     0.44538   2.98475   1.35587
H    -1.16773   3.00605   2.12178
H    -0.60443   4.40202   1.15660
