49
Generated by autodE on: 2022-06-08. E = -1311.837088 Ha
C     3.52933   2.09648  -2.68931
O     2.78432   1.83018  -1.49160
C     1.67590   1.10550  -1.64284
O     1.26569   0.68572  -2.71535
N     1.01833   0.91381  -0.45940
C    -0.15965   0.14092  -0.23985
C    -0.15857  -0.26164   1.04798
C     1.12381   0.24291   1.68759
C     2.20493  -0.86291   1.74712
C     3.34255  -0.62126   2.68804
O     2.10698  -1.85130   1.04457
N     1.59327   1.29878   0.77946
C     1.11726   2.63559   1.15456
C    -1.12073  -1.09135   1.89653
C    -0.39990  -1.52865   3.11629
N     0.13423  -1.85119   4.09231
C    -1.50748  -2.35500   1.23633
N    -1.79450  -3.36505   0.74613
C    -2.36028  -0.27063   2.42111
C    -3.52278  -0.05261   1.45975
C    -3.20491   0.62253   0.12433
C    -2.61786  -0.34288  -0.92043
C    -1.14723  -0.05393  -1.38101
C    -0.72289  -1.20621  -2.18685
N    -0.44642  -2.15634  -2.79226
C    -1.27157   1.24822  -2.23877
C    -1.62161   1.09584  -3.68787
O    -1.18771   2.32080  -1.67791
H     4.39474   2.69024  -2.37365
H     3.86249   1.15753  -3.15372
H     2.91820   2.66575  -3.40406
H     0.97712   0.67037   2.68815
H     4.15404  -1.33841   2.50927
H     2.95917  -0.74644   3.71556
H     3.70800   0.41261   2.60295
H     1.57083   2.90416   2.11817
H     0.01699   2.68286   1.24320
H     1.45308   3.35425   0.39579
H    -2.73692  -0.79435   3.31145
H    -1.94144   0.69068   2.75361
H    -4.24442   0.56993   2.01211
H    -4.03254  -1.01256   1.27162
H    -4.14037   1.03378  -0.28128
H    -2.54284   1.48664   0.28393
H    -3.22723  -0.33248  -1.83415
H    -2.66658  -1.37832  -0.56899
H    -2.42482   0.35682  -3.82703
H    -1.92669   2.06874  -4.09318
H    -0.73864   0.72940  -4.23086
