21
Generated by autodE on: 2022-07-27. E = -570.051497 Ha
C     1.49434   0.72212  -2.49678
O     0.19463   1.31523  -2.41489
C    -0.54668   1.19164  -1.28787
O    -1.65028   1.72873  -1.27348
N     0.04705   0.40321  -0.34924
N    -0.43143   0.37385   0.87863
C    -1.22491   1.50371   1.44001
C    -0.16097  -0.62468   1.69881
C     0.56072  -1.86801   1.36742
C     0.62489  -2.84681   2.51293
O     1.06548  -2.11095   0.27787
H     1.85822   0.93990  -3.50956
H     1.44589  -0.36427  -2.33865
H     2.17795   1.16177  -1.75569
H    -0.76163   2.44430   1.12322
H    -1.21858   1.42018   2.53018
H    -2.24574   1.44899   1.05029
H    -0.53077  -0.50892   2.71565
H     1.16437  -3.75010   2.20124
H    -0.39298  -3.11179   2.84360
H     1.13234  -2.38520   3.37619
