49
Generated by autodE on: 2022-06-08. E = -1311.743286 Ha. Imaginary frequency = -173.4 cm-1
C     3.27983   2.67975  -2.98965
O     2.92913   1.94998  -1.80622
C     1.78064   1.24939  -1.85417
O     1.08803   1.18440  -2.86202
N     1.51083   0.52776  -0.72525
C    -0.54486  -0.21727  -0.14273
C    -0.49159  -0.33030   1.08554
C     1.86267   0.08500   1.46594
C     2.17810  -1.36525   1.33022
C     2.30334  -2.09383   2.64391
O     2.38169  -1.92145   0.26243
N     1.87885   0.96141   0.46846
C     1.70698   2.39084   0.80527
C    -1.22088  -0.63249   2.34316
C    -0.60083   0.03085   3.51152
N    -0.13943   0.58676   4.41726
C    -1.19182  -2.09492   2.56795
N    -1.19187  -3.24448   2.71257
C    -2.71094  -0.13809   2.26125
C    -3.59657  -0.79782   1.19997
C    -3.56266  -0.26423  -0.24632
C    -2.62691  -0.96530  -1.24309
C    -1.21378  -0.29924  -1.44768
C    -0.45440  -1.17686  -2.34737
N     0.08668  -1.93607  -3.03735
C    -1.43306   1.12782  -2.05086
C    -1.87294   1.21745  -3.48005
O    -1.37892   2.08871  -1.31250
H     4.22832   3.18044  -2.76216
H     3.40718   1.99595  -3.84111
H     2.50641   3.42380  -3.22921
H     1.91657   0.51272   2.46530
H     2.14514  -3.16883   2.48939
H     1.61748  -1.70656   3.40961
H     3.33033  -1.93809   3.01947
H     1.97105   2.54522   1.85595
H     0.65198   2.64690   0.62929
H     2.35127   2.99824   0.16353
H    -3.14419  -0.31972   3.25597
H    -2.66291   0.95074   2.11209
H    -4.62341  -0.65038   1.56807
H    -3.44082  -1.88989   1.20204
H    -4.57787  -0.39328  -0.65016
H    -3.38552   0.82299  -0.23979
H    -3.09682  -1.01026  -2.23586
H    -2.44668  -2.00406  -0.92880
H    -2.96533   1.06386  -3.50704
H    -1.65526   2.22252  -3.86320
H    -1.40827   0.45240  -4.11420
