42
Generated by autodE on: 2022-06-20. E = -1123.968930 Ha
C     4.68777   2.34299  -0.39805
O     3.66655   1.33180  -0.41491
C     2.42157   1.74772  -0.61066
O     2.10075   2.90902  -0.77553
C     1.41172   0.64081  -0.60785
N     1.71596  -0.56983  -0.32985
C     0.50541  -1.39205  -0.37875
C     0.81769  -2.68789  -1.17002
C     2.03299  -3.45705  -0.74662
O     0.10010  -3.03820  -2.08328
C     0.04473  -1.84992   1.02573
C     0.77302  -1.33340   2.22520
O    -0.89329  -2.62160   1.09783
C    -0.57264  -0.48421  -1.10071
C    -0.04540   0.94109  -0.83000
C    -0.62940   1.64382   0.42337
C    -2.05097   1.23192   0.69671
C    -2.90287   1.97871   1.63197
N    -2.32982   3.03986   2.25699
O    -4.09321   1.68171   1.86534
C    -2.59224   0.13396   0.09357
N    -1.96443  -0.67871  -0.78822
C    -2.66775  -1.79257  -1.40422
H     4.49871   3.06181   0.41210
H     4.71492   2.87377  -1.36049
H     5.63183   1.81391  -0.22676
H     2.02945  -3.62589   0.34167
H     2.93113  -2.86205  -0.97271
H     2.07494  -4.41459  -1.28091
H     0.31003  -1.72843   3.13817
H     1.83048  -1.63715   2.17061
H     0.76217  -0.23288   2.23638
H    -0.44145  -0.69801  -2.17058
H    -0.20301   1.57995  -1.70845
H     0.00636   1.43119   1.30138
H    -0.55522   2.72979   0.26110
H    -1.35603   3.28584   2.13639
H    -2.88143   3.55963   2.93042
H    -3.63122  -0.12540   0.30420
H    -3.73472  -1.72099  -1.15720
H    -2.55768  -1.75952  -2.49949
H    -2.28300  -2.75779  -1.04611
