20
Generated by autodE on: 2022-06-20. E = -457.715311 Ha
C     3.16638  -0.00140  -0.28880
N     1.81166  -0.12956   0.22213
C     1.60940  -0.57178   1.53543
C     0.38712  -0.71338   2.07219
C    -0.88465  -0.40854   1.31942
C    -0.56717   0.05204  -0.09408
C    -1.63651   0.40090  -1.04267
N    -2.90543   0.29512  -0.57366
O    -1.42315   0.77170  -2.21514
C     0.71784   0.15976  -0.53609
H     3.69035  -0.97094  -0.26960
H     3.13077   0.35581  -1.32539
H     3.74859   0.71757   0.31025
H     2.52260  -0.79468   2.09029
H     0.31025  -1.06518   3.10355
H    -1.47377   0.35824   1.86367
H    -1.54181  -1.30208   1.30629
H    -3.11526   0.01603   0.37618
H    -3.67356   0.53786  -1.18955
H     0.91682   0.49516  -1.55509
