42
Generated by autodE on: 2022-06-20. E = -1123.896207 Ha. Imaginary frequency = -310.9 cm-1
C     3.41711   2.93010  -0.26627
O     2.72184   1.71059  -0.60513
C     1.90888   1.22482   0.31678
O     1.69282   1.69470   1.40983
C     1.19129   0.02678  -0.17862
N     1.21510  -1.15033   0.02233
C     0.63024  -2.36657  -0.07660
C     1.16597  -3.29823  -1.05693
C     2.32763  -2.80685  -1.89426
O     0.69686  -4.42975  -1.23251
C    -0.46245  -2.58945   0.86264
C    -1.17881  -3.91724   0.85894
O    -0.80855  -1.69093   1.64423
C    -1.30697  -0.27664  -1.48027
C    -0.35616   0.69815  -1.68887
C    -0.61629   2.09621  -1.17728
C    -1.34628   1.98839   0.14655
C    -1.27111   3.02722   1.20010
N    -0.54977   4.13302   0.90497
O    -1.84969   2.91001   2.29369
C    -2.15325   0.92050   0.37405
N    -2.25416  -0.13867  -0.50309
C    -3.27067  -1.16422  -0.29855
H     2.68867   3.71152  -0.00894
H     3.98398   3.20606  -1.16153
H     4.09358   2.75409   0.58128
H     2.65485  -3.61076  -2.56599
H     3.16851  -2.48990  -1.25722
H     2.02728  -1.93034  -2.49147
H    -1.97703  -3.88217   1.61253
H    -0.48198  -4.73725   1.08896
H    -1.60347  -4.13705  -0.13074
H    -1.31525  -1.22107  -2.02502
H     0.33985   0.55952  -2.51832
H    -1.21060   2.67700  -1.91167
H     0.33352   2.64270  -1.08578
H    -0.03649   4.23763   0.03907
H    -0.44763   4.84835   1.61718
H    -2.75233   0.84619   1.28177
H    -2.92604  -2.11064  -0.73226
H    -3.44398  -1.30595   0.77521
H    -4.21877  -0.87837  -0.78157
