32
Generated by autodE on: 2022-06-13. E = -765.074256 Ha
C     2.52103  -3.01536   0.13995
C     1.14968  -2.43390  -0.07388
O     0.17920  -3.17965  -0.29037
C     0.95145  -0.98567  -0.00312
N    -0.34359  -0.64955  -0.11320
N    -0.86030   0.52706  -0.12644
C    -2.24857   0.60269  -0.21094
C    -2.77521   1.89607  -0.41612
C    -4.14913   2.09851  -0.51927
C    -5.03178   1.01698  -0.41385
C    -4.52009  -0.26848  -0.19856
C    -3.14662  -0.48300  -0.09281
C     1.99923   0.02780   0.19649
C     3.17527   0.00262  -0.57626
C     4.17973   0.95182  -0.37639
C     4.02654   1.94431   0.59583
C     2.85925   1.98226   1.36709
C     1.85300   1.03717   1.16881
H     3.07410  -3.01842  -0.81399
H     3.11350  -2.44214   0.86559
H     2.41251  -4.05674   0.47238
H    -0.92918  -1.50061  -0.22455
H    -2.07601   2.73057  -0.49782
H    -4.53519   3.10760  -0.68202
H    -6.10974   1.17415  -0.49119
H    -5.20105  -1.11759  -0.10219
H    -2.79220  -1.49799   0.09982
H     3.29680  -0.75640  -1.35052
H     5.08350   0.91866  -0.98936
H     4.81204   2.68761   0.75108
H     2.73292   2.75313   2.13106
H     0.94854   1.07329   1.77673
