32
Generated by autodE on: 2022-07-27. E = -765.065402 Ha
C     1.14102  -2.03942  -3.01856
C     0.07609  -1.47706  -2.10031
O    -1.11511  -1.59422  -2.40766
C     0.50622  -0.78710  -0.88568
N    -0.37178  -0.11080  -0.11351
N    -1.64491   0.03738  -0.24632
C    -2.25795   0.89195   0.66865
C    -1.59414   1.84103   1.47911
C    -2.32261   2.64558   2.35487
C    -3.71569   2.53655   2.43686
C    -4.38192   1.61342   1.62153
C    -3.66448   0.80444   0.74396
C     1.91328  -0.71886  -0.42851
C     2.49334   0.51887  -0.08541
C     3.80843   0.58713   0.37951
C     4.57376  -0.57653   0.49732
C     4.01057  -1.81101   0.15607
C     2.69260  -1.88394  -0.29591
H     0.71404  -2.11402  -4.02823
H     2.05646  -1.43307  -3.03886
H     1.41999  -3.05523  -2.69426
H     0.08166   0.33524   0.69972
H    -0.51306   1.98485   1.41524
H    -1.79492   3.37782   2.97079
H    -4.27786   3.17393   3.12273
H    -5.46984   1.52458   1.67002
H    -4.17202   0.08033   0.10368
H     1.91518   1.43867  -0.20368
H     4.24037   1.55708   0.63683
H     5.60504  -0.52265   0.85359
H     4.59795  -2.72694   0.25469
H     2.25513  -2.85545  -0.53058
