59
Generated by autodE on: 2022-06-13. E = -3842.643238 Ha. Imaginary frequency = -293.4 cm-1
C     2.14287  -0.36006  -3.64364
C     1.07319   0.15961  -2.71567
O     0.03872   0.62239  -3.17939
C     1.37395   0.20297  -1.24501
C     2.81917   0.16934  -0.86087
C     3.46618   1.34487  -0.43906
C     4.81129   1.32245  -0.06236
C     5.53632   0.12902  -0.11368
C     4.90579  -1.04145  -0.54836
C     3.56097  -1.02230  -0.91841
N     0.60222   1.01866  -0.46971
N    -0.70756   0.91549  -0.47922
C    -1.38181   1.80795   0.35893
C    -0.80497   3.00597   0.83602
C    -1.53823   3.86224   1.66095
C    -2.85099   3.55240   2.02465
C    -3.43410   2.37458   1.53727
C    -2.71840   1.51599   0.70829
C    -0.98515  -1.22986  -0.05432
C    -2.25646  -1.43573  -0.79404
C    -2.44270  -0.96263  -2.10613
C    -3.63764  -1.19063  -2.78898
C    -4.68070  -1.90058  -2.18411
C    -4.50870  -2.38292  -0.88449
C    -3.31307  -2.15305  -0.19819
C    -0.98056  -1.44216   1.48118
C     0.04985  -0.56598   2.22478
C     1.40751  -1.14496   1.75253
C     0.98508  -2.27138   0.77572
C    -0.25969  -2.81748   1.52687
C     0.28392  -1.71176  -0.48239
Br    0.37741  -2.90836  -2.01573
H     1.72801  -0.40820  -4.65860
H     3.00497   0.32635  -3.63287
H     2.51051  -1.34885  -3.34463
H     2.91978   2.29047  -0.41441
H     5.29533   2.24629   0.26282
H     6.58857   0.11109   0.17903
H     5.46245  -1.98037  -0.59235
H     3.07812  -1.94583  -1.23659
H     1.05401   1.37351   0.38150
H     0.20614   3.28829   0.53856
H    -1.07545   4.78738   2.01344
H    -3.41970   4.22501   2.67028
H    -4.46330   2.12293   1.80485
H    -3.17898   0.60370   0.33304
H    -1.64935  -0.38702  -2.57569
H    -3.75773  -0.80280  -3.80401
H    -5.61701  -2.07475  -2.71981
H    -5.30883  -2.94433  -0.39561
H    -3.20668  -2.55081   0.81090
H    -1.98143  -1.38364   1.92038
H    -0.06974   0.50533   2.03128
H    -0.08867  -0.70524   3.30685
H     1.95800  -1.60396   2.58708
H     2.07345  -0.39974   1.31085
H     1.78544  -2.98450   0.55089
H    -0.04230  -3.17159   2.54858
H    -0.78706  -3.60371   0.96779
