45
Generated by autodE on: 2022-06-23. E = -1255.325789 Ha
C    -0.95537  -2.06313   2.59599
O    -1.05828  -0.95786   1.68305
C    -0.84707  -1.21044   0.39958
O    -0.65657  -2.31559  -0.05803
C    -0.83101   0.07361  -0.44525
C    -2.18667   0.77100  -0.51531
C    -3.29230   0.38537   0.25422
C    -4.50868   1.06576   0.13637
C    -4.63865   2.13283  -0.75407
C    -3.54333   2.51365  -1.53636
C    -2.32942   1.83677  -1.41997
O    -0.47475  -0.30841  -1.78671
C     0.89679  -0.05623  -2.07103
C     0.96891   1.00428  -3.10523
N     0.99771   1.85350  -3.89276
C     1.50099  -1.28670  -2.62542
N     1.95861  -2.25426  -3.06774
C     1.56609   0.41754  -0.74603
C     2.23686  -0.71303   0.05044
C     2.25304  -0.40295   1.52593
C     3.08700  -1.17001   2.46524
N     3.82252  -2.18057   1.93714
O     3.12699  -0.93401   3.68914
C     1.43465   0.55206   2.04970
N     0.57112   1.32374   1.33974
C    -0.39593   2.17254   2.01843
C     0.34873   1.04430  -0.04862
H     0.06098  -2.48087   2.55802
H    -1.16063  -1.64973   3.58932
H    -1.69003  -2.83925   2.34147
H    -3.21936  -0.44120   0.95934
H    -5.35883   0.75266   0.74657
H    -5.58963   2.66281  -0.84391
H    -3.63393   3.34041  -2.24452
H    -1.49069   2.14001  -2.04922
H     2.30461   1.19770  -0.96460
H     1.73476  -1.67650  -0.13242
H     3.26041  -0.82833  -0.33841
H     4.38454  -2.74627   2.56363
H     3.79182  -2.43140   0.95719
H     1.45796   0.74436   3.12353
H    -1.33390   1.63505   2.23286
H     0.03125   2.52806   2.96540
H    -0.63049   3.04273   1.38851
H     0.11343   1.99414  -0.54824
