20
Generated by autodE on: 2022-06-23. E = -457.715342 Ha
C    -3.11554   0.45763  -0.42170
N    -1.82834  -0.10290  -0.04427
C    -1.77980  -1.16395   0.86864
C    -0.62631  -1.65946   1.34401
C     0.72704  -1.12423   0.94609
C     0.57442   0.04101  -0.01792
C     1.74911   0.75147  -0.54860
N     2.95620   0.32115  -0.10270
O     1.67455   1.69446  -1.36260
C    -0.65220   0.46515  -0.43371
H    -3.59236   0.98388   0.42292
H    -3.79619  -0.33773  -0.76168
H    -2.97517   1.17062  -1.24385
H    -2.75304  -1.56123   1.16248
H    -0.67009  -2.49432   2.04720
H     1.33859  -1.93239   0.49457
H     1.29570  -0.82100   1.84888
H     3.79172   0.78881  -0.43670
H     3.05646  -0.43103   0.56666
H    -0.73238   1.30568  -1.12496
