25
Generated by autodE on: 2022-07-27. E = -797.524825 Ha
C     0.45759  -1.79500   3.15633
O     0.27307  -0.75428   2.17149
C     0.03005  -1.14444   0.93785
O    -0.07869  -2.28503   0.54842
C    -0.13978   0.01010  -0.02265
O     0.66462   0.11816  -1.02103
C     1.84676  -0.52105  -1.29430
C     2.36302  -0.26439  -2.57178
N     2.80400  -0.06913  -3.63794
C     2.53987  -1.25436  -0.32557
N     3.12424  -1.85045   0.49578
C    -1.25758   0.91189   0.04324
C    -2.21784   0.78354   1.07529
C    -3.30178   1.65387   1.12615
C    -3.44503   2.65687   0.16087
C    -2.49749   2.79175  -0.86467
C    -1.41039   1.93126  -0.92843
H     1.32080  -2.41428   2.87635
H     0.64213  -1.27678   4.10298
H    -0.44750  -2.41401   3.22050
H    -2.11443   0.00820   1.83520
H    -4.03964   1.55116   1.92396
H    -4.29655   3.33923   0.20720
H    -2.61149   3.57729  -1.61423
H    -0.66874   2.03579  -1.72094
