45
Generated by autodE on: 2022-06-23. E = -1255.244642 Ha. Imaginary frequency = -305.1 cm-1
C    -1.17880  -1.84135   2.55354
O    -1.35468  -0.81345   1.56514
C    -1.06102  -1.13595   0.30993
O    -0.69390  -2.24677  -0.03571
C    -1.21524  -0.01540  -0.64647
C    -2.36664   0.88734  -0.68033
C    -3.43918   0.79065   0.23199
C    -4.50461   1.68693   0.16477
C    -4.53098   2.68875  -0.81114
C    -3.47768   2.78705  -1.72828
C    -2.40692   1.89969  -1.66578
O    -0.63209  -0.17747  -1.84214
C     0.64518  -0.52324  -2.10061
C     1.09444  -0.02558  -3.35676
N     1.50182   0.42884  -4.35011
C     1.31805  -1.68503  -1.63412
N     2.03336  -2.55915  -1.34074
C     1.63037   1.05737  -0.57469
C     2.80678   0.35573   0.04250
C     2.42863  -0.24953   1.37836
C     3.17612  -1.36286   1.99214
N     4.33570  -1.71989   1.39420
O     2.77353  -1.95670   3.01213
C     1.40932   0.29080   2.09601
N     0.58275   1.26206   1.59551
C    -0.43288   1.90071   2.42261
C     0.57893   1.48831   0.23097
H    -0.12899  -2.16540   2.57927
H    -1.45992  -1.38542   3.50914
H    -1.82829  -2.69956   2.33156
H    -3.43923   0.01373   0.99442
H    -5.32632   1.59668   0.87875
H    -5.36820   3.38868  -0.85813
H    -3.48876   3.56592  -2.49414
H    -1.58372   1.98746  -2.37614
H     1.78282   1.58676  -1.51280
H     3.20526  -0.40649  -0.64476
H     3.63110   1.09077   0.16056
H     4.85966  -2.49970   1.77686
H     4.70072  -1.24669   0.57712
H     1.19397  -0.04457   3.11062
H    -1.41989   1.81821   1.95104
H    -0.46570   1.40875   3.40207
H    -0.19737   2.96701   2.57024
H    -0.10158   2.26438  -0.11327
