34
Generated by autodE on: 2022-10-21. E = -840.507420 Ha
C     0.51235  -2.64901   1.30673
O    -0.21961  -1.42948   1.31714
C     0.06846  -0.50296   0.30631
C    -0.19780  -1.03216  -1.15523
C    -1.58291  -1.65556  -1.16576
C    -2.43555  -0.62359  -1.14469
C    -1.55844   0.62036  -1.10035
O    -0.41235   0.20534  -1.84355
C    -0.96598   0.69350   0.36668
C    -2.01041   0.51412   1.36319
N    -2.85775   0.42760   2.15213
C    -0.11491   1.94560   0.72154
C    -0.64255   3.27030   0.20158
N     1.19971   1.61028   0.19111
C     1.45513   0.21060   0.48794
C     2.58668  -0.37660  -0.35888
C     2.97622   0.33960  -1.61794
O     3.14853  -1.39987  -0.00024
H     0.38463  -3.19647   0.35735
H     0.10622  -3.26127   2.12328
H     1.58615  -2.47920   1.47433
H     0.61923  -1.60367  -1.60699
H    -1.79585  -2.72281  -1.11763
H    -3.52234  -0.62999  -1.06920
H    -1.97429   1.55915  -1.47630
H    -0.09830   1.99085   1.82950
H    -1.66735   3.44873   0.56250
H    -0.00816   4.09395   0.56429
H    -0.64174   3.29853  -0.89788
H     1.91953   2.21018   0.59197
H     1.73074   0.02991   1.54478
H     2.08788   0.55259  -2.22929
H     3.70621  -0.26129  -2.17576
H     3.41806   1.31637  -1.36154
