16
Generated by autodE on: 2022-10-21. E = -326.062574 Ha
C    -2.83897   0.45334   0.81457
C    -2.12109  -0.63588   0.11280
N    -0.83950  -0.57588  -0.12010
C     0.08706   0.39355   0.18220
C     1.41059   0.12857  -0.22461
C     2.46924   1.16441   0.08225
O     1.73537  -0.93245  -0.82925
H    -2.73388   1.41070   0.27082
H    -2.41614   0.61996   1.82291
H    -3.90634   0.21864   0.91361
H    -2.63095  -1.53420  -0.23933
H    -0.39816  -1.36465  -0.61184
H    -0.23531   1.29043   0.70369
H     2.06986   2.04337   0.60797
H     3.26199   0.70621   0.69683
H     2.94357   1.49173  -0.85796
