16
Generated by autodE on: 2022-10-26. E = -326.054879 Ha
C    -1.76564   2.74832   0.43000
C    -1.37190   1.39253   0.88065
N    -0.50562   0.65964   0.23418
C    -0.03551  -0.60396   0.51668
C     0.89466  -1.26759  -0.30629
C     1.40774  -0.56830  -1.56280
O     1.30846  -2.42789  -0.04076
H    -1.24401   3.03782  -0.49509
H    -1.54310   3.49771   1.21001
H    -2.85431   2.79785   0.25173
H    -1.80467   0.95654   1.78565
H    -0.11777   1.09206  -0.61081
H    -0.43118  -1.08017   1.41442
H     1.82393   0.43058  -1.35039
H     0.60408  -0.44181  -2.30791
H     2.19821  -1.18757  -2.00740
