50
Generated by autodE on: 2022-06-06. E = -1829.800647 Ha
C     0.53380  -4.74435   0.38770
N     0.42234  -3.39303   0.90575
C     0.89747  -2.35134   0.22573
O     1.58220  -2.41048  -0.79674
C     0.58227  -0.98133   0.80340
O     1.85267  -0.43239   1.35549
C     1.46782   0.49510   2.25655
O     2.19032   1.17885   2.91912
C    -0.09319   0.44888   2.18224
C    -0.82553   0.86508   3.36367
N    -1.40830   1.12739   4.32929
O    -0.24582  -0.95967   1.93518
C    -0.40697   1.06789   0.79603
C    -0.02761   0.12645  -0.08435
C    -0.13101   0.04543  -1.58939
C     1.26192   0.20445  -2.25760
O     1.48804  -0.22683  -3.39618
N     2.17115   0.92132  -1.58711
C     3.48756   1.18395  -2.13959
C    -0.81707  -1.31254  -1.90307
O    -1.53387  -1.83730  -1.03897
N    -0.65862  -1.81687  -3.12767
C    -1.19459  -3.11752  -3.47786
C    -1.01302   1.16627  -2.23493
C    -2.52020   1.18837  -1.92549
C    -3.01142   1.19119  -0.47026
C    -2.54463   2.33920   0.43449
C    -1.01981   2.41004   0.56574
Cl   -0.52016   3.56732   1.89301
H     1.55993  -4.93671   0.04658
H    -0.15087  -4.89319  -0.46413
H     0.27799  -5.45480   1.18247
H    -0.18387  -3.21460   1.70145
H     1.95234   1.27445  -0.66206
H     4.02405   0.24366  -2.34039
H     4.06107   1.77375  -1.41470
H     3.41616   1.74654  -3.08331
H     0.08679  -1.38752  -3.68301
H    -2.26390  -3.17472  -3.23024
H    -1.06985  -3.27790  -4.55603
H    -0.67373  -3.92556  -2.93533
H    -0.90430   1.03679  -3.32087
H    -0.54588   2.13347  -2.01373
H    -2.98947   0.32507  -2.42445
H    -2.91792   2.08153  -2.43673
H    -4.11220   1.23046  -0.49807
H    -2.75884   0.23209   0.00395
H    -2.97652   2.19506   1.43733
H    -2.89751   3.31107   0.05578
H    -0.57698   2.86211  -0.32218
