16
Generated by autodE on: 2022-06-06. E = -641.692673 Ha
C    -4.05410   0.48818   0.37878
N    -2.60401   0.44229   0.37227
C    -1.90708  -0.37295  -0.42733
O    -2.34464  -1.17537  -1.24416
C    -0.41307  -0.25714  -0.27233
O     0.40252  -0.95428  -0.96900
C     1.81745  -0.57597  -0.54650
O     2.75039  -1.10959  -1.07402
C     1.54193   0.38302   0.43650
C     2.39920   1.14084   1.23588
N     3.13521   1.76429   1.89378
O     0.15812   0.54141   0.56408
H    -4.43717  -0.20542  -0.37797
H    -4.44366   0.19709   1.36610
H    -4.40425   1.50551   0.14890
H    -2.09998   1.05893   1.00558
