50
Generated by autodE on: 2022-06-06. E = -1829.716945 Ha. Imaginary frequency = -278.6 cm-1
C     1.12399  -3.97115  -0.88971
N     0.83457  -2.84868  -0.01467
C     1.76035  -1.91058   0.21304
O     2.91819  -1.93014  -0.19320
C     1.29672  -0.74402   1.04517
O     2.14035   0.24844   1.29996
C     1.58129   1.04176   2.34803
O     2.07770   2.08024   2.69523
C     0.42417   0.28031   2.72470
C    -0.30457   0.36797   3.92401
N    -0.86343   0.45242   4.94210
O     0.43661  -0.90289   2.02928
C    -0.60091   1.28307   0.59805
C    -0.15269   0.49676  -0.24567
C    -0.16316   0.07007  -1.67004
C     1.26768  -0.07126  -2.24972
O     1.52809  -0.82916  -3.19345
N     2.18474   0.74638  -1.72113
C     3.57594   0.69898  -2.13021
C    -1.03303  -1.21047  -1.77935
O    -1.84282  -1.48792  -0.88535
N    -0.90773  -1.92586  -2.89982
C    -1.66749  -3.14431  -3.10282
C    -0.82461   1.21432  -2.52500
C    -2.33019   1.46166  -2.38440
C    -2.92303   1.83290  -1.01363
C    -2.19158   2.92973  -0.21104
C    -1.45134   2.38755   1.02487
Cl   -2.68532   1.80168   2.25753
H     0.26973  -4.65695  -0.87759
H     1.30089  -3.62497  -1.92047
H     2.02052  -4.50459  -0.54347
H    -0.13194  -2.66655   0.25240
H     1.93088   1.32444  -0.92609
H     4.14107   1.42520  -1.53402
H     3.68320   0.94915  -3.19669
H     3.99366  -0.30537  -1.96330
H    -0.08034  -1.72034  -3.46567
H    -1.37708  -3.58639  -4.06368
H    -2.74754  -2.93317  -3.12114
H    -1.47943  -3.87654  -2.30158
H    -0.62003   0.97152  -3.57874
H    -0.26362   2.13250  -2.29764
H    -2.88024   0.58487  -2.76378
H    -2.55053   2.27889  -3.09233
H    -3.95956   2.15674  -1.19301
H    -3.00464   0.92720  -0.39544
H    -2.89087   3.70069   0.14357
H    -1.44154   3.44787  -0.83072
H    -0.88483   3.17240   1.54121
