51
Generated by autodE on: 2022-06-23. E = -1224.864852 Ha
C     2.21796  -2.67950   1.12435
C     1.20496  -2.42569   0.28720
C     0.22421  -3.47770  -0.15029
C     0.96090  -1.04690  -0.29458
C    -0.36660  -0.40847   0.20406
C    -1.53276  -0.64728  -0.70347
C    -2.73816  -1.13972  -0.36620
C    -3.13406  -1.56898   1.01937
C    -3.81354  -1.30543  -1.40582
C     0.05162   1.08818   0.39814
C    -0.04262   1.83533  -0.93958
O     0.85462   1.92813  -1.74631
O    -1.26907   2.31571  -1.12495
C    -1.54461   2.94858  -2.38575
C    -0.82110   1.80432   1.43175
O    -1.72874   1.28887   2.04298
O    -0.44349   3.07121   1.57323
C    -1.17287   3.86553   2.52427
N     1.46058   1.02833   0.82360
C     1.66902   0.80049   2.25876
N     1.97381  -0.04260   0.06180
C     3.13198   0.15960  -0.62751
O     3.89756   1.09631  -0.46643
O     3.35435  -0.85021  -1.49027
C     4.58168  -0.79550  -2.22317
H     2.37054  -3.68397   1.52959
H     2.92089  -1.90044   1.42722
H    -0.78638  -3.26273   0.23398
H     0.13911  -3.50253  -1.24984
H     0.52287  -4.47495   0.20305
H     0.92628  -1.13342  -1.39215
H    -0.58026  -0.78531   1.21028
H    -1.36254  -0.38999  -1.75546
H    -3.52223  -2.60169   0.99726
H    -3.95630  -0.93503   1.39444
H    -2.31469  -1.52380   1.74686
H    -4.71845  -0.73954  -1.12261
H    -4.12200  -2.36289  -1.48347
H    -3.48613  -0.96349  -2.39865
H    -1.39592   2.23325  -3.20696
H    -2.59234   3.26513  -2.33956
H    -0.88671   3.81736  -2.52656
H    -0.71819   4.86181   2.49476
H    -1.08061   3.43125   3.52983
H    -2.23293   3.91848   2.23880
H     1.35470   1.69319   2.81577
H     2.74648   0.66862   2.42096
H     1.13743  -0.08332   2.65262
H     4.61895   0.10274  -2.85671
H     4.59855  -1.69596  -2.84869
H     5.44366  -0.79578  -1.54002
