23
Generated by autodE on: 2022-06-23. E = -351.521383 Ha
C     3.26120  -1.90927  -0.12941
C     2.44393  -0.83339  -0.15086
C     2.98776   0.56039  -0.33416
C     1.00147  -1.00969   0.00455
C     0.07735  -0.01631  -0.00215
C    -1.34395  -0.24906   0.15513
C    -2.33049   0.68281   0.15451
C    -2.10491   2.15841  -0.01536
C    -3.76772   0.28091   0.33002
H     2.86300  -2.91994   0.00359
H     4.34387  -1.80643  -0.24404
H     2.55900   1.03964  -1.22995
H     2.72669   1.20449   0.52197
H     4.08191   0.55056  -0.43811
H     0.65690  -2.04251   0.13584
H     0.41265   1.01622  -0.13285
H    -1.63962  -1.29690   0.28743
H    -1.04989   2.43267  -0.14284
H    -2.66539   2.53177  -0.89066
H    -2.50020   2.70799   0.85722
H    -4.37280   0.60244  -0.53679
H    -3.88404  -0.80608   0.45144
H    -4.20902   0.78026   1.21137
