28
Generated by autodE on: 2022-07-27. E = -873.287875 Ha
C     2.90431  -1.93956  -3.37147
O     1.72009  -1.69571  -2.60911
C     1.88089  -0.98538  -1.47286
O     2.97436  -0.58789  -1.08982
N     0.64659  -0.75927  -0.92503
N     0.58451  -0.32078   0.32491
C     1.61441  -0.68881   1.33309
C    -0.49962   0.35752   0.65052
C    -1.45517   0.66618  -0.47599
O    -1.37833   1.67051  -1.14618
O    -2.38291  -0.27150  -0.59763
C    -3.35277  -0.08840  -1.64614
C    -0.90664   0.92436   1.94976
O    -2.00393   1.44993   2.05022
O    -0.01912   0.86173   2.93294
C    -0.41126   1.43298   4.19410
H     3.63570  -2.51799  -2.78731
H     2.58637  -2.51604  -4.24870
H     3.36620  -0.99338  -3.69176
H     2.29488   0.15720   1.48109
H     2.16171  -1.55410   0.95614
H     1.10739  -0.93438   2.26729
H    -3.90866   0.84664  -1.48943
H    -2.85018  -0.06292  -2.62338
H    -4.02676  -0.94986  -1.58469
H    -0.62112   2.50504   4.07406
H     0.44086   1.28102   4.86543
H    -1.30346   0.92154   4.58144
