54
Generated by autodE on: 2022-06-03. E = -1203.827192 Ha
C     1.04961  -3.27657   3.03933
N     1.31313  -2.40337   1.91485
C     1.01047  -0.97631   2.01005
C     1.31980  -0.37647   3.39725
C    -0.45175  -0.87774   1.74965
N    -1.60004  -0.90724   1.58509
C     1.83852  -0.35179   0.85971
C     2.64343  -1.30524   0.34630
C     3.63022  -1.29743  -0.84136
C     4.52855  -2.48088  -0.80985
N     5.26220  -3.37309  -0.90005
C     4.60427  -0.18709  -0.80455
N     5.43973   0.61611  -0.78770
C     2.88295  -1.42002  -2.23319
C     2.25978  -0.17249  -2.84937
C     1.28719   0.62323  -1.97940
C     2.01236   1.48462  -0.93007
C     1.74363   1.14899   0.55578
C     2.80247   1.88318   1.41436
C     0.35681   1.74151   0.88233
C     2.50628  -2.62519   1.11696
C     2.19811  -3.75282   0.19265
N     1.88421  -4.61897  -0.51223
C     3.76623  -2.94258   1.95024
C     4.12027  -4.26609   2.23854
C     5.22427  -4.54301   3.04777
C     5.98918  -3.49794   3.57409
C     5.64072  -2.17479   3.28822
C     4.53429  -1.89747   2.48202
H     0.02539  -3.10226   3.40014
H     1.74943  -3.14929   3.88404
H     1.10316  -4.32287   2.70391
H     0.75513  -0.91698   4.16846
H     1.03598   0.67983   3.45518
H     2.39261  -0.47472   3.60484
H     3.61248  -1.82891  -2.94614
H     2.11868  -2.19323  -2.07279
H     1.74269  -0.52924  -3.75504
H     3.05959   0.50088  -3.20151
H     0.69491   1.27375  -2.64018
H     0.56412  -0.05867  -1.50122
H     1.72863   2.54017  -1.05346
H     3.08945   1.47382  -1.12601
H     2.81104   2.94942   1.13867
H     2.58149   1.81618   2.48708
H     3.80980   1.47953   1.24465
H     0.05136   1.60210   1.92646
H    -0.42668   1.32826   0.23288
H     0.40210   2.82592   0.70415
H     3.53794  -5.09118   1.82395
H     5.48921  -5.58057   3.26331
H     6.85675  -3.71448   4.20157
H     6.23504  -1.35067   3.68909
H     4.27854  -0.86102   2.25944
