28
Generated by autodE on: 2022-06-03. E = -575.361701 Ha
C    -0.51311  -3.06479  -1.25869
C    -1.21786  -2.01957  -0.37407
C    -2.19830  -2.71597   0.58238
C    -0.22501  -1.21599   0.34046
C     0.53099  -0.32731   0.67072
C     1.05803   1.04177   0.57402
C     2.51722   1.11167   0.79723
N     3.66656   1.16112   0.93548
C     0.39143   1.90464   1.57530
N    -0.16300   2.58624   2.33087
C     0.72779   1.56607  -0.87849
C    -0.73577   1.37942  -1.31603
C    -1.13528   0.05670  -2.02916
C    -1.98128  -0.96985  -1.24803
H     0.07026  -3.76687  -0.64401
H    -1.26749  -3.63851  -1.81903
H     0.16949  -2.59012  -1.97865
H    -2.98459  -3.22283   0.00172
H    -1.68113  -3.47062   1.19441
H    -2.67849  -1.99024   1.25592
H     1.00433   2.63048  -0.89822
H     1.40743   1.03205  -1.55879
H    -0.92674   2.20153  -2.02222
H    -1.40795   1.57081  -0.46225
H    -0.23524  -0.42864  -2.44207
H    -1.73653   0.34134  -2.90628
H    -2.68565  -0.42837  -0.59528
H    -2.59383  -1.54923  -1.95845
