26
Generated by autodE on: 2022-06-03. E = -628.373548 Ha
C    -3.02841   1.24937   1.42148
C    -1.88018   0.80161   0.56499
C    -1.15469   1.78405  -0.13657
N    -0.61897   2.64951  -0.71227
N    -1.57151  -0.50413   0.41382
C    -2.58133  -1.46699   0.89998
C    -0.40448  -0.99196  -0.11120
C    -0.40385  -2.30421  -0.63133
N    -0.33352  -3.38286  -1.08097
C     0.87002  -0.25264  -0.15364
C     1.74495  -0.42405  -1.24395
C     2.99873   0.18914  -1.25656
C     3.40568   0.98468  -0.18190
C     2.54557   1.15872   0.90929
C     1.29212   0.55143   0.92639
H    -2.95500   0.84008   2.44211
H    -4.00135   0.94007   1.00478
H    -3.02491   2.34455   1.49093
H    -2.64879  -1.38763   1.99273
H    -3.55612  -1.24027   0.45354
H    -2.27745  -2.48238   0.63493
H     1.43535  -1.04279  -2.08895
H     3.65931   0.04630  -2.11495
H     4.38540   1.46747  -0.19269
H     2.85581   1.77182   1.75872
H     0.63844   0.69674   1.78868
