41
Generated by autodE on: 2022-06-18. E = -977.393843 Ha
C     0.35682   1.12345   2.97947
C    -0.01540  -0.01505   2.37790
C    -0.15572  -1.31524   3.11723
C    -0.37198  -0.10073   0.90557
C    -1.74781   0.53077   0.59624
C    -2.34347   0.09188  -0.72173
C    -2.71196  -1.15527  -1.06037
C    -3.23349  -1.46281  -2.43714
C    -2.60944  -2.33875  -0.13616
O    -1.43115   1.92809   0.57167
N    -0.14225   2.07863  -0.07310
C     0.49941   0.75674  -0.05072
C     1.95931   0.85961   0.41711
O     2.57306   1.89405   0.53806
O     2.46731  -0.34729   0.65003
C     3.82201  -0.40013   1.12517
C     0.50621   0.16152  -1.47992
O     0.34204   0.84742  -2.46729
O     0.72569  -1.14242  -1.50236
C     0.69194  -1.78548  -2.78911
H     0.58151   1.14010   4.05018
H     0.45728   2.06468   2.43612
H     0.04673  -1.20174   4.19187
H     0.53847  -2.06672   2.70289
H    -1.17253  -1.72646   2.99212
H    -0.32856  -1.14541   0.58993
H    -2.44493   0.39321   1.43696
H    -2.44562   0.89365  -1.46044
H    -2.62591  -2.25477  -2.90887
H    -4.26602  -1.85120  -2.38935
H    -3.22139  -0.57866  -3.09091
H    -3.52241  -2.95366  -0.19966
H    -2.45502  -2.06243   0.91553
H    -1.77143  -2.98913  -0.44476
H    -0.35462   2.28978  -1.05300
H     4.06019  -1.46380   1.23626
H     4.50076   0.07168   0.40098
H     3.90042   0.11280   2.09447
H     1.49496  -1.39457  -3.42941
H    -0.28237  -1.61486  -3.26722
H     0.84213  -2.85274  -2.59346
