23
Generated by autodE on: 2022-06-18. E = -351.521384 Ha
C     3.50342  -1.23004   0.71543
C     2.52990  -0.34338   0.41238
C     2.84140   1.11282   0.17886
C     1.14258  -0.79071   0.30599
C     0.07804  -0.00333   0.00985
C    -1.27995  -0.49941  -0.08255
C    -2.39477   0.21895  -0.37040
C    -2.40499   1.69506  -0.64974
C    -3.74228  -0.44330  -0.42924
H     3.27372  -2.28659   0.88471
H     4.54940  -0.92279   0.80134
H     2.29489   1.75495   0.88949
H     3.91653   1.31290   0.28913
H     2.53220   1.42845  -0.83147
H     0.96888  -1.85870   0.48498
H     0.24366   1.06243  -0.16988
H    -1.40495  -1.57309   0.10326
H    -1.41228   2.16067  -0.60231
H    -3.06328   2.21483   0.06874
H    -2.82970   1.89148  -1.65009
H    -4.20377  -0.30446  -1.42352
H    -4.43692   0.01777   0.29584
H    -3.68563  -1.52151  -0.21942
