18
Generated by autodE on: 2022-07-27. E = -625.852097 Ha
C     2.17876   0.28045   2.85260
O     1.12327   0.66163   1.95556
C     0.90679  -0.13114   0.89771
O     1.51800  -1.15712   0.68827
C    -0.14668   0.42515   0.01323
N    -0.57368   1.65258   0.28722
O    -1.42892   2.33213  -0.29986
C    -0.69818  -0.29443  -1.16274
O    -1.18729   0.25629  -2.12828
O    -0.60984  -1.61629  -1.02668
C    -1.09175  -2.40765  -2.12412
H     3.13790   0.24064   2.31714
H     2.20554   1.05371   3.62835
H     1.96213  -0.70088   3.29765
H    -0.12032   2.07273   1.12387
H    -0.91356  -3.45098  -1.84069
H    -2.16577  -2.23156  -2.28024
H    -0.54225  -2.16153  -3.04403
