41
Generated by autodE on: 2022-06-18. E = -977.350267 Ha. Imaginary frequency = -389.1 cm-1
C     0.02778   1.17244   3.05006
C    -0.04491  -0.00717   2.39738
C     0.57636  -1.26284   2.95247
C    -0.66368  -0.13220   1.06923
C    -1.63708   0.80553   0.61620
C    -2.51045   0.56088  -0.54605
C    -3.07671  -0.58908  -0.96887
C    -3.90887  -0.59835  -2.22324
C    -2.97980  -1.92453  -0.28094
O    -0.54671   2.24051  -0.10560
N     0.69922   1.86471   0.03679
C     0.93506   0.55291  -0.24544
C     2.19218  -0.05139   0.27928
O     2.62572  -1.13900  -0.04639
O     2.77040   0.73659   1.18754
C     3.94866   0.23282   1.83581
C     0.42064   0.05772  -1.56867
O     0.18109   0.78933  -2.50718
O     0.27187  -1.26386  -1.60376
C    -0.19712  -1.82472  -2.83936
H    -0.41347   2.08872   2.65003
H     0.52993   1.24629   4.01829
H     1.11312  -1.07221   3.89236
H     1.27777  -1.71246   2.23170
H    -0.20048  -2.02366   3.14088
H    -0.66551  -1.12854   0.63235
H    -2.03341   1.49989   1.36237
H    -2.72980   1.46759  -1.12120
H    -3.53254  -1.36303  -2.92532
H    -4.95447  -0.87384  -1.99904
H    -3.90351   0.37545  -2.73395
H    -3.96003  -2.42848  -0.30755
H    -2.27433  -2.58647  -0.81231
H    -2.65819  -1.85261   0.76533
H     1.17623   2.21379   0.87789
H     3.71047  -0.68402   2.39319
H     4.73340   0.02392   1.09548
H     4.27171   1.02269   2.52287
H    -0.29171  -2.90179  -2.66306
H    -1.17017  -1.39262  -3.10901
H     0.52662  -1.63214  -3.64422
