41
Generated by autodE on: 2022-06-02. E = -3439.647241 Ha
C     3.86497  -2.32834   0.18339
O     3.29742  -1.11413  -0.32748
C     2.08904  -1.20064  -0.88362
O     1.51192  -2.25549  -1.06918
C     1.56290   0.16632  -1.31294
N     0.82403   0.10170  -2.56546
C    -0.58270  -0.17287  -2.26152
C    -0.90446   0.51276  -0.90064
C    -1.86526  -0.39818  -0.14244
C    -3.22450  -0.06995  -0.00953
C    -4.12740  -0.94198   0.60956
C    -3.69269  -2.17158   1.10625
C    -2.34846  -2.52751   0.95517
C    -1.45299  -1.65695   0.33226
C    -1.42934   1.96800  -1.10290
C    -1.66354   2.65806   0.26531
C    -0.22751   3.00624   0.74126
C     0.65626   2.36685  -0.34289
C    -0.17687   2.71279  -1.59529
C     0.55754   0.81644  -0.31350
Br    0.93133   0.16506   1.53484
H     4.84810  -2.05835   0.58564
H     3.22843  -2.73870   0.98122
H     3.97183  -3.07285  -0.61833
H     2.44375   0.81826  -1.40344
H     1.20982  -0.61694  -3.17550
H    -0.78313  -1.25213  -2.18314
H    -1.23648   0.22593  -3.05341
H    -3.60337   0.87378  -0.39954
H    -5.17773  -0.65321   0.69742
H    -4.39488  -2.85218   1.59378
H    -1.99253  -3.49497   1.31829
H    -0.42105  -1.97476   0.19731
H    -2.29553   2.00137  -1.77574
H    -2.27503   3.56216   0.12824
H    -2.18711   2.01534   0.98296
H    -0.00677   2.63857   1.75025
H    -0.05417   4.09240   0.73815
H     1.70053   2.70466  -0.33083
H    -0.34059   3.79731  -1.68175
H     0.23632   2.32955  -2.53242
