27
Generated by autodE on: 2022-06-02. E = -3077.613776 Ha
Br   -0.73954  -1.59491  -1.36618
C    -1.00548  -0.46472   0.13170
C    -0.11687   0.34394   0.75754
C     1.31678   0.56518   0.54989
C     1.88137   1.82391   0.84635
C     3.24277   2.06403   0.65261
C     4.07746   1.04972   0.17336
C     3.53575  -0.20949  -0.10735
C     2.17400  -0.45026   0.07677
C    -0.97996   1.21135   1.68378
C    -1.76771   2.19512   0.76028
C    -2.75623   1.25328   0.01512
C    -2.40921  -0.14927   0.61039
C    -2.09636   0.22370   2.07231
H     1.24519   2.62758   1.22046
H     3.65416   3.05041   0.88033
H     5.14380   1.23639   0.02611
H     4.18064  -1.01462  -0.46806
H     1.77320  -1.44206  -0.13068
H    -0.43155   1.69264   2.50255
H    -2.30354   2.93706   1.37100
H    -1.09641   2.73903   0.08117
H    -2.63047   1.26952  -1.07685
H    -3.80337   1.50673   0.23811
H    -3.15745  -0.92905   0.42529
H    -2.94235   0.70620   2.58560
H    -1.73313  -0.62813   2.66530
