14
Generated by autodE on: 2022-06-02. E = -361.971748 Ha
C    -2.29956  -1.31108   0.23071
N    -2.01014  -0.07030   0.53570
C    -0.86012   0.66675   0.44815
C     0.34349   0.12304  -0.05817
O     0.52448  -1.02946  -0.47590
O     1.36340   1.04061  -0.04913
C     2.62084   0.58731  -0.54072
H    -3.32080  -1.64587   0.40633
H    -1.52858  -1.95758  -0.17914
H    -2.79327   0.46687   0.91674
H    -0.92788   1.69552   0.78958
H     3.30723   1.44033  -0.46248
H     3.00755  -0.25271   0.05792
H     2.55015   0.26672  -1.59221
