41
Generated by autodE on: 2022-06-02. E = -3439.575584 Ha. Imaginary frequency = -325.8 cm-1
C     3.74773  -2.18320   0.26887
O     3.31475  -1.10657  -0.56159
C     2.10072  -1.24340  -1.14671
O     1.43215  -2.26830  -1.02708
C     1.74252  -0.05744  -1.88230
N     0.67701  -0.04866  -2.73792
C    -0.53635  -0.52799  -2.45570
C    -0.94866   0.65170  -0.52351
C    -1.91543  -0.33477   0.00968
C    -3.29581  -0.04300   0.02694
C    -4.22683  -0.96054   0.52142
C    -3.81004  -2.20308   1.00543
C    -2.44745  -2.51984   0.97253
C    -1.51649  -1.60543   0.47921
C    -1.43694   2.03355  -1.00425
C    -1.70178   2.87576   0.28510
C    -0.26808   3.13534   0.83233
C     0.63480   2.40275  -0.20599
C    -0.14490   2.70745  -1.49539
C     0.35738   0.91168  -0.04867
Br    1.09068   0.12618   1.55505
H     4.71758  -1.87940   0.68179
H     3.03387  -2.36128   1.08645
H     3.86480  -3.10954  -0.31406
H     2.53692   0.64895  -2.11712
H     0.70982   0.68394  -3.44375
H    -0.60113  -1.43542  -1.86650
H    -1.32878  -0.30570  -3.17215
H    -3.65571   0.91440  -0.34916
H    -5.28792  -0.69821   0.52475
H    -4.53753  -2.92075   1.39200
H    -2.10362  -3.49504   1.32719
H    -0.46667  -1.88997   0.43026
H    -2.27459   2.00715  -1.71249
H    -2.20869   3.81658   0.02134
H    -2.33882   2.34408   1.00430
H    -0.11811   2.74609   1.84868
H    -0.02589   4.20893   0.84346
H     1.69501   2.68207  -0.17261
H    -0.27571   3.78848  -1.65353
H     0.28525   2.27917  -2.40350
