27
Generated by autodE on: 2022-07-27. E = -798.038901 Ha
C    -0.38822  -4.50212   0.25456
N    -1.13059  -3.27885   0.02917
C    -0.59864  -2.07010   0.29165
O     0.55852  -1.90593   0.70695
C    -1.54291  -0.95010   0.15235
O    -1.19169   0.28941   0.21207
C    -0.02442   0.92232   0.09972
C    -0.05026   2.33273   0.51435
O     0.93662   3.07358   0.36977
N    -1.20290   2.77862   1.06663
C    -1.35215   4.15963   1.47391
C     1.10629   0.34967  -0.63696
O     2.27712   0.63390  -0.46031
O     0.68763  -0.46475  -1.62097
C     1.69471  -1.20580  -2.31844
H    -0.90161  -5.32986  -0.24923
H    -0.30529  -4.73770   1.32907
H     0.62937  -4.40776  -0.15157
H    -2.10919  -3.33544  -0.23913
H    -2.62141  -1.09517   0.24449
H    -1.98431   2.14251   1.17312
H    -1.20070   4.85027   0.62832
H    -0.62754   4.42960   2.25935
H    -2.36554   4.30422   1.86789
H     2.34679  -0.53139  -2.89226
H     1.15886  -1.87969  -2.99717
H     2.30078  -1.78733  -1.60912
