27
Generated by autodE on: 2022-06-13. E = -798.052602 Ha
C     4.20844   1.41742  -0.83647
N     2.92466   0.79042  -0.60707
C     2.72457  -0.53998  -0.69221
O     3.59306  -1.37520  -0.98059
C     1.35228  -1.01514  -0.42030
O     0.47460  -0.13544  -0.12030
C    -0.82359  -0.13179   0.17900
C    -1.56996  -1.39630   0.20032
O    -0.98846  -2.46784  -0.05937
N    -2.88196  -1.31502   0.50957
C    -3.75527  -2.46587   0.57044
C    -1.35180   1.19222   0.45613
O    -2.52541   1.41657   0.74703
O    -0.43266   2.16776   0.36785
C    -0.88748   3.50111   0.63162
H     4.13295   2.18546  -1.62177
H     4.92526   0.65175  -1.15543
H     4.58631   1.89707   0.08082
H     2.13421   1.37665  -0.35300
H     1.09220  -2.07086  -0.47356
H    -3.24805  -0.38318   0.70100
H    -4.58366  -2.37375  -0.15055
H    -4.18923  -2.58206   1.57677
H    -3.18054  -3.36791   0.33036
H    -1.27888   3.58202   1.65622
H    -0.00953   4.14626   0.51122
H    -1.67213   3.79216  -0.08183
