48
Generated by autodE on: 2022-05-31. E = -1400.789867 Ha
C     4.70992   0.01757  -0.85442
N     3.31592   0.32811  -0.61422
C     2.70195   0.03848   0.54162
O     3.29424  -0.46088   1.51009
C     1.20653   0.32696   0.63291
N     0.69645   1.21014  -0.40604
C     1.09410   2.60477  -0.26447
C    -0.74860   0.97241  -0.58547
C    -1.18412   1.36646  -1.99795
C    -1.52361   1.77093   0.51060
O    -1.15560   1.75067   1.69144
N    -2.56227   2.52714   0.11950
C    -3.36006   3.26176   1.08160
C    -0.89833  -0.57149  -0.30825
Cl   -2.52969  -0.85050   0.49202
C    -0.79507  -1.49453  -1.55011
C    -1.08075  -2.96353  -1.16443
C     0.17175  -3.36831  -0.33866
C     1.01421  -2.07730  -0.33806
C     0.72880  -1.55250  -1.75893
C     0.35449  -0.98747   0.56922
C     0.06827  -1.45894   1.99067
H     5.33055   0.35727  -0.01218
H     5.04060   0.52713  -1.76828
H     4.86963  -1.06726  -0.97773
H     2.73649   0.69355  -1.36388
H     1.07174   0.76857   1.63439
H     2.18768   2.69034  -0.32309
H     0.77303   3.05070   0.69618
H     0.67333   3.20386  -1.08400
H    -0.53752   0.88738  -2.74209
H    -1.11561   2.45272  -2.14698
H    -2.22079   1.05511  -2.19306
H    -2.87306   2.49414  -0.84312
H    -3.86898   2.57970   1.78290
H    -2.73168   3.94521   1.67244
H    -4.11595   3.84815   0.54511
H    -1.40142  -1.14779  -2.39317
H    -2.02000  -3.08022  -0.61185
H    -1.16146  -3.55848  -2.08596
H     0.73601  -4.16866  -0.84006
H    -0.07243  -3.72837   0.66872
H     2.06501  -2.25580  -0.07888
H     1.17950  -0.58280  -1.98592
H     1.01032  -2.27354  -2.54101
H    -0.40520  -0.65709   2.57234
H     1.01840  -1.72362   2.47916
H    -0.59586  -2.33118   2.01977
