20
Generated by autodE on: 2022-05-31. E = -771.828691 Ha
C     2.32674  -0.78389  -0.00726
C     0.90933  -0.47986   0.32477
C     0.16813   0.60889   0.05171
Cl    0.67627   2.03037  -0.82333
C    -1.28635   0.33815   0.38609
C    -1.78034  -0.69040  -0.68142
C    -0.94785  -1.96198  -0.34233
C    -0.08532  -1.50008   0.87788
C    -1.09070  -0.58473   1.60652
H     2.82889   0.08092  -0.46478
H     2.38433  -1.63080  -0.71403
H     2.89222  -1.08582   0.89083
H    -1.91971   1.22550   0.50674
H    -2.85935  -0.87207  -0.56422
H    -1.60920  -0.32088  -1.70278
H    -1.59817  -2.80146  -0.05316
H    -0.31785  -2.29904  -1.17834
H     0.36487  -2.31955   1.45404
H    -0.65289  -0.06538   2.47156
H    -2.01362  -1.10441   1.90820
