28
Generated by autodE on: 2022-07-27. E = -628.875151 Ha
C     3.90978  -2.38083  -0.24407
N     2.67434  -1.65879  -0.47340
C     2.16019  -0.83648   0.48772
O     2.78876  -0.65934   1.55432
C     0.85075  -0.21074   0.35110
N     0.12243   0.07324  -0.74977
C     0.79702  -0.00647  -2.06960
C    -1.16701   0.52181  -0.77118
C    -1.83307   0.77933  -2.09633
C    -1.89800   0.78405   0.47119
O    -1.50616   0.46200   1.61607
N    -3.09841   1.42507   0.34623
C    -3.87100   1.77870   1.51734
H     3.81909  -3.11722   0.57390
H     4.72267  -1.68837   0.01964
H     4.18585  -2.91174  -1.16434
H     2.06796  -1.99762  -1.21038
H     0.37550   0.03257   1.29377
H     0.46789  -0.90059  -2.61557
H     1.87596  -0.03596  -1.92089
H     0.55273   0.88525  -2.65402
H    -1.62564   1.78564  -2.50679
H    -2.92141   0.68526  -1.99329
H    -1.54305   0.04723  -2.86094
H    -3.36080   1.84254  -0.53697
H    -4.81153   2.24222   1.19338
H    -4.10833   0.88833   2.12003
H    -3.33640   2.48856   2.17261
