28
Generated by autodE on: 2022-05-31. E = -628.880876 Ha
C     4.18635   1.82243  -0.43384
N     2.77308   1.52250  -0.40710
C     2.31347   0.23734  -0.36089
O     3.13700  -0.70600  -0.37609
C     0.86089   0.17489  -0.29424
N     0.06982  -0.91820  -0.25343
C     0.70400  -2.24494  -0.44618
C    -1.27960  -0.92379  -0.06099
C    -2.03274  -2.21996  -0.19268
C    -1.99162   0.28958   0.34940
O    -1.50639   1.44382   0.34760
N    -3.28056   0.12060   0.76931
C    -4.04829   1.24199   1.26554
H     4.70109   1.47049   0.47685
H     4.68331   1.34944  -1.29659
H     4.31732   2.90928  -0.50885
H     2.11058   2.28771  -0.35816
H     0.32563   1.11453  -0.22768
H     0.37178  -2.92777   0.34308
H     1.78655  -2.11707  -0.41011
H     0.40841  -2.64700  -1.42362
H    -2.02134  -2.82872   0.73079
H    -1.64080  -2.85064  -1.00106
H    -3.08302  -2.02465  -0.44481
H    -3.63484  -0.81027   0.94569
H    -5.07209   0.90590   1.47398
H    -3.62241   1.66570   2.19214
H    -4.08902   2.05159   0.52089
