48
Generated by autodE on: 2022-05-31. E = -1400.702105 Ha. Imaginary frequency = -269.5 cm-1
C     4.80217  -0.42380  -0.18840
N     3.50633   0.20771  -0.34496
C     2.71143   0.42620   0.73805
O     3.14338   0.20141   1.88798
C     1.30590   0.81453   0.58209
N     0.72194   1.50553  -0.43544
C     1.52052   2.07634  -1.53497
C    -0.65111   1.57816  -0.52809
C    -1.24325   1.92489  -1.86570
C    -1.43216   1.87300   0.69428
O    -0.98850   1.78529   1.85732
N    -2.70343   2.31053   0.49894
C    -3.61607   2.44079   1.61456
C    -0.99970  -0.88593  -0.27501
Cl   -2.58498  -0.91453   0.52608
C    -0.94496  -1.45311  -1.68437
C    -1.10872  -2.99802  -1.53482
C     0.20791  -3.41625  -0.81655
C     0.96124  -2.05760  -0.64008
C     0.56647  -1.36233  -1.95538
C     0.16044  -1.27207   0.39864
C     0.22925  -1.60382   1.85693
H     4.71564  -1.45608   0.19389
H     5.42801   0.14340   0.51565
H     5.30469  -0.44984  -1.16384
H     3.07970   0.15110  -1.26170
H     0.76687   0.84575   1.51757
H     2.52249   2.30749  -1.16477
H     1.05497   3.01227  -1.86167
H     1.60024   1.40613  -2.40290
H    -0.66700   1.48241  -2.68701
H    -1.32475   3.01178  -2.04964
H    -2.25446   1.49905  -1.94203
H    -3.09981   2.28116  -0.43077
H    -3.76391   1.47774   2.13310
H    -3.24104   3.16539   2.35304
H    -4.58585   2.79296   1.24070
H    -1.62014  -0.98604  -2.41249
H    -2.01166  -3.25168  -0.96199
H    -1.19517  -3.46681  -2.52688
H     0.03141  -3.91798   0.14551
H     0.80690  -4.09668  -1.44100
H     2.03358  -2.16110  -0.42805
H     0.86895  -1.93359  -2.84598
H     0.93244  -0.33925  -2.04816
H    -0.41423  -0.93313   2.44269
H    -0.12115  -2.63688   2.03480
H     1.25658  -1.52758   2.24294
