52
Generated by autodE on: 2022-06-03. E = -1400.178252 Ha
C    -2.73347   3.46601  -1.49426
N    -2.33662   2.10966  -1.17031
C    -1.11815   1.83150  -0.69566
O    -0.28052   2.72229  -0.49526
C    -0.75683   0.34421  -0.49902
C    -0.89199  -0.33113  -1.94190
C    -0.35434  -1.74984  -1.93218
C    -1.24661  -2.46738  -1.24165
C    -2.32649  -1.48053  -0.83839
O    -2.31381  -0.56327  -1.94712
C    -1.78899  -0.53467   0.28484
F    -2.87100   0.18915   0.77225
C    -1.01388  -1.13283   1.46625
C    -1.47836  -2.53641   1.85032
C    -2.85444  -2.61413   2.44927
O    -0.76762  -3.51591   1.71390
N     0.38100  -1.04352   1.09234
C     1.29887  -1.23959   2.20965
C     0.59725   0.16259   0.26553
C     0.76808   1.32910   1.27462
O    -0.09833   1.62092   2.07776
O     1.99638   1.83666   1.31320
C     2.24294   2.84653   2.30272
C     1.78732   0.00221  -0.68366
C     2.14573   1.04802  -1.54987
C     3.19346   0.89480  -2.45943
C     3.90919  -0.30562  -2.51749
C     3.55960  -1.35107  -1.66043
C     2.50492  -1.19883  -0.75485
H    -3.78631   3.46174  -1.80133
H    -2.12427   3.87974  -2.31446
H    -2.61919   4.12696  -0.62159
H    -2.95059   1.33104  -1.38999
H    -0.58697   0.32010  -2.76598
H     0.58603  -2.06719  -2.37417
H    -1.21001  -3.51643  -0.95688
H    -3.33231  -1.86332  -0.63671
H    -1.25815  -0.48453   2.33171
H    -2.77032  -2.34489   3.51663
H    -3.24604  -3.63671   2.37181
H    -3.54384  -1.89046   1.99169
H     1.27101  -2.28918   2.53049
H     1.04465  -0.60558   3.08171
H     2.32542  -1.00316   1.90467
H     1.57973   3.70764   2.13675
H     2.07786   2.44457   3.31248
H     3.29066   3.14256   2.17702
H     1.59372   1.98605  -1.51163
H     3.45167   1.72034  -3.12712
H     4.73031  -0.42487  -3.22836
H     4.10329  -2.29808  -1.69824
H     2.22017  -2.03515  -0.11977
