20
Generated by autodE on: 2022-06-03. E = -614.917259 Ha
C     3.63859   0.63487   0.88358
N     2.28756   0.70472   0.36474
C     1.47942  -0.37709   0.35135
O     1.84975  -1.48604   0.76939
C     0.12283  -0.19177  -0.18253
C    -0.60582   0.88677  -0.50174
F    -0.26743   2.16703  -0.48657
C    -2.03519   0.40761  -0.80158
C    -2.63088  -0.06608   0.54664
C    -1.93378  -1.16265   0.85668
C    -0.91711  -1.33325  -0.29566
O    -1.71042  -0.85452  -1.40643
H     4.10886   1.62019   0.78011
H     3.64797   0.34836   1.94770
H     4.24150  -0.10403   0.33175
H     1.93815   1.59195   0.01918
H    -2.64593   1.05334  -1.44141
H    -3.41227   0.45245   1.10032
H    -1.98795  -1.79764   1.74008
H    -0.50856  -2.33285  -0.47199
