32
Generated by autodE on: 2022-06-03. E = -785.177651 Ha
C     1.16628   3.73061  -0.30924
O     1.15374   2.30476  -0.21267
C    -0.05847   1.72064  -0.08319
O    -1.08760   2.39135  -0.07714
C     0.05692   0.27226   0.04804
C     1.41317  -0.33786   0.04831
C     1.82829  -1.14707  -1.02323
C     3.10435  -1.71481  -1.03205
C     3.98530  -1.47745   0.02740
C     3.58418  -0.66735   1.09551
C     2.30867  -0.10072   1.10543
N    -1.04399  -0.52548   0.12830
C    -0.81369  -1.95298   0.46881
C    -2.31821  -0.12125  -0.05793
C    -3.51514  -0.92985  -0.01115
C    -4.78154  -0.13371  -0.26545
O    -3.58446  -2.15132   0.19914
H     2.22073   4.01660  -0.40323
H     0.73055   4.18863   0.59127
H     0.60377   4.06815  -1.19255
H     1.14345  -1.33035  -1.85417
H     3.41266  -2.34146  -1.87228
H     4.98382  -1.92084   0.02048
H     4.26779  -0.47840   1.92658
H     1.99492   0.52992   1.93983
H    -0.83959  -2.55829  -0.44575
H     0.15652  -2.05589   0.95658
H    -1.61518  -2.28400   1.13014
H    -2.43847   0.93047  -0.28736
H    -4.90168   0.65434   0.49592
H    -4.73543   0.36850  -1.24531
H    -5.64977  -0.80515  -0.23809
