40
Generated by autodE on: 2022-06-18. E = -878.276615 Ha
C     3.96459   2.14443  -0.49004
N     2.89377   1.37376   0.10505
C     2.78916   0.04227  -0.11483
O     3.66532  -0.63540  -0.66974
N     1.64055  -0.56465   0.38259
C     1.19123  -1.83993  -0.22971
C     1.64777  -3.06792   0.54186
C    -0.33986  -1.68179  -0.30440
C    -0.97859  -2.36923  -1.50070
C    -0.52180  -0.13878  -0.21558
C    -0.14617   0.45784  -1.52007
N     0.17148   0.90339  -2.54291
C    -1.89789   0.37864   0.18986
C    -2.88325  -0.46373   0.71927
C    -4.11368   0.06069   1.12781
C    -4.37119   1.42856   1.01423
C    -3.39139   2.27497   0.48464
C    -2.16541   1.75192   0.07294
N     0.55150   0.27222   0.73701
C     0.20409   0.14380   2.15530
H     4.93007   1.64729  -0.32204
H     3.99803   3.13656  -0.02098
H     3.83506   2.27727  -1.57890
H     2.03335   1.83633   0.38546
H     1.60480  -1.88242  -1.24940
H     1.28607  -3.03509   1.58127
H     1.26148  -3.98280   0.06524
H     2.74615  -3.12532   0.55272
H    -0.76821  -2.09347   0.61982
H    -0.77552  -3.45036  -1.46730
H    -0.57789  -1.97961  -2.44930
H    -2.07009  -2.23171  -1.50396
H    -2.70516  -1.53329   0.82488
H    -4.87330  -0.60885   1.53745
H    -5.33320   1.83496   1.33479
H    -3.58267   3.34625   0.39007
H    -1.40583   2.41973  -0.33968
H    -0.57196   0.87763   2.40750
H     1.10373   0.38090   2.73818
H    -0.14866  -0.86303   2.43931
