28
Generated by autodE on: 2022-06-18. E = -720.914482 Ha
C     4.73270   1.24807   0.34549
N     3.85206   0.12921   0.09251
C     2.52007   0.19950   0.33845
O     1.96068   1.25696   0.67248
N     1.91495  -1.04877   0.25037
N     0.59623  -1.09291   0.24510
C     0.06022  -2.29199   0.91637
C    -0.22298  -0.21901  -0.35293
C     0.32412   0.64677  -1.34122
N     0.69300   1.32640  -2.21252
C    -1.67357  -0.14144  -0.10926
C    -2.20028  -0.22036   1.19454
C    -3.57507  -0.11645   1.40269
C    -4.44009   0.07961   0.32106
C    -3.92232   0.18050  -0.97473
C    -2.54916   0.07685  -1.19075
H     5.68441   1.08428  -0.17683
H     4.27947   2.17568  -0.03091
H     4.94548   1.38648   1.42074
H     4.24999  -0.79634  -0.02731
H    -0.95134  -2.51373   0.56533
H     0.06881  -2.13381   2.00250
H     0.74318  -3.11198   0.66756
H    -1.53178  -0.34075   2.04773
H    -3.97170  -0.17672   2.41849
H    -5.51615   0.16332   0.48899
H    -4.59205   0.33932  -1.82264
H    -2.14910   0.15483  -2.20371
