28
Generated by autodE on: 2022-07-27. E = -720.914460 Ha
C     4.52812  -0.10997  -1.89010
N     3.78040   0.26641  -0.71091
C     2.49273  -0.11918  -0.52853
O     1.84259  -0.70348  -1.41070
N     2.05500   0.14716   0.76355
N     0.76426   0.02850   1.01163
C     0.48678  -0.44949   2.37917
C    -0.23450   0.36255   0.18478
C     0.06215   1.21571  -0.91524
N     0.22341   1.97197  -1.78648
C    -1.64038  -0.03176   0.37826
C    -1.98355  -1.33868   0.77554
C    -3.32241  -1.69681   0.92768
C    -4.33510  -0.76560   0.67485
C    -4.00286   0.52820   0.25881
C    -2.66658   0.89379   0.10517
H     3.90583   0.02035  -2.78630
H     4.86559  -1.16160  -1.86143
H     5.41271   0.53429  -1.97907
H     4.28074   0.60109   0.10574
H    -0.52207  -0.16800   2.69302
H     1.23632   0.02212   3.02455
H     0.61563  -1.53892   2.41584
H    -1.20194  -2.08009   0.94489
H    -3.57630  -2.71391   1.23403
H    -5.38291  -1.05070   0.79277
H    -4.78928   1.25796   0.05468
H    -2.41200   1.90537  -0.21767
