40
Generated by autodE on: 2022-06-18. E = -878.191354 Ha. Imaginary frequency = -304.2 cm-1
C     3.51132   2.02119  -1.23273
N     2.80868   1.31478  -0.18047
C     2.64325  -0.04026  -0.25429
O     3.35394  -0.74117  -0.98784
N     1.74262  -0.60220   0.63866
C     0.92268  -2.40279  -0.20927
C     0.72266  -3.17312   1.06680
C    -0.15672  -1.96749  -0.96518
C    -0.06154  -1.76964  -2.44800
C    -0.32561   0.34334   0.07082
C     0.08612   0.86498  -1.19072
N     0.33170   1.32411  -2.23382
C    -1.73198   0.62096   0.45319
C    -2.46874  -0.30634   1.21475
C    -3.79757  -0.04729   1.54764
C    -4.41576   1.13288   1.11962
C    -3.69694   2.05255   0.35059
C    -2.36587   1.79848   0.01666
N     0.63879   0.05468   0.99608
C     0.32718  -0.00827   2.43088
H     4.50482   1.58083  -1.39373
H     3.63934   3.07002  -0.93493
H     2.95964   1.99109  -2.18924
H     2.12410   1.84318   0.34961
H     1.86740  -2.56988  -0.73206
H    -0.20831  -2.88048   1.57552
H     0.63941  -4.24917   0.83079
H     1.56067  -3.05195   1.76680
H    -1.15853  -2.09566  -0.54550
H    -0.24343  -2.72836  -2.96853
H     0.93833  -1.41773  -2.74458
H    -0.80629  -1.05564  -2.82916
H    -2.00530  -1.24129   1.53010
H    -4.35755  -0.77751   2.13603
H    -5.45819   1.33084   1.37928
H    -4.17275   2.97470   0.00962
H    -1.80961   2.52269  -0.58177
H    -0.38368   0.78374   2.69068
H     1.27046   0.15151   2.96523
H    -0.08813  -0.98249   2.71533
