50
Generated by autodE on: 2022-06-06. E = -4203.701644 Ha
C    -5.53185  -0.17872  -0.51410
O    -4.24942  -0.04445   0.12529
C    -3.21181   0.16824  -0.66726
O    -3.27496   0.27457  -1.87729
C    -1.92574   0.34077   0.08221
N    -1.90452   1.13207   1.09510
C    -0.50325   1.37688   1.41204
C    -0.24374   1.16246   2.90212
C    -0.37811   2.88523   0.93339
C    -0.34173   3.95025   1.98555
O    -0.41807   3.13294  -0.25275
C     0.29536   0.47576   0.47883
C    -0.59012  -0.17465  -0.33492
C    -0.43325  -1.14336  -1.50381
C    -1.72958  -2.02868  -1.60568
C    -2.13772  -2.57884  -2.93555
O    -2.32099  -2.31747  -0.58027
C     0.54799  -2.33650  -1.28681
C     0.56998  -3.03241   0.04786
O     1.15995  -2.78377  -2.23777
C    -0.14651  -0.35695  -2.81397
C     1.28001   0.13099  -3.10034
C     1.98850   0.95274  -2.02308
C     2.48263   0.11000  -0.82636
C     1.79609   0.46024   0.48297
Cl    2.43752   2.10474   0.98295
Br    2.46388  -0.80527   1.90788
H    -5.52091  -1.03872  -1.19865
H    -5.77838   0.73583  -1.07125
H    -6.25325  -0.34179   0.29403
H     0.78197   1.43750   3.17530
H    -0.94535   1.76272   3.49539
H    -0.40010   0.10381   3.15050
H    -0.23370   4.93134   1.50609
H    -1.28616   3.91685   2.55319
H     0.47350   3.78379   2.70267
H    -2.90942  -3.34346  -2.78252
H    -2.54813  -1.76454  -3.55249
H    -1.27776  -3.00254  -3.47397
H    -0.02990  -3.95080  -0.06425
H     1.59780  -3.33877   0.28120
H     0.14787  -2.44110   0.86560
H    -0.83497   0.50027  -2.80907
H    -0.43935  -0.97993  -3.66702
H     1.20661   0.74903  -4.00990
H     1.91574  -0.72624  -3.36699
H     1.33426   1.76847  -1.67821
H     2.86208   1.44011  -2.48007
H     2.34971  -0.96037  -1.01855
H     3.56197   0.23718  -0.67199
