30
Generated by autodE on: 2022-06-06. E = -3650.793226 Ha
C    -2.71829   0.81368  -3.78321
C    -2.29782   1.02594  -2.36084
O    -3.03669   1.48329  -1.51121
C    -0.83824   0.64774  -1.98596
C     0.05056   1.80633  -2.54952
C     0.26103   2.99186  -1.65936
O     0.50395   1.72355  -3.67136
C    -0.67585   0.51208  -0.54571
C    -0.29032   0.06599   0.51330
C     0.40897  -0.85845   1.36560
Cl   -0.78166  -2.01137   2.12989
Br    1.35775   0.10134   2.84113
C     1.43120  -1.63717   0.51964
C     0.87638  -2.21437  -0.80004
C     0.91029  -1.31380  -2.06743
C    -0.41361  -0.72252  -2.59749
H    -1.94668   1.16758  -4.48201
H    -3.67261   1.32384  -3.96575
H    -2.84535  -0.26650  -3.96277
H    -0.68651   3.28653  -1.18197
H     0.95319   2.71007  -0.84892
H     0.68728   3.82444  -2.23322
H     1.83401  -2.44164   1.15210
H     2.26034  -0.94748   0.29907
H     1.49720  -3.09744  -1.01293
H    -0.14079  -2.60519  -0.63364
H     1.29886  -1.93757  -2.88668
H     1.65412  -0.50986  -1.93766
H    -1.23203  -1.43965  -2.43142
H    -0.32718  -0.57100  -3.68133
