50
Generated by autodE on: 2022-06-06. E = -4203.579972 Ha. Imaginary frequency = -258.3 cm-1
C    -4.84538  -2.47004   0.37791
O    -3.58924  -1.84324   0.70511
C    -3.37696  -0.63553   0.19827
O    -4.12871  -0.03297  -0.53562
C    -2.03068  -0.13883   0.57789
N    -1.73683   0.70989   1.39710
C    -0.90259   1.61890   1.80388
C    -0.46280   1.64398   3.23451
C    -0.73022   2.77224   0.85848
C     0.19071   3.87431   1.30147
O    -1.32868   2.79979  -0.20881
C     0.75892   0.13736   0.08408
C    -0.14254  -0.50920  -0.47947
C    -0.53646  -1.42383  -1.57970
C    -1.73737  -0.81251  -2.36493
C    -2.72721  -1.69793  -3.05925
O    -1.80488   0.40003  -2.43080
C    -0.74946  -2.88254  -1.10249
C    -0.50484  -3.21475   0.33899
O    -1.04666  -3.73651  -1.91741
C     0.60120  -1.45522  -2.66186
C     1.97423  -1.99322  -2.22679
C     3.04036  -0.96346  -1.82004
C     3.13859  -0.54609  -0.34916
C     2.14926   0.51223   0.15233
Cl    2.37868   2.07269  -0.77028
Br    2.74570   0.88331   2.07348
H    -4.92902  -2.59404  -0.71073
H    -5.68117  -1.86188   0.75034
H    -4.82772  -3.44529   0.87596
H     0.49265   2.16403   3.34694
H    -1.21340   2.17994   3.84170
H    -0.36150   0.62380   3.62852
H     0.30207   4.60275   0.48889
H    -0.23322   4.37076   2.19029
H     1.17659   3.47847   1.58418
H    -3.22935  -2.35105  -2.32965
H    -3.46497  -1.06942  -3.57340
H    -2.22032  -2.35994  -3.77538
H    -0.65521  -4.29013   0.49816
H    -1.17905  -2.63874   0.98859
H     0.52272  -2.92915   0.61328
H     0.21604  -2.07771  -3.48197
H     0.70429  -0.43106  -3.04949
H     2.37680  -2.53035  -3.09927
H     1.87156  -2.75684  -1.43821
H     2.96102  -0.06783  -2.45735
H     4.02133  -1.40729  -2.05192
H     3.01193  -1.42811   0.29841
H     4.14693  -0.15039  -0.16161
