47
Generated by autodE on: 2022-06-23. E = -1056.857063 Ha
C    -0.36298   2.14050  -2.69806
C    -0.19509   1.96433  -1.37984
C    -0.47263   3.05965  -0.38619
C     0.30970   0.63453  -0.86056
C     1.65716   0.77559  -0.07855
C     2.71537  -0.17987  -0.54804
C     3.98711   0.11756  -0.87256
C     4.92849  -0.96158  -1.33677
C     4.59450   1.49208  -0.81006
C     1.22105   0.58966   1.41705
C     1.84462  -0.58180   2.07118
N     2.31961  -1.49143   2.61212
O    -0.19262   0.47294   1.43663
C    -0.62558  -0.04044   0.18033
C    -0.45331  -1.57932   0.14157
O    -0.19370  -2.21352  -0.85940
O    -0.66740  -2.11859   1.33473
C    -0.50656  -3.54196   1.44690
C    -2.11616   0.19769   0.00768
C    -2.90870   0.61719   1.08288
C    -4.28330   0.80317   0.90906
C    -4.87575   0.56168  -0.33361
C    -4.08740   0.12785  -1.40449
C    -2.71381  -0.05654  -1.23548
H    -0.16355   1.33383  -3.40961
H    -0.70634   3.09648  -3.10506
H    -1.27122   2.76827   0.31384
H     0.41458   3.28643   0.22822
H    -0.78128   3.98460  -0.89400
H     0.44215  -0.04459  -1.70923
H     2.02094   1.80256  -0.17517
H     2.39799  -1.22531  -0.62963
H     4.44523  -1.94926  -1.36327
H     5.80950  -1.02099  -0.67371
H     5.31593  -0.73415  -2.34553
H     3.89548   2.27092  -0.47859
H     5.45755   1.49345  -0.12182
H     4.98897   1.78109  -1.79961
H     1.49192   1.46848   2.01994
H    -0.74078  -3.78951   2.48813
H    -1.19445  -4.05993   0.76402
H     0.53053  -3.82172   1.21285
H    -2.44828   0.80233   2.05293
H    -4.89321   1.13637   1.75203
H    -5.95020   0.70752  -0.46723
H    -4.54304  -0.06749  -2.37795
H    -2.10417  -0.40078  -2.07220
