24
Generated by autodE on: 2022-06-23. E = -705.242779 Ha
C    -3.63951  -1.31730  -1.00166
O    -2.51139  -0.48492  -0.69407
C    -1.37115  -1.10889  -0.36811
O    -1.27356  -2.32428  -0.32568
C    -0.28300  -0.16170  -0.07684
O    -0.47957   1.13312  -0.14767
C    -1.44102   1.97473  -0.42653
C    -1.09581   3.33300  -0.34617
N    -0.84410   4.47466  -0.28917
C     1.07837  -0.53058   0.30735
C     1.49864  -1.87389   0.43746
C     2.81009  -2.17350   0.80689
C     3.73397  -1.15514   1.05545
C     3.33051   0.18001   0.93009
C     2.02549   0.49135   0.56234
H    -3.41576  -1.95911  -1.86562
H    -3.89918  -1.94354  -0.13637
H    -4.46107  -0.63175  -1.23759
H    -2.43607   1.63476  -0.69970
H     0.79305  -2.67771   0.24765
H     3.11047  -3.21975   0.90050
H     4.75927  -1.39691   1.34418
H     4.04109   0.98757   1.12099
H     1.72906   1.53639   0.46973
