32
Generated by autodE on: 2022-06-17. E = -690.038034 Ha
C    -3.00971   2.02782   0.08207
C    -1.91418   1.02295   0.05554
N    -0.66802   1.32383   0.11734
N     0.10849   0.18968   0.10725
C     1.47661   0.35764  -0.13527
C     2.02962   1.65487  -0.23542
C     3.39786   1.83345  -0.43464
C     4.26070   0.73822  -0.54913
C     3.71966  -0.54669  -0.45432
C     2.35297  -0.74272  -0.24681
C    -0.71655  -1.01676  -0.26087
C    -0.40467  -2.27205   0.56145
C    -0.59559  -1.29142  -1.76320
C    -2.14774  -0.47224   0.04214
C    -2.70620  -0.87177   1.39233
O    -3.77315  -1.42926   1.54053
H    -2.60353   3.04700   0.13737
H    -3.67366   1.85915   0.94746
H    -3.63718   1.93780  -0.82067
H     1.37136   2.51687  -0.15418
H     3.79192   2.85073  -0.50664
H     5.33115   0.88368  -0.70871
H     4.36821  -1.42255  -0.53817
H     1.97953  -1.75897  -0.16741
H     0.46600  -2.81683   0.17573
H    -1.26021  -2.96176   0.50066
H    -0.22740  -2.03331   1.61926
H    -0.88474  -0.40294  -2.34510
H     0.43320  -1.56787  -2.03304
H    -1.26001  -2.12279  -2.04296
H    -2.87386  -0.78968  -0.71964
H    -2.08420  -0.58396   2.27209
