18
Generated by autodE on: 2022-06-17. E = -419.279544 Ha
C     3.98179   0.41311   1.26463
C     2.81565   0.17236   0.43784
N     1.87850  -0.02111  -0.22659
N     0.92934  -0.25866  -1.05406
C    -0.36113  -0.15011  -0.54008
C    -0.66268   0.19766   0.79430
C    -1.98913   0.28307   1.21888
C    -3.04456   0.02769   0.33724
C    -2.75016  -0.31841  -0.98927
C    -1.43113  -0.40701  -1.42462
H     4.06911  -0.35035   2.05398
H     3.92768   1.40989   1.73009
H     4.88521   0.37175   0.63516
H     0.14583   0.40189   1.49987
H    -2.19855   0.55432   2.25725
H    -4.08017   0.09632   0.67630
H    -3.56103  -0.52175  -1.69359
H    -1.19918  -0.67622  -2.45775
