14
Generated by autodE on: 2022-06-17. E = -270.687347 Ha
C    -1.39718  -1.89933  -0.01576
C    -0.82616  -0.51639  -0.09714
C    -1.81413   0.55181  -0.45947
C     0.49389  -0.30582   0.14855
C     1.16993   0.97866   0.10333
O     2.36914   1.12208   0.32995
H    -1.85584  -2.17706  -0.98063
H    -0.64006  -2.64987   0.24976
H    -2.21058  -1.92976   0.72988
H    -1.38881   1.56020  -0.51694
H    -2.27626   0.30935  -1.43152
H    -2.63510   0.55747   0.27753
H     1.13416  -1.15640   0.40554
H     0.55082   1.86769  -0.15208
