32
Generated by autodE on: 2022-06-17. E = -689.959483 Ha. Imaginary frequency = -357.1 cm-1
C    -2.76123   2.19262   0.84169
C    -1.62318   1.31121   0.58822
N    -0.45686   1.10163   0.79487
N     0.41191   0.15504   0.80615
C     1.62716   0.40164   0.16323
C     1.86897   1.52570  -0.65250
C     3.09754   1.67355  -1.29750
C     4.10118   0.70855  -1.15278
C     3.86417  -0.40980  -0.34381
C     2.64452  -0.56201   0.31439
C    -0.91903  -1.45421  -0.26613
C    -0.62385  -2.51696   0.75861
C    -0.12772  -1.53798  -1.53972
C    -2.12714  -0.74497  -0.29771
C    -3.20957  -0.95137   0.64157
O    -4.35934  -0.53735   0.48025
H    -3.15283   2.02594   1.85836
H    -3.56971   2.00002   0.12319
H    -2.43644   3.24152   0.75259
H     1.08941   2.28070  -0.77232
H     3.27194   2.55295  -1.92291
H     5.06021   0.82925  -1.66127
H     4.64125  -1.16785  -0.21757
H     2.45859  -1.42587   0.95525
H     0.45870  -2.68973   0.83191
H    -1.08742  -3.47055   0.44682
H    -1.00153  -2.26822   1.75839
H    -0.22033  -0.62134  -2.14056
H     0.93687  -1.73419  -1.35158
H    -0.50833  -2.38034  -2.14637
H    -2.41420  -0.25112  -1.23142
H    -2.95816  -1.51696   1.56730
