43
Generated by autodE on: 2022-06-18. E = -884.204121 Ha
C     0.82988   3.52209   1.94161
C     1.02518   3.01760   0.71628
C     2.25609   3.31561  -0.09461
C     0.02065   2.10807   0.03761
C     0.42729   0.62535   0.00778
C     1.48066   0.23630  -0.97838
C     2.40035  -0.73364  -0.81497
C     3.36947  -1.06219  -1.91758
C     2.54905  -1.57228   0.42432
C    -0.96263  -0.03329  -0.26148
C    -1.31147   0.07097  -1.70141
N    -1.61121   0.19481  -2.81538
C    -1.00180  -1.47655   0.21084
C    -1.22590  -1.74294   1.56776
C    -1.14425  -3.05242   2.04482
C    -0.83329  -4.10203   1.17339
C    -0.61288  -3.83644  -0.18069
C    -0.70020  -2.52736  -0.66288
O    -1.87060   0.76308   0.47889
N    -1.28896   2.09621   0.70606
C    -2.21957   3.05659   0.14101
H     1.57781   4.17563   2.40000
H    -0.07265   3.29998   2.51276
H     2.83974   2.39931  -0.28133
H     2.90470   4.04163   0.41591
H     1.98481   3.71877  -1.08498
H    -0.08557   2.44900  -1.01235
H     0.69792   0.32255   1.02703
H     1.44894   0.76785  -1.93519
H     3.21641  -0.43194  -2.80578
H     3.26972  -2.12010  -2.21751
H     4.41031  -0.93539  -1.57180
H     1.88262  -1.27274   1.24278
H     2.33777  -2.62991   0.19084
H     3.59021  -1.53422   0.78788
H    -1.45722  -0.92118   2.24639
H    -1.32155  -3.25382   3.10381
H    -0.76594  -5.12539   1.54966
H    -0.37206  -4.65011  -0.86842
H    -0.52230  -2.32760  -1.72112
H    -1.80540   4.05987   0.31840
H    -2.37114   2.91733  -0.94585
H    -3.18758   2.98823   0.65684
