23
Generated by autodE on: 2022-06-18. E = -351.521381 Ha
C    -3.32591   1.58632   0.84993
C    -2.47410   0.68525   0.31290
C    -2.97853  -0.49724  -0.47423
C    -1.03242   0.84789   0.49007
C    -0.07697   0.01486   0.00628
C     1.34194   0.22335   0.21093
C     2.35592  -0.55933  -0.23739
C     2.16890  -1.81075  -1.04750
C     3.78669  -0.20808   0.05847
H    -4.40881   1.48907   0.73267
H    -2.95651   2.44392   1.42070
H    -4.07623  -0.49959  -0.53024
H    -2.57922  -0.48971  -1.50208
H    -2.65301  -1.44676  -0.01773
H    -0.71698   1.72538   1.06739
H    -0.38379  -0.86262  -0.56928
H     1.61017   1.11341   0.79294
H     1.11827  -2.05129  -1.25478
H     2.62322  -2.67312  -0.52831
H     2.69813  -1.72262  -2.01284
H     4.28626  -1.02813   0.60501
H     3.87451   0.71195   0.65480
H     4.35812  -0.07357  -0.87761
