20
Generated by autodE on: 2022-06-18. E = -532.597702 Ha
C     3.59348   0.40655   0.20886
N     2.65010   1.47863   0.08819
O     1.39425   1.08994   0.01187
C     0.76681  -0.06646  -0.00067
C     1.39247  -1.34320  -0.00609
N     1.74769  -2.45431  -0.03050
C    -0.69413   0.01896  -0.03152
C    -1.34070   1.27354   0.00704
C    -2.73074   1.34640  -0.01622
C    -3.50383   0.17987  -0.07547
C    -2.87050  -1.06586  -0.11317
C    -1.47884  -1.15094  -0.09229
H     4.58349   0.86948   0.30451
H     3.40534  -0.21586   1.10467
H     3.60314  -0.25776  -0.67533
H    -0.74734   2.18680   0.05792
H    -3.21740   2.32386   0.01520
H    -4.59404   0.24345  -0.09072
H    -3.46322  -1.98211  -0.15895
H    -0.99897  -2.13042  -0.12293
