43
Generated by autodE on: 2022-06-18. E = -884.119461 Ha. Imaginary frequency = -280.8 cm-1
C     0.81120   1.52726   2.52567
C     0.80851   2.44166   1.53661
C     0.56817   3.90208   1.81177
C     1.01893   2.09736   0.11824
C     1.39810   0.83639  -0.33421
C     1.89943   0.61339  -1.66136
C     2.28620  -0.58107  -2.19322
C     2.78725  -0.66320  -3.60436
C     2.28835  -1.87682  -1.43707
C    -1.12142  -0.17593  -0.28055
C    -0.95304  -0.59290  -1.62042
N    -0.74823  -1.05878  -2.67245
C    -1.21449  -1.18945   0.77146
C    -1.57580  -0.82738   2.08697
C    -1.63088  -1.79114   3.09216
C    -1.32591  -3.12855   2.81418
C    -0.97118  -3.49646   1.51154
C    -0.92048  -2.54176   0.49734
O    -1.49811   1.05102   0.09155
N    -1.14987   2.23361  -0.44618
C    -1.09127   2.24792  -1.89232
H     0.62763   1.82401   3.56192
H     0.99703   0.46720   2.34416
H     1.42273   4.50942   1.46718
H     0.41213   4.09796   2.88222
H    -0.31514   4.25261   1.25417
H     1.20432   2.94222  -0.55095
H     1.44468   0.01552   0.38096
H     1.95686   1.49427  -2.30964
H     2.79359   0.31769  -4.10136
H     2.15917  -1.35183  -4.19597
H     3.81052  -1.07902  -3.63209
H     1.82300  -1.81061  -0.44630
H     1.76300  -2.65602  -2.01264
H     3.32644  -2.23347  -1.30902
H    -1.81150   0.21155   2.31391
H    -1.91387  -1.49383   4.10470
H    -1.36686  -3.87906   3.60669
H    -0.73338  -4.53743   1.28099
H    -0.64249  -2.84347  -0.51350
H    -0.89687   3.29120  -2.17674
H    -0.31687   1.61586  -2.34921
H    -2.07040   1.95089  -2.31019
