44
Generated by autodE on: 2022-10-23. E = -1055.476854 Ha
C    -4.58836  -1.63343   1.98227
O    -3.64359  -0.86630   1.23533
C    -2.35015  -1.25515   1.31591
O    -2.00807  -2.24084   1.98539
C    -1.43821  -0.46008   0.53758
N    -0.16348  -0.96978   0.58462
C     1.04149  -0.55154   0.20313
C     1.27412   0.83567  -0.22692
C     2.00686   1.10239  -1.39868
C     2.17735   2.41268  -1.84564
C     1.62931   3.47838  -1.12381
C     0.92311   3.22608   0.05757
C     0.74511   1.91726   0.50254
C     2.13499  -1.52908   0.24381
C     1.88961  -2.91635   0.13384
C     2.93493  -3.83563   0.22069
C     4.25056  -3.39627   0.40056
C     4.51067  -2.02411   0.49543
C     3.46950  -1.10097   0.41949
C    -1.82192   0.67183  -0.31283
C    -2.62813   1.71578   0.18321
C    -2.93986   2.82011  -0.61060
C    -2.44778   2.91346  -1.91686
C    -1.65920   1.87703  -2.42905
C    -1.35587   0.76803  -1.64059
H    -4.34884  -1.61924   3.05636
H    -5.56402  -1.16175   1.81202
H    -4.61262  -2.67737   1.63471
H    -0.17792  -1.88289   1.05661
H     2.41890   0.27204  -1.97507
H     2.73191   2.60273  -2.76747
H     1.75580   4.50391  -1.47832
H     0.50189   4.05418   0.63189
H     0.18805   1.72784   1.42080
H     0.87775  -3.28248  -0.05359
H     2.72108  -4.90301   0.12816
H     5.06888  -4.11741   0.45946
H     5.53419  -1.66988   0.63898
H     3.68474  -0.03621   0.51735
H    -2.98981   1.66675   1.21116
H    -3.55730   3.62278  -0.19973
H    -2.67930   3.78579  -2.53246
H    -1.27609   1.93352  -3.45077
H    -0.74069  -0.03253  -2.05410
