68
Generated by autodE on: 2022-10-23. E = -1780.065292 Ha. Imaginary frequency = -322.6 cm-1
C     0.93351   0.87762  -4.28625
O     0.76239   1.07144  -2.87807
C     1.72013   0.59038  -2.07941
O     2.75598   0.11979  -2.51406
C     1.41925   0.81519  -0.63535
C     2.53604   1.48629   0.09576
C     2.32511   2.68099   0.81317
C     3.36275   3.29192   1.52062
C     4.64379   2.73557   1.51587
C     4.87316   1.56280   0.78918
C     3.83734   0.94571   0.08775
N     0.16104   1.18795  -0.23468
C    -1.04278   0.51250  -0.31080
C    -1.62533   0.21934  -1.67735
C    -1.34109  -0.89916  -2.46966
C    -1.90725  -1.04071  -3.74006
C    -2.75813  -0.06057  -4.25403
C    -3.03760   1.07141  -3.48175
C    -2.48122   1.20389  -2.20898
C    -2.04736   0.93684   0.70870
C    -1.77978   1.86825   1.73359
C    -2.72950   2.16749   2.71296
C    -3.98307   1.55229   2.69983
C    -4.27814   0.64523   1.67690
C    -3.33096   0.35067   0.69838
C    -0.22263  -1.49799   0.55924
O    -0.86191  -2.50818  -0.11082
C    -2.23855  -2.77288   0.11502
C    -0.42540  -1.36525   2.07262
C     0.13617  -2.69096   2.67777
C     1.67525  -2.53235   2.50338
C     1.80099  -1.18142   1.72975
C     0.69725  -0.39030   2.45238
C     1.18579  -1.36542   0.33558
C     1.86465  -2.31256  -0.59803
F     1.69288  -3.62513  -0.25619
F     3.20527  -2.13644  -0.62033
F     1.43481  -2.23848  -1.87763
H     0.04002   1.30081  -4.75819
H     1.01412  -0.19331  -4.51973
H     1.83566   1.39840  -4.63909
H     1.35080   3.17390   0.80478
H     3.16591   4.21854   2.06487
H     5.45683   3.21423   2.06632
H     5.86953   1.11451   0.77365
H     4.02937   0.02496  -0.45541
H     0.22258   1.69919   0.63828
H    -0.67056  -1.66555  -2.10403
H    -1.66899  -1.92608  -4.33461
H    -3.19562  -0.17276  -5.24895
H    -3.69217   1.85568  -3.86995
H    -2.70741   2.09315  -1.61765
H    -0.83211   2.40643   1.79398
H    -2.48230   2.89613   3.48846
H    -4.72302   1.78340   3.46920
H    -5.25697   0.16140   1.63672
H    -3.59110  -0.35232  -0.08989
H    -2.86102  -2.23240  -0.61305
H    -2.55350  -2.50419   1.13256
H    -2.38167  -3.85278  -0.03274
H    -1.43731  -1.10307   2.39947
H    -0.26155  -3.57466   2.16006
H    -0.14625  -2.76567   3.73800
H     2.14233  -3.37528   1.98173
H     2.17551  -2.42568   3.47787
H     2.80796  -0.75153   1.74646
H     0.55685   0.63244   2.10662
H     0.86127  -0.35382   3.53904
