20
Generated by autodE on: 2022-10-06. E = -793.666799 Ha. Imaginary frequency = -444.1 cm-1
C     3.21536   1.53863   0.01737
C     2.48478   0.22750   0.18014
O     2.84502  -0.63027   0.97469
N     1.44169  -0.01972  -0.71349
N     0.67791   0.97074  -1.10541
O     0.12704   1.67753  -0.18791
C    -0.59629   0.10292   1.04978
C    -2.01571   0.64975   0.98551
O    -2.84616   0.09900   0.21623
O    -2.24811   1.62065   1.75531
C    -0.07884  -0.99307   0.34985
C    -0.78916  -1.65134  -0.82320
O    -1.09334  -2.85838  -0.67689
O    -0.98630  -0.96098  -1.86725
H     3.52656   1.67465  -1.02930
H     2.54603   2.37090   0.27737
H     4.09243   1.54357   0.67598
H     0.01889   0.60510  -1.82963
H    -0.05636   0.40326   1.95282
H     0.65972  -1.61048   0.86340
