13
Generated by autodE on: 2022-06-17. E = -453.089104 Ha
C     3.04175   0.25630   0.05254
C     1.58151   0.07986  -0.00298
N     0.65700   0.84388   0.52333
C    -0.61799   0.32629   0.23291
C    -1.82351   0.89696   0.64583
N    -2.84453   1.35832   0.98146
C    -0.42598  -0.84398  -0.53088
O    -1.12404  -1.68910  -1.05271
O     1.02263  -0.93732  -0.64113
H     3.44271   0.32826  -0.97071
H     3.50279  -0.61935   0.53598
H     3.29376   1.16486   0.61365
H     0.84724   1.68874   1.06129
