33
Generated by autodE on: 2022-06-17. E = -910.772364 Ha. Imaginary frequency = -578.5 cm-1
C    -0.06907   1.31060  -3.15917
N     0.41937   0.55248  -2.01721
C     1.29803   1.14023  -1.16094
C     1.84775   0.53005  -0.07401
C     2.76240   1.31447   0.76402
N     3.38015   0.64622   1.77123
O     2.98302   2.53014   0.58478
C     1.54807  -0.92519   0.20643
C     0.32433  -1.38211  -0.54484
C    -0.21363  -0.66718  -1.64339
C    -2.08166  -0.18963  -0.91440
C    -3.01494   0.21322  -2.00209
N    -2.35497  -1.28869  -0.12925
C    -1.43960  -1.21022   0.91030
C    -1.23454  -2.21035   1.88219
N    -1.01052  -3.03298   2.67650
C    -1.15538   0.19751   1.10195
O    -0.57980   0.81476   1.97162
O    -1.66583   0.80704  -0.03957
H    -0.78221   2.09852  -2.86449
H     0.77521   1.78734  -3.67710
H    -0.56525   0.63134  -3.86418
H     1.56971   2.17111  -1.39647
H     3.25845  -0.34614   1.92654
H     4.02069   1.15549   2.36994
H     1.41251  -1.10710   1.28752
H     2.40187  -1.57195  -0.08491
H     0.10970  -2.45046  -0.51357
H    -0.59342  -1.24068  -2.49283
H    -3.12991  -0.61629  -2.71347
H    -4.00095   0.45613  -1.57411
H    -2.63975   1.09213  -2.53544
H    -2.55382  -2.18122  -0.57887
