24
Generated by autodE on: 2022-06-16. E = -891.641071 Ha
C     3.38789   1.05429   1.23178
O     2.50335  -0.00770   0.81562
C     1.53344   0.31444  -0.01255
O     1.33415   1.39504  -0.50879
C     0.56408  -0.86810  -0.23904
C     1.16822  -2.16855   0.09501
N     1.61785  -3.21125   0.32650
O     0.20621  -0.83109  -1.61427
O    -1.16725  -1.30419  -1.66419
C    -1.78260  -0.57194  -0.62382
C    -2.13949   0.84996  -1.05998
O    -2.38202   1.10662  -2.22354
C    -2.21810   1.86930   0.00563
C    -1.60094   1.71287   1.19300
C    -0.78054   0.53050   1.51192
O    -0.08690   0.48505   2.51358
C    -0.79077  -0.65061   0.54424
H     4.10833   0.58979   1.91296
H     3.89801   1.48108   0.35785
H     2.80821   1.83104   1.74924
H    -2.72121  -1.10030  -0.38962
H    -2.75353   2.78915  -0.24353
H    -1.62396   2.49258   1.95852
H    -0.98460  -1.54323   1.15131
