12
Generated by autodE on: 2022-07-27. E = -509.926477 Ha
C     2.26426   0.45719   2.05143
O     1.28511  -0.12509   1.16728
C     0.52879   0.71072   0.47984
O     0.55853   1.91688   0.50460
C    -0.42346  -0.06147  -0.38210
C    -0.47733  -1.48122  -0.43559
N    -0.49626  -2.64319  -0.45680
O    -1.21641   0.63931  -1.09816
O    -2.08643   0.05345  -1.88870
H     1.76154   1.07618   2.80747
H     2.77861  -0.38748   2.52111
H     2.97006   1.06980   1.47338
