12
Generated by autodE on: 2022-06-16. E = -381.636095 Ha
O    -0.83036   2.53387   0.01808
C    -0.44817   1.36829   0.00965
C    -1.41466   0.24362   0.02673
C    -0.99642  -1.03410   0.01800
C     0.44817  -1.36829  -0.00965
O     0.83036  -2.53387  -0.01809
C     1.41466  -0.24362  -0.02673
C     0.99642   1.03410  -0.01800
H    -2.47301   0.51405   0.04701
H    -1.68948  -1.87865   0.03030
H     2.47301  -0.51406  -0.04701
H     1.68948   1.87865  -0.03030
