46
Generated by autodE on: 2022-05-31. E = -1226.052051 Ha
C    -0.18958   3.66260   1.57204
O    -0.07571   2.52989   0.70178
C    -0.94207   1.53033   0.89668
O    -1.87407   1.59555   1.67089
C    -0.69342   0.40222  -0.08991
C    -0.73497   0.97629  -1.57139
C    -2.00287   1.81301  -1.68059
C    -3.00453   0.92611  -1.72598
C    -2.33622  -0.43594  -1.64247
O    -1.08279  -0.19756  -2.30708
C    -1.85926  -0.62492  -0.16821
C    -1.19123  -1.98859   0.07731
C    -1.51251  -2.49699   1.48019
C    -2.85883  -3.13232   1.65900
O    -0.70363  -2.38816   2.38451
O     0.19775  -1.80722  -0.12220
C     0.59187  -0.47161   0.17970
C     1.08390  -0.44178   1.65569
C     2.14500  -1.44346   2.01685
O     0.69947   0.40476   2.43981
C     1.78793  -0.10291  -0.69219
C     2.10549  -0.86216  -1.82425
C     3.18441  -0.49885  -2.63562
C     3.95709   0.62245  -2.32205
C     3.64633   1.37985  -1.18792
C     2.56989   1.01849  -0.37568
H    -1.17838   4.13162   1.46792
H    -0.03633   3.35386   2.61639
H     0.59685   4.36115   1.26412
H     0.20065   1.41740  -1.92204
H    -2.04512   2.90021  -1.62567
H    -4.08012   1.10252  -1.71985
H    -2.86007  -1.29716  -2.07120
H    -2.65535  -0.41014   0.55152
H    -1.53399  -2.74079  -0.64965
H    -2.81569  -4.14617   1.22443
H    -3.11063  -3.20669   2.72484
H    -3.63876  -2.58207   1.11139
H     2.10346  -2.33789   1.38571
H     2.04913  -1.70959   3.07753
H     3.12480  -0.95902   1.87059
H     1.50193  -1.73404  -2.07152
H     3.42110  -1.09795  -3.51818
H     4.80073   0.90413  -2.95648
H     4.24587   2.25632  -0.93140
H     2.33146   1.61970   0.50257
