27
Generated by autodE on: 2022-07-27. E = -690.430215 Ha
C    -3.46387  -2.26552   1.60335
C    -2.21828  -1.48882   1.25462
O    -2.00800  -0.36245   1.77454
C    -1.36282  -2.03660   0.28089
O    -0.41915  -1.27225  -0.31891
C     0.18158  -0.19625   0.09897
C     0.33084   0.12797   1.56100
C     0.64994  -1.01298   2.49050
O     0.42351   1.29332   1.91889
C     0.83208   0.58107  -0.94262
C     0.49009   0.34792  -2.29665
C     1.10956   1.06322  -3.31542
C     2.07774   2.02862  -3.01074
C     2.42336   2.27051  -1.67679
C     1.81155   1.55847  -0.64822
H    -3.51554  -3.23472   1.08912
H    -4.35097  -1.66677   1.33959
H    -3.49167  -2.42894   2.69267
H    -1.59719  -2.91547  -0.31543
H     0.40113  -2.00273   2.08716
H     0.12531  -0.85922   3.44369
H     1.73551  -0.96906   2.68070
H    -0.27591  -0.39004  -2.53615
H     0.83127   0.87569  -4.35473
H     2.55994   2.59238  -3.81246
H     3.18190   3.01809  -1.43533
H     2.09934   1.75040   0.38342
