19
Generated by autodE on: 2022-05-31. E = -535.502990 Ha
C     3.44570   0.67353   0.48711
O     2.04859   0.67936   0.16817
C     1.42643  -0.51131   0.16023
O     1.99476  -1.56265   0.40308
C     0.00559  -0.37539  -0.16600
C    -0.94508  -1.32055  -0.09527
C    -2.25608  -0.58411  -0.43156
C    -2.55447   0.36105   0.75749
C    -1.61558   1.30842   0.68582
C    -0.75327   0.92284  -0.53818
O    -1.76473   0.36508  -1.39914
H     3.77070   1.71960   0.44635
H     3.61038   0.26377   1.49445
H     4.00593   0.07307  -0.24458
H    -0.85151  -2.36483   0.20052
H    -3.08348  -1.18678  -0.82030
H    -3.33770   0.20514   1.49830
H    -1.41837   2.14853   1.35066
H    -0.17669   1.71322  -1.02765
