46
Generated by autodE on: 2022-05-31. E = -1225.944010 Ha. Imaginary frequency = -162.6 cm-1
C     0.21023   3.48856   1.57164
O    -0.15659   2.53627   0.56849
C    -0.98116   1.54164   0.94713
O    -1.44948   1.45753   2.07096
C    -1.25574   0.63309  -0.16262
C    -0.94724   0.91998  -1.65177
C    -2.19542   1.63210  -2.22076
C    -3.14747   0.69355  -2.24786
C    -2.46449  -0.58144  -1.69804
O    -1.12982  -0.39680  -2.20077
C    -2.23080  -0.32596  -0.19901
C    -0.80682  -2.43865   0.30129
C    -1.35388  -2.28405   1.60889
C    -2.64053  -3.01804   1.89357
O    -0.83857  -1.55157   2.47581
O     0.29437  -1.83122  -0.14059
C     0.98659  -0.82247   0.33038
C     1.30080  -0.69663   1.80647
C     1.86940  -1.94677   2.42891
O     1.36948   0.39064   2.35591
C     1.88147  -0.19584  -0.63794
C     1.97707  -0.71036  -1.95138
C     2.78920  -0.08967  -2.89454
C     3.51659   1.05886  -2.55701
C     3.43269   1.57390  -1.25967
C     2.63112   0.95388  -0.30294
H    -0.67689   4.02277   1.94267
H     0.71122   2.98620   2.41075
H     0.89763   4.19088   1.08569
H     0.03290   1.33776  -1.89503
H    -2.25243   2.69064  -2.47198
H    -4.19856   0.77126  -2.52354
H    -2.88759  -1.54917  -1.98497
H    -2.94116  -0.56523   0.58810
H    -1.21556  -3.12370  -0.43806
H    -2.43356  -3.81663   2.62521
H    -3.35686  -2.32429   2.35961
H    -3.08592  -3.46570   0.99523
H     2.96308  -1.90588   2.28276
H     1.65729  -1.94369   3.50674
H     1.49648  -2.87093   1.97037
H     1.40493  -1.59578  -2.22364
H     2.85477  -0.50183  -3.90396
H     4.14795   1.54735  -3.30256
H     3.99763   2.46821  -0.98772
H     2.56934   1.36738   0.70146
