65
Generated by autodE on: 2022-06-08. E = -1476.260894 Ha
C     2.71851   0.88164   3.93929
N     2.52587   0.63734   2.52267
C     1.31935   0.32236   2.02841
O     0.33777   0.21528   2.77194
C     1.13799   0.25547   0.47737
C     2.48534   0.25810  -0.25111
C     2.76467   1.16040  -1.28587
C     3.97524   1.10136  -1.98313
C     4.92943   0.13373  -1.66163
C     4.66052  -0.77732  -0.63537
C     3.45207  -0.71529   0.06063
N     0.34282   1.44021   0.12751
C     0.76370   2.73190   0.65020
C    -1.07302   1.18427   0.13399
C    -1.72205   1.58648   1.41891
N    -2.19955   2.03654   2.37553
C    -1.85311   2.03131  -0.91195
O    -3.05510   2.17915  -0.84885
O    -1.08675   2.54569  -1.85636
C    -1.74984   3.28436  -2.89793
C    -1.25182  -0.37690  -0.18085
C    -2.42251  -0.91453   0.64648
C    -2.29453  -1.30527   1.98916
C    -3.40009  -1.72962   2.73110
C    -4.67166  -1.76007   2.15531
C    -4.82386  -1.34669   0.82945
C    -3.71529  -0.93101   0.08919
C    -1.47585  -0.60944  -1.71765
C    -1.65861  -2.12319  -1.98605
C    -0.21513  -2.67464  -1.85677
C     0.59060  -1.42535  -1.44859
C    -0.08578  -0.36730  -2.32042
C     0.23574  -0.98262   0.01918
C     0.41095  -2.19736   0.93919
H     3.77695   1.10569   4.11931
H     2.10846   1.73254   4.28297
H     2.43384   0.00002   4.53407
H     3.30709   0.76388   1.88966
H     2.02306   1.90876  -1.56117
H     4.16836   1.81708  -2.78579
H     5.87500   0.08739  -2.20680
H     5.39285  -1.54533  -0.37585
H     3.25834  -1.44382   0.84880
H     0.25920   3.53638   0.09670
H     1.84454   2.85579   0.51340
H     0.53651   2.86015   1.72528
H    -2.29738   4.13506  -2.46939
H    -0.95581   3.63482  -3.56614
H    -2.44658   2.62867  -3.43886
H    -1.33059  -1.22771   2.48028
H    -3.26203  -2.02743   3.77349
H    -5.53650  -2.09097   2.73536
H    -5.81192  -1.34652   0.36279
H    -3.87256  -0.60762  -0.93835
H    -2.28841  -0.00597  -2.13627
H    -2.35690  -2.60117  -1.28924
H    -2.05956  -2.26687  -3.00017
H     0.16204  -3.02857  -2.82792
H    -0.13141  -3.51350  -1.15628
H     1.66655  -1.56193  -1.58679
H    -0.05266  -0.61717  -3.39181
H     0.29306   0.64529  -2.17886
H    -0.40513  -2.91717   0.80786
H     1.34725  -2.71254   0.67647
H     0.45811  -1.94580   2.00048
