30
Generated by autodE on: 2022-06-08. E = -543.362514 Ha
C    -1.23679  -1.78796  -1.59427
C    -1.31880  -0.95605  -0.35810
C    -0.37513  -0.21166   0.27818
C     1.04943  -0.04883  -0.03076
C     1.69804   1.17934   0.22274
C     3.05104   1.35520  -0.07293
C     3.79836   0.30592  -0.61825
C     3.17706  -0.92483  -0.85633
C     1.82372  -1.10245  -0.56350
C    -1.11229   0.63174   1.32057
C    -1.94163   1.69381   0.53010
C    -3.01018   0.82336  -0.19258
C    -2.65733  -0.62235   0.28808
C    -2.22561  -0.34612   1.73981
H    -2.08166  -1.55007  -2.26327
H    -0.30190  -1.63595  -2.15166
H    -1.31959  -2.86486  -1.36163
H     1.13025   2.01076   0.64472
H     3.52591   2.31951   0.12528
H     4.85817   0.44268  -0.84590
H     3.75420  -1.75888  -1.26370
H     1.36576  -2.07952  -0.72268
H    -0.48415   1.04909   2.11811
H    -1.31054   2.26561  -0.16509
H    -2.40990   2.40867   1.22405
H    -2.96582   0.90660  -1.28848
H    -4.03007   1.09325   0.12188
H    -3.45384  -1.36025   0.12031
H    -3.01341   0.12369   2.35029
H    -1.84174  -1.24077   2.25267
