35
Generated by autodE on: 2022-07-27. E = -932.865300 Ha
C    -0.67899  -1.94755   3.14514
N     0.08039  -1.25327   2.12184
C    -0.34995  -1.12435   0.86210
O    -1.32017  -1.69748   0.36540
C     0.50775  -0.24216  -0.03588
C     1.82623  -0.74270  -0.41943
C     1.98470  -2.12906  -0.62909
C     3.23108  -2.64565  -0.97264
C     4.33773  -1.79568  -1.07877
C     4.19406  -0.42407  -0.84332
C     2.94650   0.10668  -0.52253
N    -0.03001   0.87746  -0.45461
C     0.50979   1.66352  -1.57705
C    -1.16403   1.41983   0.22806
C    -1.07370   1.64499   1.60824
N    -0.99797   1.84606   2.76100
C    -2.42962   1.58761  -0.42555
O    -3.43456   2.05795   0.10670
O    -2.43464   1.14514  -1.70794
C    -3.65583   1.30543  -2.43269
H     0.00711  -2.44299   3.84533
H    -1.31338  -1.24146   3.70545
H    -1.31848  -2.70223   2.67203
H     0.84255  -0.64875   2.41927
H     1.12201  -2.79282  -0.54695
H     3.34182  -3.71677  -1.15302
H     5.31694  -2.20494  -1.33698
H     5.06084   0.23699  -0.90565
H     2.85052   1.17254  -0.31603
H     1.13588   2.47757  -1.18885
H    -0.34141   2.09373  -2.11353
H     1.08809   1.02086  -2.24922
H    -3.94084   2.36635  -2.49682
H    -4.47167   0.74228  -1.95569
H    -3.46627   0.90849  -3.43750
