35
Generated by autodE on: 2022-06-08. E = -932.869573 Ha
C     2.78756   0.42639   2.44197
N     1.44420   0.22800   1.93524
C     1.22961  -0.35188   0.74511
O     2.13575  -0.81519   0.04818
C    -0.22515  -0.48743   0.34797
C    -1.22739  -0.71238   1.40105
C    -2.41079   0.05157   1.43029
C    -3.34136  -0.13476   2.45112
C    -3.10854  -1.08629   3.44985
C    -1.93389  -1.84597   3.43046
C    -0.99249  -1.65632   2.41980
N    -0.56168  -0.48406  -0.93116
C    -1.83882  -1.07609  -1.38120
C     0.22070   0.10824  -1.93057
C     0.15915  -0.40097  -3.23955
N     0.12322  -0.81519  -4.33395
C     0.95600   1.32124  -1.66234
O     0.96628   1.93868  -0.60146
O     1.63521   1.74776  -2.75079
C     2.34811   2.98043  -2.61535
H     3.31260  -0.53465   2.55412
H     2.72799   0.91693   3.42066
H     3.37521   1.05894   1.75703
H     0.65635   0.60889   2.44918
H    -2.58676   0.80536   0.66131
H    -4.25053   0.47005   2.47016
H    -3.84062  -1.23199   4.24733
H    -1.74976  -2.59086   4.20754
H    -0.07942  -2.25398   2.40640
H    -2.54913  -0.28021  -1.63809
H    -1.63314  -1.67606  -2.27622
H    -2.24791  -1.72372  -0.60252
H     1.65904   3.81144  -2.40290
H     3.09382   2.91340  -1.80932
H     2.84864   3.14670  -3.57680
