65
Generated by autodE on: 2022-06-08. E = -1476.195430 Ha. Imaginary frequency = -222.0 cm-1
C     1.56003   1.42290   4.15198
N     1.59917   1.35790   2.70536
C     1.30225   0.21170   2.05756
O     1.14601  -0.83954   2.67636
C     1.33361   0.40933   0.51473
C     2.67914   0.12544  -0.04549
C     3.05246   0.47653  -1.36246
C     4.30161   0.12964  -1.87482
C     5.21328  -0.59173  -1.09919
C     4.85545  -0.96774   0.19815
C     3.61008  -0.61671   0.71667
N     0.63183   1.55421   0.14205
C     1.27745   2.70073  -0.52727
C    -0.72033   1.66857   0.49552
C    -1.16732   1.42415   1.81679
N    -1.58467   1.23940   2.89230
C    -1.72826   2.33921  -0.31420
O    -2.89760   2.45511   0.04741
O    -1.30455   2.77689  -1.50929
C    -2.29389   3.33042  -2.38201
C    -1.21666  -0.76673  -0.32863
C    -2.23810  -1.08408   0.66306
C    -1.93922  -1.65656   1.92091
C    -2.95039  -1.98172   2.82445
C    -4.28926  -1.73040   2.51392
C    -4.60624  -1.13424   1.28788
C    -3.60028  -0.81443   0.37958
C    -1.61829  -0.41579  -1.76060
C    -1.84864  -1.80260  -2.44643
C    -0.40484  -2.36779  -2.55554
C     0.45699  -1.24052  -1.90413
C    -0.28803  -0.00634  -2.40873
C     0.13248  -1.25759  -0.40064
C     0.66281  -2.48418   0.30869
H     1.87902   2.42265   4.47093
H     0.53874   1.23435   4.52312
H     2.23207   0.67303   4.59465
H     1.63729   2.22699   2.18398
H     2.36413   1.01073  -2.01004
H     4.55813   0.42030  -2.89598
H     6.19035  -0.86391  -1.50456
H     5.55068  -1.53985   0.81657
H     3.35831  -0.93872   1.72605
H     1.19732   2.67398  -1.62078
H     2.33572   2.72784  -0.24265
H     0.79714   3.61777  -0.16811
H    -2.76402   4.21460  -1.92791
H    -1.76100   3.61458  -3.29706
H    -3.06860   2.58478  -2.61252
H    -0.90545  -1.82062   2.20734
H    -2.68552  -2.42554   3.78720
H    -5.07958  -1.98649   3.22348
H    -5.64747  -0.91884   1.03619
H    -3.87507  -0.35191  -0.56689
H    -2.45692   0.27822  -1.87243
H    -2.52210  -2.44482  -1.86217
H    -2.30399  -1.65083  -3.43670
H    -0.10149  -2.49254  -3.60568
H    -0.28188  -3.33877  -2.05823
H     1.52584  -1.32524  -2.13017
H    -0.35946   0.03550  -3.50587
H     0.10701   0.94052  -2.04829
H     0.00318  -3.34428   0.10607
H     1.65962  -2.72844  -0.08939
H     0.75973  -2.36806   1.38610
