49
Generated by autodE on: 2022-06-24. E = -1216.131473 Ha
C     4.43453   2.68742   0.08155
N     3.31081   1.92760   0.59147
C     2.08423   2.03235   0.05947
O     1.79503   2.83918  -0.83410
C     1.04996   1.06314   0.62101
N    -0.30096   1.50561   0.28421
C    -1.16927   0.34390   0.15276
C    -1.80039   0.34048  -1.26148
O    -1.38195   1.11147  -2.13578
N    -2.78998  -0.53036  -1.46943
C    -3.34506  -0.75457  -2.78802
C    -2.27107   0.30789   1.22907
O    -3.06263  -0.64710   1.29885
N    -2.26244   1.34849   2.06254
C    -3.16158   1.50391   3.18435
C    -0.23329  -0.92487   0.40991
N    -0.60206  -2.13828  -0.25629
C    -1.12234  -3.24288   0.53025
C    -0.09995  -2.37519  -1.51982
C     0.81836  -1.59467  -2.12971
C     1.42275  -0.39358  -1.46336
C     1.18586  -0.37666   0.06694
C     2.25011  -1.17475   0.82073
N     2.45859  -2.43081   0.39819
O     2.87367  -0.69529   1.78057
H     4.69792   2.38862  -0.94716
H     5.30345   2.51941   0.72973
H     4.20388   3.76306   0.07139
H     3.46357   1.14884   1.23389
H     1.17514   1.01146   1.71178
H    -0.26791   1.98377  -0.61976
H    -3.07676  -1.10099  -0.67606
H    -2.57520  -1.13936  -3.47763
H    -4.15433  -1.49117  -2.71330
H    -3.74944   0.17635  -3.21453
H    -1.53074   2.03240   1.86454
H    -3.60106   2.51225   3.18613
H    -3.96751   0.76387   3.10490
H    -2.63814   1.35266   4.14242
H    -0.25785  -1.11049   1.49212
H    -0.32776  -3.76812   1.09300
H    -1.60698  -3.96974  -0.13808
H    -1.87480  -2.87680   1.24022
H    -0.50235  -3.26580  -2.01014
H     1.12174  -1.83716  -3.14967
H     2.50611  -0.34516  -1.66052
H     1.00190   0.52832  -1.89448
H     3.18071  -2.98641   0.84759
H     1.99326  -2.79380  -0.43019
