29
Generated by autodE on: 2022-06-24. E = -758.371573 Ha
C     5.19434   0.65097   0.23866
N     3.80409   1.03225   0.37978
C     2.80276   0.18438   0.07541
O     2.99882  -0.97339  -0.33766
C     1.44204   0.70557   0.26276
N     0.47419  -0.12457  -0.05690
C    -0.87508  -0.13298  -0.09623
C    -1.74753   0.93170   0.40223
O    -2.95943   0.97856   0.09727
N    -1.21581   1.87364   1.22216
C    -2.05550   2.90044   1.80995
C    -1.37302  -1.39772  -0.68569
O    -0.55779  -2.29594  -0.99344
N    -2.69545  -1.53118  -0.87053
C    -3.26602  -2.72598  -1.45250
H     5.82649   1.48795   0.55828
H     5.43803   0.40242  -0.80696
H     5.43141  -0.22895   0.85782
H     3.57496   1.96525   0.70753
H     1.25338   1.72247   0.59783
H     0.83101  -1.04025  -0.41059
H    -0.32363   1.69452   1.66879
H    -2.79519   2.48082   2.51291
H    -1.41750   3.61133   2.34973
H    -2.60458   3.44144   1.02625
H    -3.26382  -0.71509  -0.63683
H    -2.99926  -3.62304  -0.87116
H    -4.35872  -2.62852  -1.46349
H    -2.91756  -2.88340  -2.48708
