49
Generated by autodE on: 2022-06-24. E = -1216.074566 Ha. Imaginary frequency = -299.2 cm-1
C     4.56153   2.19850   0.31419
N     3.17946   1.96426   0.68248
C     2.21608   1.80183  -0.24451
O     2.38966   2.00356  -1.45550
C     0.91012   1.30968   0.27148
N    -0.14014   1.46434  -0.55295
C    -1.35517   0.82304  -0.35126
C    -1.89379   0.25233  -1.59008
O    -1.25633   0.34456  -2.66560
N    -3.05790  -0.42374  -1.51114
C    -3.53225  -1.24434  -2.60232
C    -2.13486   0.98527   0.86666
O    -3.17347   0.31358   1.09725
N    -1.70718   1.89288   1.78495
C    -2.45164   2.14424   3.00175
C    -0.19645  -1.26388   0.63272
N    -0.83173  -2.26862  -0.02291
C    -2.07793  -2.82296   0.49623
C    -0.21100  -2.91097  -1.09769
C     0.94060  -2.46080  -1.62312
C     1.52919  -1.15815  -1.16080
C     1.11719  -0.83172   0.27013
C     2.08331  -0.84959   1.40879
N     3.31793  -1.33585   1.16460
O     1.77964  -0.40664   2.53216
H     4.62594   3.00267  -0.43189
H     5.12547   2.49550   1.20709
H     5.02567   1.29341  -0.11320
H     2.97526   1.67670   1.63567
H     0.73922   1.32427   1.34655
H     0.10441   1.54500  -1.54511
H    -3.46540  -0.48581  -0.57619
H    -2.78008  -1.99404  -2.90258
H    -4.44212  -1.76874  -2.28377
H    -3.77336  -0.64119  -3.49277
H    -0.99372   2.56095   1.51686
H    -1.85761   2.79967   3.65154
H    -3.42396   2.62978   2.80736
H    -2.64798   1.20352   3.53654
H    -0.56430  -1.05939   1.63867
H    -2.54239  -2.09948   1.17314
H    -1.88936  -3.76603   1.03657
H    -2.77278  -3.02578  -0.32947
H    -0.71440  -3.81626  -1.44016
H     1.41845  -3.01964  -2.43004
H     1.15098  -0.35238  -1.82053
H     2.61950  -1.13522  -1.29326
H     3.98590  -1.35887   1.92827
H     3.56359  -1.78323   0.29078
