64
Generated by autodE on: 2022-10-24. E = -1976.556500 Ha
C     1.02109   3.99449  -0.58310
O     0.80344   2.67686  -0.06395
C     1.35352   1.66573  -0.73408
O     2.04564   1.84749  -1.71309
C     1.10479   0.29501  -0.02814
C     2.34556   0.07035   0.87162
C     2.20816  -0.60750   2.09328
C     3.31868  -0.87285   2.89686
C     4.59443  -0.46347   2.49925
C     4.74300   0.21861   1.28974
C     3.63044   0.48542   0.48658
N    -0.11727   0.23539   0.76895
C    -0.33785   1.17125   1.86061
C    -1.28111  -0.18359  -0.02732
C    -2.35986  -0.86614   0.81960
C    -2.06010  -1.44785   2.05896
C    -3.02848  -2.16602   2.76625
C    -4.31103  -2.33008   2.23650
C    -4.61283  -1.77492   0.98929
C    -3.64586  -1.04943   0.28931
C    -1.83482   1.06127  -0.76216
C    -1.29642   1.53102  -1.97271
C    -1.68728   2.75955  -2.50948
C    -2.62163   3.55939  -1.84586
C    -3.15905   3.11244  -0.63734
C    -2.76924   1.87935  -0.10539
C    -0.63712  -1.27183  -0.95809
Cl   -1.57363  -1.44629  -2.49575
C    -0.51529  -2.72266  -0.35323
C    -0.00966  -3.63818  -1.46121
C     1.28378  -3.33283  -1.60404
C     1.55261  -2.24314  -0.58106
O     0.64299  -2.58891   0.47006
C     0.89594  -0.90051  -1.09910
O     1.21312  -0.59207  -2.41652
C     2.56686  -0.73896  -2.83495
H     0.65270   4.06543  -1.61555
H     0.45515   4.67033   0.06805
H     2.09179   4.24397  -0.55668
H     1.22306  -0.94309   2.40678
H     3.18212  -1.40505   3.84137
H     5.46354  -0.67156   3.12769
H     5.73127   0.55060   0.96291
H     3.77823   1.01888  -0.45107
H     0.62517   1.47352   2.28572
H    -0.86388   2.08900   1.55611
H    -0.92192   0.69644   2.66120
H    -1.05180  -1.36488   2.46063
H    -2.77303  -2.60619   3.73308
H    -5.06866  -2.89174   2.78811
H    -5.60767  -1.90520   0.55656
H    -3.89472  -0.62739  -0.68451
H    -0.55661   0.94686  -2.51386
H    -1.25051   3.09252  -3.45399
H    -2.92566   4.52108  -2.26580
H    -3.88731   3.72401  -0.09908
H    -3.20251   1.55534   0.84081
H    -1.38455  -3.06098   0.21301
H    -0.62137  -4.33219  -2.03474
H     2.00382  -3.71802  -2.32439
H     2.57574  -2.14448  -0.21255
H     3.28288  -0.48472  -2.04350
H     2.75970  -1.76782  -3.17964
H     2.71940  -0.05124  -3.67708
