47
Generated by autodE on: 2022-10-24. E = -1094.785805 Ha
C     4.04833  -0.72442   3.02804
O     3.22696  -0.85629   1.87225
C     1.87481  -0.77962   2.07643
O     1.42462  -0.67969   3.22969
C     1.11133  -0.82999   0.87667
C     1.63187  -0.58797  -0.47579
C     2.65408   0.34886  -0.73742
C     3.08677   0.60219  -2.04057
C     2.50449  -0.05937  -3.12633
C     1.48371  -0.98784  -2.88682
C     1.05796  -1.24946  -1.58586
N    -0.29384  -0.95806   1.01196
C    -0.79992  -2.10042   1.78984
C    -1.11137  -0.12786   0.37000
C    -0.60390   1.19486  -0.04531
C     0.07575   2.01182   0.87859
C     0.54852   3.26136   0.48943
C     0.37062   3.70455  -0.82945
C    -0.30019   2.89765  -1.75039
C    -0.79663   1.65103  -1.35812
C    -2.47705  -0.50746  -0.01101
C    -2.76346  -1.78643  -0.52981
C    -4.05838  -2.10824  -0.93445
C    -5.08616  -1.16579  -0.82265
C    -4.80975   0.11059  -0.31853
C    -3.51444   0.44371   0.07229
H     3.86664  -1.54023   3.74490
H     3.87465   0.23677   3.53670
H     5.08579  -0.77084   2.67250
H     3.09655   0.90042   0.09192
H     3.87531   1.34032  -2.20938
H     2.83767   0.14734  -4.14599
H     1.01789  -1.51708  -3.72219
H     0.25640  -1.97344  -1.42108
H    -1.85198  -1.94788   2.05295
H    -0.20348  -2.16179   2.70562
H    -0.67960  -3.02875   1.21624
H     0.22954   1.65652   1.89913
H     1.06198   3.89596   1.21527
H     0.75464   4.68092  -1.13380
H    -0.44026   3.23700  -2.77906
H    -1.31575   1.01596  -2.07773
H    -1.96336  -2.51844  -0.64290
H    -4.26480  -3.09855  -1.34637
H    -6.10061  -1.42250  -1.13618
H    -5.60835   0.85085  -0.23345
H    -3.29850   1.44080   0.45974
