47
Generated by autodE on: 2022-10-26. E = -1094.786734 Ha
C    -0.87072   3.45629   0.10643
O    -0.41335   2.19657   0.58281
C     0.89431   1.87355   0.30598
O     1.65180   2.73567  -0.15938
C     1.23849   0.52938   0.63653
C     2.58177  -0.01749   0.54096
C     2.77847  -1.41666   0.40520
C     4.05587  -1.96991   0.30968
C     5.19051  -1.15278   0.32987
C     5.01824   0.23195   0.45363
C     3.74652   0.79178   0.56130
N     0.17847  -0.35094   0.99253
C     0.25315  -0.97304   2.32684
C    -0.88274  -0.49063   0.21619
C    -2.17249  -0.95143   0.75918
C    -2.90118  -1.94710   0.08241
C    -4.13671  -2.36611   0.57352
C    -4.67282  -1.77387   1.72289
C    -3.96808  -0.76094   2.38162
C    -2.72133  -0.35255   1.90809
C    -0.83353  -0.12272  -1.21273
C     0.23442  -0.52350  -2.03937
C     0.23291  -0.19335  -3.39158
C    -0.81944   0.55534  -3.93716
C    -1.88150   0.95568  -3.12338
C    -1.89585   0.60921  -1.77014
H    -0.75854   3.53405  -0.98616
H    -1.93462   3.51454   0.36981
H    -0.32681   4.28813   0.58007
H     1.91349  -2.08167   0.36130
H     4.16211  -3.05307   0.20548
H     6.19039  -1.58490   0.24763
H     5.89183   0.88940   0.47418
H     3.64003   1.86985   0.66237
H    -0.36196  -1.87887   2.36622
H     1.29898  -1.23154   2.52376
H    -0.07725  -0.25685   3.09058
H    -2.48587  -2.39804  -0.82063
H    -4.68794  -3.15306   0.05429
H    -5.64612  -2.09618   2.09988
H    -4.39395  -0.28204   3.26601
H    -2.18380   0.45414   2.40751
H     1.05664  -1.10559  -1.62311
H     1.05791  -0.52231  -4.02736
H    -0.81107   0.81830  -4.99739
H    -2.70572   1.53776  -3.54146
H    -2.72351   0.92600  -1.13378
