64
Generated by autodE on: 2022-10-24. E = -1976.462368 Ha. Imaginary frequency = -187.5 cm-1
C     0.51443   4.19140  -0.61881
O     0.50061   2.94763   0.08842
C     1.17203   1.91871  -0.47183
O     1.82873   2.06815  -1.49221
C     1.12681   0.70081   0.36846
C     2.41793   0.35119   0.98355
C     2.59214  -0.78583   1.81312
C     3.82733  -1.10510   2.37622
C     4.95498  -0.31694   2.13082
C     4.81381   0.80829   1.31065
C     3.57895   1.14055   0.75900
N    -0.07887   0.39143   1.02695
C    -0.04844   0.37906   2.50988
C    -1.27664   0.23574   0.37479
C    -2.39262  -0.51967   0.97660
C    -2.22201  -1.47837   2.00725
C    -3.28535  -2.24993   2.47198
C    -4.56062  -2.12002   1.91488
C    -4.74536  -1.21669   0.86467
C    -3.68682  -0.43733   0.40292
C    -1.65668   1.26965  -0.66050
C    -1.22536   1.34802  -1.98960
C    -1.66474   2.38154  -2.82527
C    -2.53204   3.36472  -2.35023
C    -2.94122   3.32216  -1.01333
C    -2.50557   2.29123  -0.18318
C    -0.63853  -1.65126  -1.15617
Cl   -1.90256  -1.65717  -2.36474
C    -0.57535  -2.90439  -0.26992
C    -0.03063  -4.05588  -1.14652
C     1.25460  -3.75059  -1.35914
C     1.47492  -2.41918  -0.60708
O     0.58634  -2.58681   0.50698
C     0.69522  -1.36939  -1.42348
O     1.14908  -0.82589  -2.55891
C     2.56922  -0.71686  -2.71173
H     0.20424   4.05244  -1.66243
H    -0.19413   4.84654  -0.09877
H     1.52246   4.63288  -0.59481
H     1.75433  -1.45054   1.99408
H     3.90677  -1.99508   3.00609
H     5.92294  -0.57269   2.56748
H     5.67621   1.44749   1.10412
H     3.52113   2.03095   0.13467
H     0.24682  -0.57559   2.95281
H     0.67083   1.14426   2.82437
H    -1.03791   0.65663   2.88742
H    -1.24141  -1.66836   2.42973
H    -3.10590  -2.97394   3.27024
H    -5.39225  -2.72602   2.28123
H    -5.72561  -1.11589   0.39266
H    -3.86828   0.23686  -0.43024
H    -0.52845   0.62473  -2.39449
H    -1.31381   2.41221  -3.85942
H    -2.87385   4.16699  -3.00827
H    -3.60298   4.09414  -0.61337
H    -2.82936   2.27185   0.85900
H    -1.44871  -3.11492   0.35336
H    -0.61822  -4.89198  -1.52371
H     2.00561  -4.26037  -1.96135
H     2.49169  -2.17354  -0.29105
H     3.01485  -0.21498  -1.84348
H     3.01699  -1.71325  -2.84856
H     2.73818  -0.11399  -3.61193
