32
Generated by autodE on: 2022-06-04. E = -718.079191 Ha
C    -3.14775   3.09549   1.45363
O    -2.47183   2.28527   0.47509
C    -1.50927   1.49253   0.92280
O    -1.16594   1.40423   2.08206
C    -0.80651   0.72978  -0.20474
F    -1.66371   0.66007  -1.30860
C    -0.40173  -0.61989   0.18251
C     0.34740  -1.57395   0.18489
C     1.51974  -2.42577  -0.02879
C     1.13237  -3.84098  -0.48533
C     2.35306  -2.50265   1.26434
C     2.31463  -1.69859  -1.16244
C     2.49436  -0.17091  -1.03615
C     1.38336   0.75136  -1.61460
C     0.46600   1.49948  -0.62781
H    -2.43284   3.76646   1.95050
H    -3.63658   2.45695   2.20291
H    -3.89485   3.67467   0.89970
H     0.58742  -4.37482   0.30828
H     0.49614  -3.80810  -1.38274
H     2.04055  -4.41536  -0.72609
H     3.25157  -3.11407   1.08703
H     1.77260  -2.96670   2.07611
H     2.67182  -1.50452   1.59895
H     1.82021  -1.91923  -2.12306
H     3.30680  -2.17823  -1.20412
H     3.42339   0.07188  -1.57511
H     2.69182   0.10066   0.01454
H     0.76060   0.19462  -2.33439
H     1.88225   1.53457  -2.20572
H     1.01865   1.76134   0.28776
H     0.11090   2.44120  -1.07600
