25
Generated by autodE on: 2022-07-27. E = -668.295154 Ha
C    -1.68357  -2.17348  -1.70790
N    -0.39217  -1.79140  -2.18122
O     0.22433  -0.87481  -1.44211
C    -0.08605  -0.30313  -0.28911
C    -0.80046  -0.99326   0.80521
O    -1.47653  -0.42855   1.64782
O    -0.52043  -2.30195   0.83939
C    -1.13702  -3.06287   1.89128
C     0.51987   1.00996  -0.10385
C     0.99073   1.72486  -1.22957
C     1.60073   2.96747  -1.07766
C     1.74368   3.53478   0.19379
C     1.27292   2.84177   1.31460
C     0.67051   1.59335   1.17485
H    -1.68121  -2.95509  -0.92832
H    -2.22385  -2.56887  -2.57947
H    -2.23048  -1.30300  -1.28287
H    -0.78841  -2.70706   2.87113
H    -2.23136  -2.97629   1.83699
H    -0.82734  -4.10150   1.73067
H     0.86238   1.30082  -2.22609
H     1.95619   3.50431  -1.96021
H     2.21455   4.51349   0.31000
H     1.38185   3.27528   2.31136
H     0.31843   1.06581   2.06022
