25
Generated by autodE on: 2022-06-04. E = -668.304077 Ha
C    -0.56923   3.63674   0.69917
N     0.19010   2.45454   0.35741
O    -0.65455   1.44350   0.41742
C    -0.39455   0.19071   0.13648
C    -1.58694  -0.66308   0.32046
O    -1.56919  -1.88250   0.27855
O    -2.70397   0.04215   0.55247
C    -3.89602  -0.71866   0.78444
C     0.90421  -0.32067  -0.27818
C     2.11362   0.31363   0.09116
C     3.34196  -0.22269  -0.29444
C     3.39876  -1.38106  -1.07367
C     2.20933  -2.01000  -1.46095
C     0.97816  -1.49486  -1.06771
H     0.11924   4.49035   0.64924
H    -1.40662   3.81572  -0.00099
H    -0.98901   3.58264   1.72109
H    -4.69156   0.01520   0.95838
H    -4.13689  -1.33806  -0.09195
H    -3.77800  -1.36635   1.66553
H     2.08253   1.22286   0.68422
H     4.26372   0.27696   0.01244
H     4.36321  -1.78941  -1.38430
H     2.24155  -2.90956  -2.07987
H     0.06332  -1.99481  -1.37832
