40
Generated by autodE on: 2022-06-11. E = -1308.372099 Ha
C    -1.88657  -2.02105   2.88663
C    -1.95585  -0.53466   3.05385
O    -2.70609   0.01723   3.83409
C    -0.97963   0.31317   2.19293
C     0.27852   0.51759   3.09533
C     0.19044   1.54889   4.17943
O     1.27035  -0.15936   2.91032
C    -0.57022  -0.32868   0.94969
C    -0.24883  -0.41077  -0.21497
C     0.02023   0.01748  -1.57550
Cl   -1.46436  -0.50578  -2.60360
C     1.26657  -0.56810  -2.21181
C     2.18043  -1.29543  -1.43905
C     3.36283  -1.77852  -2.00936
C     3.64152  -1.53864  -3.35651
C     2.73105  -0.81159  -4.13300
C     1.55207  -0.32869  -3.56503
C     0.05181   1.56846  -1.54532
C    -1.06138   2.27148  -0.74584
C    -0.84257   2.51410   0.77569
C    -1.64742   1.65872   1.77587
H    -0.83771  -2.35441   2.93488
H    -2.49101  -2.51986   3.65475
H    -2.25893  -2.28923   1.88425
H     1.01038   1.40050   4.89370
H     0.28670   2.54900   3.72514
H    -0.78352   1.51497   4.68733
H     1.97056  -1.47587  -0.38281
H     4.06609  -2.34537  -1.39478
H     4.56341  -1.91812  -3.80334
H     2.93981  -0.62232  -5.18855
H     0.83902   0.22426  -4.17912
H     0.04187   1.91285  -2.59011
H     1.03626   1.84279  -1.13111
H    -1.18474   3.25925  -1.21544
H    -2.01602   1.74642  -0.91365
H    -1.12706   3.55782   0.97834
H     0.23342   2.45418   1.01288
H    -2.63173   1.41505   1.34670
H    -1.84565   2.23574   2.68801
