20
Generated by autodE on: 2022-06-11. E = -661.125672 Ha
C    -4.16864   1.57200  -0.30043
N    -3.28813   0.46655   0.02437
C    -1.95191   0.57956  -0.10354
O    -1.39177   1.60667  -0.50299
C    -1.15328  -0.62069   0.26516
C    -1.70330  -1.84202   0.71120
N    -2.20244  -2.83295   1.07539
N     0.15725  -0.50652   0.15493
C     1.29853  -0.28780   0.01755
C     2.73361  -0.16813  -0.08406
O     3.46373  -1.09460   0.19795
O     3.08331   1.03596  -0.50640
C     4.49887   1.27968  -0.64930
H    -3.96918   2.44669   0.33924
H    -5.20624   1.25233  -0.14701
H    -4.04559   1.88417  -1.34940
H    -3.69355  -0.39544   0.37508
H     4.92714   0.58515  -1.38515
H     5.00132   1.15565   0.31993
H     4.58449   2.31381  -0.99896
