21
Generated by autodE on: 2022-05-29. E = -636.062515 Ha
C     3.22588  -0.49679   0.76925
C     1.81871  -0.80505   0.37074
O     1.41986  -1.91931   0.07429
C     0.85279   0.34164   0.32910
F     1.39163   1.50876   0.69574
C    -0.43418   0.23452  -0.05239
C    -1.41791   1.35944  -0.14936
C    -1.01550   2.75803   0.21354
O    -2.54759   1.09554  -0.54281
C    -1.03109  -1.11816  -0.41452
C    -0.93270  -1.52801  -1.85207
O    -1.65422  -1.73407   0.42841
H     3.82405  -1.41590   0.75578
H     3.65464   0.24909   0.08001
H     3.23908  -0.04644   1.77519
H    -0.17692   3.09038  -0.41766
H    -1.87742   3.42290   0.07491
H    -0.66784   2.79968   1.25709
H    -1.59207  -0.85875  -2.43145
H     0.08982  -1.39573  -2.23256
H    -1.26738  -2.56680  -1.97591
