14
Generated by autodE on: 2022-07-26. E = -379.000339 Ha
C    -2.78404   0.68826  -1.59297
C    -1.39228   0.38211  -1.09079
O    -0.42567   0.31215  -1.87074
C    -1.26101   0.18098   0.32596
N    -0.09364  -0.09859   0.92612
C     1.13699  -0.25198   0.42699
C     2.20870  -0.55090   1.28421
N     3.12316  -0.79991   1.97002
H    -3.47850  -0.12456  -1.32528
H    -3.16748   1.60965  -1.12506
H    -2.76465   0.81129  -2.68378
H    -2.11948   0.24714   0.99125
H    -0.16835  -0.21461   1.94175
H     1.28007  -0.14188  -0.64502
