35
Generated by autodE on: 2022-05-29. E = -1015.059692 Ha. Imaginary frequency = -258.7 cm-1
C    -2.71289   2.47131  -1.28505
C    -1.33156   2.12999  -0.79657
O    -0.34787   2.19028  -1.53679
C    -1.22926   1.77114   0.61925
N    -0.08169   1.59663   1.26090
C     1.12643   1.31656   0.70670
C     2.25726   1.25964   1.56061
N     3.20482   1.18028   2.23338
C     0.82965  -0.85373   0.17012
F     1.46583  -1.36262   1.24758
C     1.78603  -0.95296  -1.03356
C     2.00627  -2.36887  -1.49861
O     2.46723  -0.02092  -1.41198
C    -0.55846  -1.00102   0.07283
C    -1.32158  -1.25743   1.32005
C    -2.62516  -2.01408   1.29117
O    -0.86670  -0.87614   2.39920
C    -1.09006  -0.89831  -1.29298
C    -2.55970  -1.00633  -1.59900
O    -0.29667  -0.71618  -2.22649
H    -3.48448   1.86343  -0.79270
H    -2.91775   3.52843  -1.04049
H    -2.76099   2.34865  -2.37488
H    -2.11779   1.79991   1.24836
H    -0.17015   1.40830   2.26405
H     1.27470   1.59712  -0.33281
H     2.66898  -2.85428  -0.76126
H     1.07194  -2.94320  -1.53841
H     2.50760  -2.36244  -2.47533
H    -3.45345  -1.32952   1.05169
H    -2.80255  -2.42179   2.29538
H    -2.62513  -2.82182   0.54744
H    -2.73078  -0.61270  -2.60897
H    -3.18271  -0.46750  -0.87626
H    -2.86000  -2.06599  -1.58116
