72
Generated by autodE on: 2022-07-04. E = -2226.618007 Ha
C   -14.30086  12.74786  -6.82177
N   -14.67634  12.01429  -8.01617
C   -15.04349  10.73278  -7.94559
O   -14.97583  10.05576  -6.92163
C   -15.44682  10.02891  -9.28092
C   -15.43467  10.97662 -10.43263
N   -15.32221  11.68093 -11.34684
O   -14.41863   9.09817  -9.48208
C   -14.91104   7.91602 -10.16576
C   -14.44347   8.09357 -11.61490
C   -13.07146   7.97327 -11.89986
C   -12.57596   8.26410 -13.17082
C   -13.43989   8.69904 -14.18158
C   -14.79550   8.86506 -13.89634
C   -15.28733   8.57473 -12.62027
C   -14.25620   6.75606  -9.39591
C   -14.30374   6.80972  -7.99340
C   -13.74979   5.79035  -7.21858
C   -13.12442   4.70170  -7.83382
C   -13.05383   4.65017  -9.22746
C   -13.61462   5.66860 -10.00264
C   -16.45718   8.00726  -9.90774
C   -16.74393   9.18012  -9.29189
C   -17.98737   9.76328  -8.56838
C   -19.30821   9.50876  -9.16922
N   -20.40837   9.41332  -9.52541
C   -17.93234  11.32079  -8.58044
C   -18.13484  11.98644  -9.79934
C   -18.08981  13.37814  -9.86811
C   -17.85820  14.12845  -8.71113
C   -17.67831  13.47446  -7.49107
C   -17.71520  12.07887  -7.42353
C   -18.03701   9.21107  -7.09715
C   -18.55524   7.79364  -6.85258
C   -17.93682   6.65405  -7.66283
C   -18.48154   6.59798  -9.09941
C   -17.48766   6.91180 -10.26808
C   -18.34012   7.34607 -11.52838
F   -19.58135   6.84864 -11.48039
F   -17.80479   6.92618 -12.68650
F   -18.45392   8.67934 -11.62593
C   -16.88678   5.52407 -10.63520
F   -17.85259   4.73035 -11.14157
F   -16.40982   4.89600  -9.55441
F   -15.91810   5.56792 -11.55587
H   -14.04155  13.77424  -7.10562
H   -15.12927  12.77369  -6.09637
H   -13.43284  12.27694  -6.33752
H   -14.87513  12.54458  -8.85952
H   -12.37688   7.66781 -11.11764
H   -11.50698   8.15786 -13.36962
H   -13.05332   8.92381 -15.17834
H   -15.47977   9.23497 -14.66320
H   -16.33317   8.77421 -12.41380
H   -14.76521   7.66647  -7.50404
H   -13.80428   5.85049  -6.12912
H   -12.68933   3.90185  -7.22996
H   -12.56090   3.81010  -9.72209
H   -13.56090   5.59221 -11.08594
H   -18.31933  11.40883 -10.70728
H   -18.23589  13.87614 -10.82891
H   -17.82405  15.21910  -8.76098
H   -17.49661  14.04877  -6.58035
H   -17.54477  11.59785  -6.46272
H   -18.68778   9.89149  -6.53263
H   -17.02459   9.31675  -6.69295
H   -18.39005   7.60053  -5.78045
H   -19.64901   7.77107  -6.99596
H   -18.19292   5.70569  -7.16881
H   -16.84135   6.71478  -7.63830
H   -18.90596   5.60795  -9.30132
H   -19.33667   7.26807  -9.18757
