35
Generated by autodE on: 2022-07-27. E = -916.565779 Ha
C    -0.21703   4.28583   3.41449
N    -0.51277   3.51740   2.22356
C     0.00780   2.27920   2.03606
O     0.74902   1.74628   2.88273
C    -0.34768   1.60120   0.78946
C    -1.28943   2.08015  -0.12442
N    -2.09565   2.55277  -0.83396
O     0.21932   0.37122   0.69588
C     0.20304  -0.58477  -0.17102
C    -0.36682  -0.40581  -1.51279
C     0.09480   0.64308  -2.32988
C    -0.41383   0.79639  -3.61808
C    -1.39637  -0.07853  -4.09354
C    -1.86126  -1.11995  -3.28324
C    -1.34158  -1.29436  -2.00108
C     0.82007  -1.81918   0.28660
C     1.17814  -1.96960   1.64752
C     1.77436  -3.14538   2.08772
C     2.02310  -4.19127   1.18795
C     1.67968  -4.04966  -0.16050
C     1.08576  -2.87369  -0.61420
H    -0.80549   5.21146   3.39321
H    -0.47784   3.72537   4.32600
H     0.85168   4.55186   3.47915
H    -1.07102   3.94461   1.49265
H     0.85869   1.32736  -1.95572
H    -0.04514   1.60496  -4.25264
H    -1.80037   0.05084  -5.10015
H    -2.63069  -1.80104  -3.65287
H    -1.69989  -2.10621  -1.36602
H     0.98417  -1.15296   2.34362
H     2.04465  -3.25367   3.14029
H     2.48794  -5.11502   1.53967
H     1.88242  -4.85837  -0.86563
H     0.84180  -2.76448  -1.67087
