37
Generated by autodE on: 2022-07-04. E = -1309.969977 Ha
N    -3.62428  -2.15624   1.53423
C    -2.61073  -1.59241   1.54276
C    -1.30504  -0.90908   1.56042
C    -1.30587   0.19555   2.63530
C    -1.88877  -0.06544   3.88377
C    -1.84139   0.89192   4.89839
C    -1.20866   2.11978   4.67736
C    -0.62600   2.38164   3.43549
C    -0.67446   1.42517   2.41588
C    -0.97729  -0.39721   0.22802
C    -0.29564  -0.10353  -0.72507
C     0.88667   0.00079  -1.57401
C     0.67104  -0.80988  -2.87596
F     1.71805  -0.70344  -3.70464
F     0.50562  -2.11087  -2.60129
F    -0.41813  -0.40369  -3.54201
C     1.15952   1.48846  -1.90936
F     0.19008   2.02332  -2.66284
F     1.23035   2.21202  -0.78067
F     2.31799   1.64647  -2.56051
C     2.09783  -0.56939  -0.75378
C     1.82494  -1.78323   0.15637
C     1.25529  -1.52308   1.57958
C    -0.18463  -1.98587   1.86524
H    -2.38377  -1.02186   4.06742
H    -2.30281   0.67706   5.86494
H    -1.17251   2.86960   5.47097
H    -0.13023   3.33753   3.25154
H    -0.21690   1.64224   1.45056
H     2.89066  -0.81507  -1.47467
H     2.48082   0.25350  -0.13410
H     1.20315  -2.52233  -0.36853
H     2.80657  -2.26435   0.28176
H     1.88827  -2.07534   2.29020
H     1.37255  -0.46178   1.85292
H    -0.41292  -2.88411   1.27182
H    -0.29877  -2.25446   2.92526
