62
Generated by autodE on: 2022-10-23. E = -4067.736943 Ha
C    -2.36826  17.97932   1.17905
N    -2.38881  16.53652   1.04197
C    -1.49771  15.77082   1.68062
O    -0.51083  16.20880   2.27697
C    -1.71737  14.26381   1.60095
C    -2.83695  13.67606   0.68233
O    -3.83860  14.20294   0.24884
O    -2.49195  12.41582   0.44755
C    -1.14625  12.23120   1.18552
C    -0.44669  11.06791   0.54746
C    -1.17742  10.06355  -0.10264
C    -0.51903   8.96996  -0.66918
C     0.87273   8.87150  -0.59560
C     1.60645   9.87915   0.03819
C     0.95164  10.97298   0.60427
C    -1.55073  12.24190   2.68779
C    -1.96254  13.50689   2.92353
C    -2.51659  14.19162   4.17368
O    -3.03224  15.48365   3.87614
C    -4.35733  15.56087   3.35975
O    -3.56162  13.37803   4.65253
C    -4.07015  13.66247   5.95137
C    -1.36874  14.45703   5.17035
C    -0.31086  13.36991   5.35149
C    -0.74813  11.99674   5.87324
C    -1.74411  11.15480   5.05387
C    -1.48670  11.00829   3.53748
Br   -3.00905   9.82904   2.86282
C    -0.12371  10.28508   3.40881
C    -0.04202   8.80019   3.24584
O     0.86745  10.97729   3.55040
N    -0.54848  13.53380   1.05775
C    -0.12940  13.94986  -0.28220
H    -2.48090  18.27704   2.23460
H    -3.19509  18.40412   0.59743
H    -1.42027  18.39678   0.80778
H    -3.20787  16.07894   0.64435
H    -2.26122  10.13628  -0.16398
H    -1.09962   8.19154  -1.16896
H     1.38614   8.01322  -1.03508
H     2.69507   9.81393   0.09513
H     1.52818  11.74593   1.11068
H    -4.48034  16.58732   2.98898
H    -5.11121  15.37596   4.14050
H    -4.53214  14.86175   2.52970
H    -5.07184  13.21304   5.99685
H    -4.15733  14.74436   6.13345
H    -3.44277  13.21348   6.73848
H    -0.86621  15.35749   4.79139
H    -1.82031  14.73203   6.13464
H     0.42306  13.76645   6.07204
H     0.24132  13.24138   4.41104
H     0.16749  11.40635   6.03127
H    -1.20604  12.11601   6.86992
H    -1.74474  10.13754   5.47334
H    -2.75707  11.54416   5.15966
H    -0.70381   8.28523   3.95778
H    -0.37570   8.52050   2.23482
H     0.99857   8.48464   3.39146
H     0.71275  13.32779  -0.60672
H    -0.92655  13.88353  -1.04367
H     0.22187  14.98848  -0.22831
