52
Generated by autodE on: 2022-06-23. E = -1130.725868 Ha
C     0.67877   3.25609   0.00470
N    -0.21121   2.14049   0.25358
C    -0.22135   1.44391   1.39213
O     0.38419   1.74616   2.42430
C    -1.03603   0.12986   1.34882
C    -1.72840   0.00965   2.65645
N    -2.36068  -0.09401   3.62434
N    -1.98769   0.05551   0.25100
C    -3.16421   0.90788   0.38425
C    -2.08626  -1.33325  -0.25233
C    -3.52893  -1.92278  -0.32367
C    -3.72638  -3.34550   0.10708
O    -4.43021  -1.26587  -0.80882
C    -1.65182  -1.44428  -1.74621
C    -1.63203  -0.19792  -2.57778
O    -1.37354  -2.53981  -2.20054
C    -1.13623  -2.13558   0.65475
C    -0.08011  -1.12453   1.12196
C     0.62771  -1.57269   2.40372
C     0.92394  -0.85902   0.01308
C     2.01724  -0.08062   0.12524
C     2.93947   0.17896  -0.96522
C     3.95723   1.07421  -0.95808
C     4.83376   1.25307  -2.16531
C     4.29239   1.96754   0.20337
H     0.13361   4.08073  -0.47696
H     1.51129   2.95395  -0.65041
H     1.08845   3.60773   0.95912
H    -0.71135   1.71609  -0.52448
H    -2.83964   1.89894   0.72947
H    -3.66365   1.03112  -0.58237
H    -3.90402   0.52262   1.10822
H    -3.58555  -3.43888   1.19495
H    -2.97322  -3.98819  -0.37420
H    -4.73781  -3.67265  -0.16525
H    -2.52643   0.41493  -2.39973
H    -0.75538   0.40609  -2.29439
H    -1.55258  -0.46887  -3.63845
H    -1.68283  -2.50613   1.53014
H    -0.69577  -2.99346   0.13356
H     1.25154  -2.45133   2.18480
H    -0.09355  -1.84989   3.18598
H     1.27518  -0.77781   2.79851
H     0.74351  -1.35235  -0.94640
H     2.21642   0.41555   1.07782
H     2.76913  -0.39620  -1.88314
H     4.78314   2.29309  -2.53418
H     4.55279   0.57780  -2.98673
H     5.89281   1.07085  -1.90924
H     5.32512   1.78035   0.54669
H     3.61708   1.85404   1.06074
H     4.26191   3.02444  -0.11448
