23
Generated by autodE on: 2022-06-23. E = -351.521385 Ha
C     1.17716  -0.38938  -3.57228
C     1.27916  -0.19554  -2.23888
C     2.61719   0.01697  -1.57813
C     0.07661  -0.18917  -1.40821
C     0.04447  -0.00521  -0.06435
C    -1.17813  -0.00864   0.71272
C    -1.29438   0.16816   2.05322
C    -0.13702   0.40494   2.98140
C    -2.64109   0.13756   2.71886
H     2.06018  -0.39907  -4.21728
H     0.20402  -0.54330  -4.04872
H     3.43367  -0.01149  -2.31337
H     2.65360   0.98828  -1.05736
H     2.81075  -0.75560  -0.81544
H    -0.87107  -0.34907  -1.93653
H     0.98507   0.15524   0.46946
H    -2.10069  -0.17307   0.14290
H    -0.10886  -0.37453   3.76322
H    -0.26357   1.36520   3.51206
H     0.83778   0.41891   2.47720
H    -2.67913  -0.65378   3.48907
H    -2.83801   1.08722   3.24818
H    -3.45611  -0.03621   2.00101
