29
Generated by autodE on: 2022-07-27. E = -779.150614 Ha
C    -0.30822   2.70672  -2.11444
N    -0.31092   1.81374  -0.96974
C     0.78570   1.65637  -0.21775
O     1.80294   2.34257  -0.32473
C     0.71012   0.66931   0.92510
C     1.51103   1.04481   2.04481
N     2.16736   1.36936   2.94875
N    -0.07037  -0.39301   1.01805
C    -0.23134  -1.03151   2.34619
C    -0.56352  -1.04926  -0.11967
C    -1.94951  -1.49928  -0.02260
C    -2.57108  -2.41567  -1.04689
O    -2.65003  -1.08194   0.91088
C     0.41411  -1.23173  -1.18981
C     0.15775  -2.21262  -2.30948
O     1.49239  -0.62012  -1.18520
H     0.01159   3.71537  -1.81614
H    -1.32482   2.75959  -2.52159
H     0.37503   2.34607  -2.90087
H    -1.07210   1.14690  -0.87851
H     0.76945  -1.27445   2.72934
H    -0.73636  -0.34034   3.03142
H    -0.80678  -1.95082   2.23548
H    -2.55344  -1.97031  -2.05148
H    -2.04630  -3.38022  -1.09851
H    -3.61407  -2.58532  -0.75075
H    -0.15960  -3.19794  -1.94697
H     1.08837  -2.31091  -2.88207
H    -0.62608  -1.82480  -2.97727
