29
Generated by autodE on: 2022-06-23. E = -779.152324 Ha
C     3.72011  -1.48992   0.43944
N     2.85275  -0.48425  -0.14492
C     1.62575  -0.25914   0.34662
O     1.17078  -0.83334   1.33508
C     0.85022   0.84444  -0.33234
C     1.57606   1.89972  -0.94387
N     2.21810   2.73403  -1.44475
N    -0.46634   0.97230  -0.17253
C    -1.07193   2.30105  -0.40238
C    -1.28911  -0.12227   0.03208
C    -2.41324  -0.01564   0.96302
C    -2.35811   1.04736   2.04561
O    -3.35311  -0.81480   0.96099
C    -0.98294  -1.31887  -0.75719
C    -2.01238  -2.41611  -0.86811
O     0.08160  -1.42743  -1.37704
H     3.29243  -2.49903   0.32398
H     4.69240  -1.45431  -0.06551
H     3.86589  -1.30096   1.51329
H     3.14669  -0.02011  -0.99919
H    -2.15906   2.21902  -0.33721
H    -0.81579   2.62936  -1.41948
H    -0.68378   3.02147   0.32805
H    -3.00402   1.89691   1.77277
H    -2.77199   0.60435   2.96257
H    -1.34577   1.42122   2.24465
H    -2.15718  -2.89334   0.11314
H    -1.63883  -3.15649  -1.58754
H    -2.99186  -2.03178  -1.18015
