25
Generated by autodE on: 2022-05-26. E = -3275.284516 Ha
C     4.74045  -0.68633  -1.37987
N     3.31254  -0.47239  -1.48957
C     2.55894  -0.18242  -0.41186
O     3.01122  -0.07344   0.73061
C     1.11319   0.00073  -0.70808
C     0.07243   0.31237   0.09838
Br    0.02717   0.64846   1.91993
C    -1.14869   0.39160  -0.77183
C    -1.76952   1.79315  -0.81750
C    -2.16535  -0.71530  -0.43751
O    -1.88843  -1.70748   0.19662
O    -3.35358  -0.45998  -0.96409
C    -4.37456  -1.45694  -0.77475
N    -0.60839   0.05053  -2.11892
N     0.62716  -0.14676  -2.03844
H     5.23535   0.18296  -0.91911
H     5.15474  -0.84046  -2.38326
H     4.96809  -1.56998  -0.76166
H     2.85432  -0.55169  -2.39235
H    -0.99753   2.53063  -1.07716
H    -2.56577   1.81947  -1.57040
H    -2.19339   2.04560   0.16467
H    -4.06377  -2.40688  -1.23204
H    -5.26915  -1.06613  -1.27179
H    -4.56380  -1.60560   0.29751
