14
Generated by autodE on: 2022-05-26. E = -416.141449 Ha
C    -2.68734  -0.26287  -0.15497
O    -1.36029   0.25601  -0.00839
C    -0.35196  -0.62810  -0.12623
O    -0.51825  -1.81871  -0.34591
C     0.96523  -0.03141   0.03284
C     2.21839  -0.85497  -0.06895
N     1.03190   1.25367   0.26724
N     1.09557   2.36854   0.47119
H    -2.82454  -0.70468  -1.15298
H    -2.89422  -1.02447   0.61129
H    -3.36174   0.59204  -0.02682
H     2.28896  -1.32882  -1.06101
H     2.21711  -1.65347   0.69000
H     3.10962  -0.23163   0.08310
