25
Generated by autodE on: 2022-05-26. E = -3275.186042 Ha. Imaginary frequency = -394.9 cm-1
C     5.11046  -0.13054  -0.84348
N     3.72826   0.23933  -0.61367
C     2.78774  -0.68871  -0.33699
O     3.04464  -1.89902  -0.25469
C     1.44346  -0.17952  -0.14717
C     0.36714   0.23298   0.32623
Br   -0.49520   0.77703   1.86905
C    -1.14009   0.41152  -1.27203
C    -1.51446   1.86439  -1.35752
C    -2.11416  -0.62958  -0.83173
O    -1.97765  -1.82154  -1.02435
O    -3.10927  -0.08009  -0.14148
C    -4.04437  -0.98113   0.47279
N    -0.27522  -0.06196  -2.18982
N     0.77761  -0.44556  -2.41272
H     5.55762  -0.59823   0.04857
H     5.68149   0.77279  -1.09003
H     5.19879  -0.84432  -1.67803
H     3.45389   1.21454  -0.66559
H    -0.64166   2.46895  -1.63902
H    -2.32575   2.02925  -2.08363
H    -1.87111   2.18951  -0.37142
H    -4.54899  -1.58778  -0.29225
H    -4.76842  -0.34867   0.99831
H    -3.52537  -1.64038   1.18335
