39
Generated by autodE on: 2022-06-19. E = -1043.634385 Ha
C    -4.14023   2.19312   0.21722
O    -3.07819   1.36377   0.72759
C    -2.46766   0.56520  -0.13326
O    -2.73608   0.47090  -1.30977
C    -1.30492  -0.22440   0.51873
C    -1.61195  -0.47077   1.93977
N    -1.84354  -0.69627   3.05293
C     0.01495   0.58800   0.34412
C     1.08970   0.16269   1.35630
C     2.47665   0.45279   0.84221
C     3.63873   0.55317   1.73565
N     3.41707   0.31109   3.05394
O     4.78439   0.84392   1.33512
C     2.69889   0.57412  -0.49768
N     1.74298   0.51778  -1.45804
C     2.09004   0.45330  -2.86738
C     0.37184   0.24133  -1.11063
C    -0.07179  -1.25331  -1.25563
C    -0.66245  -1.50527  -2.58040
N    -1.11809  -1.72701  -3.62432
N    -1.00422  -1.47758  -0.15025
C    -2.06160  -2.46144  -0.29837
H    -4.51312   2.76308   1.07503
H    -3.74937   2.86990  -0.55535
H    -4.93723   1.56570  -0.20521
H    -0.17808   1.66449   0.43570
H     0.89857   0.70099   2.29697
H     0.98252  -0.91153   1.58492
H     4.21192   0.32449   3.68350
H     2.52940  -0.02105   3.40922
H     3.71334   0.75237  -0.85982
H     1.36276   1.02896  -3.46025
H     3.08947   0.88120  -3.02057
H     2.09371  -0.58543  -3.24301
H    -0.26368   0.84026  -1.77569
H     0.80294  -1.92176  -1.17250
H    -2.84341  -2.16473  -1.02065
H    -1.62674  -3.41560  -0.62926
H    -2.53760  -2.63348   0.67836
