20
Generated by autodE on: 2022-06-19. E = -457.715305 Ha
C    -3.11028  -0.64920  -0.06314
N    -1.82294  -0.01296   0.16274
C    -1.74972   1.12670   0.97326
C    -0.58854   1.73106   1.27075
C     0.74760   1.24448   0.76594
C     0.57222  -0.00795  -0.07762
C     1.72713  -0.69796  -0.67476
N     2.94391  -0.15045  -0.42802
O     1.62706  -1.72855  -1.37147
C    -0.66059  -0.53869  -0.31547
H    -3.83467   0.07263  -0.47192
H    -2.98965  -1.46738  -0.78401
H    -3.52432  -1.06276   0.87183
H    -2.71018   1.48933   1.34391
H    -0.61293   2.61882   1.90689
H     1.42905   1.05426   1.62024
H     1.25071   2.04562   0.18605
H     3.06896   0.68048   0.13582
H     3.76526  -0.59973  -0.81785
H    -0.75731  -1.43866  -0.92475
