19
Generated by autodE on: 2022-07-27. E = -585.861950 Ha
C    -2.12687   1.87775   1.74658
O    -0.95660   1.06449   1.59331
C    -0.80247   0.44990   0.40800
O    -1.58153   0.58444  -0.52313
C     0.36255  -0.42834   0.41629
C     0.96999  -0.75656   1.64808
N     1.47391  -1.01309   2.66988
N     0.75834  -1.11575  -0.70904
C     1.43842  -2.41447  -0.50044
C     0.59785  -0.72142  -1.96301
C     0.30155   0.60043  -2.35417
N     0.14697   1.68096  -2.76356
H    -2.06771   2.30137   2.75580
H    -2.13840   2.68240   0.99704
H    -3.03780   1.26990   1.64430
H     1.58472  -2.90105  -1.46931
H     2.41549  -2.22528  -0.03633
H     0.82641  -3.03872   0.16107
H     0.81345  -1.44302  -2.75135
