39
Generated by autodE on: 2022-06-19. E = -1043.566585 Ha. Imaginary frequency = -404.2 cm-1
C    -3.64605   1.84298   1.43425
O    -2.48304   1.02165   1.25391
C    -2.41833   0.30964   0.12184
O    -3.27479   0.33096  -0.73969
C    -1.18125  -0.50730   0.07372
C    -0.78775  -1.04543   1.33449
N    -0.45813  -1.44198   2.37871
C     0.22086   1.27584  -0.39266
C     0.97033   1.36249   0.91488
C     2.03516   0.29186   0.98620
C     2.63942  -0.15560   2.25390
N     2.27022   0.51454   3.37186
O     3.47057  -1.08240   2.31411
C     2.50867  -0.25467  -0.16422
N     2.06393   0.08781  -1.41508
C     2.59494  -0.60024  -2.58084
C     0.86858   0.80683  -1.55081
C    -0.68266  -0.64377  -2.24727
C    -1.50559   0.37688  -2.80253
N    -2.02304   1.25147  -3.37478
N    -0.88941  -1.27153  -1.04738
C    -0.16311  -2.53611  -0.84515
H    -3.52001   2.33154   2.40702
H    -3.70969   2.59590   0.63550
H    -4.55645   1.22674   1.43220
H    -0.56344   2.01724  -0.55481
H     1.42589   2.37228   0.98952
H     0.26670   1.30283   1.75956
H     1.55814   1.23338   3.36821
H     2.62993   0.19659   4.26533
H     3.30704  -0.99744  -0.13248
H     2.07024  -1.55500  -2.76089
H     2.47690   0.03516  -3.46944
H     3.66320  -0.80657  -2.43545
H     0.75034   1.32693  -2.50124
H    -0.23882  -1.27649  -3.01972
H     0.03341  -2.99218  -1.82052
H     0.78910  -2.36941  -0.32141
H    -0.78270  -3.22101  -0.25252
