24
Generated by autodE on: 2022-05-29. E = -518.109403 Ha
C     3.14032  -1.16428   0.29237
C     1.82333  -0.55526   0.57509
N     0.78703  -0.69047  -0.18997
C     0.87973  -1.47183  -1.43353
C    -0.36785   0.14544   0.02381
C    -1.64107  -0.47514   0.22134
C    -1.69963  -1.99359   0.32370
O    -2.71474   0.15635   0.33010
C    -0.08064   1.55595  -0.00743
C    -1.22636   2.54354   0.05597
O     1.08645   1.99671  -0.08423
H     3.49236  -0.88914  -0.71571
H     3.05951  -2.26550   0.31156
H     3.87789  -0.84896   1.03958
H     1.67215   0.03111   1.48370
H     1.57092  -0.96699  -2.12564
H     1.25273  -2.48263  -1.22284
H    -0.10888  -1.52645  -1.89610
H    -1.91942  -2.42220  -0.66852
H    -2.53333  -2.26013   0.98875
H    -0.77411  -2.45431   0.69462
H    -0.81330   3.55719  -0.04070
H    -1.96689   2.35758  -0.73457
H    -1.76470   2.45243   1.01142
