24
Generated by autodE on: 2022-07-26. E = -518.110594 Ha
C     2.14556   2.51758   0.66909
C     1.54235   1.17971   0.49599
N     0.39568   0.97203  -0.06205
C    -0.38135   2.09103  -0.61818
C    -0.19817  -0.34657  -0.06800
C    -0.59367  -0.91862   1.18220
C    -0.44099  -0.09223   2.45463
O    -1.07644  -2.06717   1.28520
C    -0.35601  -0.90004  -1.37933
C    -0.99016  -2.26253  -1.55033
O     0.02164  -0.26989  -2.39283
H     3.06873   2.44994   1.25619
H     1.43902   3.20550   1.16261
H     2.37881   2.95539  -0.31771
H     2.06396   0.28789   0.85530
H    -0.73031   2.72870   0.20825
H     0.24063   2.68807  -1.29766
H    -1.24122   1.68735  -1.15801
H     0.57401  -0.20774   2.86933
H    -0.62143   0.98220   2.30665
H    -1.15164  -0.48237   3.19613
H    -0.40451  -3.03931  -1.03649
H    -1.99733  -2.29335  -1.10874
H    -1.04360  -2.48652  -2.62513
