37
Generated by autodE on: 2022-05-29. E = -1285.240262 Ha. Imaginary frequency = -359.1 cm-1
C    -2.12024   0.64129   2.51264
C    -1.97022  -0.12184   1.20624
O    -2.07511  -1.35515   1.25070
C    -1.78199   0.60452  -0.05066
C    -2.22938   0.07051  -1.33676
C    -2.84365  -1.30957  -1.41417
O    -2.09115   0.70972  -2.39166
C     0.53531  -0.18244  -0.70418
C     0.97747  -1.25029   0.30040
O     1.21660  -0.44217   1.46425
C     2.13031   0.47404   0.82140
C     3.16819  -0.51421   0.24909
C     2.43994  -1.58803  -0.07318
Cl    2.89155  -3.03926  -0.88266
C     1.22851   0.96656  -0.34388
C    -0.18404   2.15654   0.68295
C     0.38170   3.52967   0.83188
N    -1.32906   1.93123   0.00001
C    -1.85247   2.97681  -0.88445
H    -1.25386   0.43183   3.15931
H    -2.23487   1.72569   2.40117
H    -3.00584   0.23022   3.02087
H    -2.07008  -2.07881  -1.26990
H    -3.60865  -1.47879  -0.64500
H    -3.27687  -1.42300  -2.41754
H     0.13527  -0.41777  -1.68682
H     0.29967  -2.08516   0.50178
H     2.50065   1.23020   1.52249
H     4.22621  -0.31616   0.08904
H     1.55177   1.73101  -1.05218
H    -0.01552   1.47492   1.51314
H     1.36254   3.46579   1.32206
H    -0.27430   4.14565   1.47229
H     0.49984   4.04484  -0.13135
H    -1.91999   3.91557  -0.31789
H    -1.20899   3.13005  -1.76273
H    -2.85450   2.70143  -1.22107
