32
Generated by autodE on: 2022-06-16. E = -560.872763 Ha
C     3.05809   0.57506  -0.44242
C     2.20635  -0.24414   0.48158
O     2.65066  -1.21521   1.08038
C     0.74977   0.13806   0.66417
N     0.39441   1.45619   0.13551
C    -0.80775   1.40629  -0.30518
C    -1.50552   2.58413  -0.89840
C    -1.50819   0.05968  -0.12520
C    -2.33272   0.14636   1.17660
C    -2.45112  -0.30523  -1.27517
C    -0.25457  -0.88219   0.02556
C     0.25466  -1.34162  -1.35092
C    -0.48137  -2.11151   0.90219
H     4.05847   0.13111  -0.52941
H     3.13076   1.60493  -0.05928
H     2.58070   0.64565  -1.43230
H     0.59342   0.14317   1.75775
H    -2.46343   2.76647  -0.38460
H    -1.74606   2.39169  -1.95684
H    -0.88172   3.48572  -0.83304
H    -2.87557  -0.79384   1.35563
H    -1.70400   0.35378   2.05520
H    -3.07825   0.95230   1.09726
H    -2.80850  -1.34108  -1.16196
H    -1.97380  -0.21313  -2.26036
H    -3.33504   0.35087  -1.26808
H    -0.46535  -2.02420  -1.82411
H     1.20210  -1.89223  -1.24859
H     0.42210  -0.49738  -2.03640
H    -0.75600  -1.84506   1.93235
H     0.43557  -2.71740   0.95091
H    -1.28076  -2.74420   0.48340
