14
Generated by autodE on: 2022-07-27. E = -324.819060 Ha
C    -2.85357   1.64901   0.24779
C    -1.59002   0.99430   0.49292
N    -0.57364   0.47359   0.71150
C     0.60983  -0.16492   0.81687
C     1.16746  -0.72981  -0.35589
C     2.50003  -1.43654  -0.19939
O     0.62416  -0.67250  -1.48520
H    -3.07322   1.57560  -0.82959
H    -3.66422   1.15719   0.80830
H    -2.79924   2.71376   0.52471
H     1.06443  -0.20523   1.80515
H     3.24386  -0.95374  -0.85470
H     2.87530  -1.43298   0.83369
H     2.39848  -2.47918  -0.54314
