14
Generated by autodE on: 2022-06-25. E = -270.687340 Ha
C    -2.02753  -1.20289  -0.01097
C    -0.91056  -0.23820  -0.26993
C    -1.19561   0.78428  -1.32911
C     0.25030  -0.33218   0.43058
C     1.40761   0.53145   0.27560
O     2.43885   0.40589   0.93179
H    -2.28151  -1.74511  -0.93839
H    -2.93995  -0.65627   0.28403
H    -1.77810  -1.93190   0.77222
H    -0.37887   1.49402  -1.50367
H    -2.10229   1.35106  -1.05764
H    -1.42628   0.27304  -2.27930
H     0.35919  -1.11792   1.18582
H     1.33668   1.34226  -0.48371
