38
Generated by autodE on: 2022-07-28. E = -1025.655524 Ha
C     2.80059  -2.81411  -0.22865
N     2.40280  -1.45465   0.08153
C     1.32553  -0.89898  -0.49483
O     0.68646  -1.42188  -1.40906
C     0.99618   0.48577   0.00457
C     2.17155   1.34838   0.40302
O     2.67489   1.17121   1.51845
N     2.63904   2.18991  -0.52070
C     3.78167   3.05208  -0.27114
N    -0.23115   0.93113   0.10365
C    -0.42165   2.37661   0.40359
C    -1.37719   0.11633   0.04490
C    -2.48068   0.62351  -0.77910
O    -2.36627   1.66758  -1.45685
N    -3.63305  -0.08955  -0.79099
C    -4.71043   0.25196  -1.69237
C    -1.40704  -1.15473   0.71561
O    -2.34065  -1.96486   0.66607
O    -0.32701  -1.40623   1.49183
C    -0.25732  -2.68819   2.11600
H     2.92913  -2.94013  -1.31309
H     3.75213  -3.02820   0.27242
H     2.04341  -3.53860   0.11499
H     2.80135  -0.99313   0.89621
H     2.11515   2.29823  -1.38571
H     4.18382   3.39663  -1.23143
H     3.49925   3.92911   0.33353
H     4.55841   2.49349   0.26847
H    -1.46568   2.54582   0.66918
H     0.21516   2.63221   1.26043
H    -0.15171   2.98292  -0.46699
H    -3.61883  -0.98777  -0.31067
H    -5.53989  -0.44955  -1.53560
H    -4.40265   0.19707  -2.75146
H    -5.07991   1.27354  -1.50991
H    -0.30005  -3.48994   1.36418
H    -1.07902  -2.82234   2.83500
H     0.70547  -2.71696   2.63997
