38
Generated by autodE on: 2022-06-25. E = -1025.656894 Ha
C    -4.17905  -1.84395   1.61195
N    -2.98878  -1.47136   0.86699
C    -2.25559  -0.40392   1.19088
O    -2.53095   0.39067   2.09717
C    -1.05657  -0.10623   0.31962
C    -1.26887   0.90033  -0.78146
O    -0.70489   0.78700  -1.87148
N    -2.19984   1.83203  -0.51546
C    -2.49727   2.88551  -1.46549
N     0.08007  -0.73499   0.49684
C     0.10480  -1.90465   1.41489
C     1.29743  -0.24752  -0.00184
C     1.53388   1.19884   0.10621
O     0.69658   1.97328   0.61817
N     2.72111   1.66190  -0.34557
C     3.10529   3.04436  -0.16893
C     2.24571  -1.16684  -0.56195
O     3.40560  -0.89846  -0.90118
O     1.74267  -2.41224  -0.75048
C     2.64838  -3.40653  -1.23184
H    -4.78566  -2.52101   0.99849
H    -4.76576  -0.94641   1.85018
H    -3.92087  -2.35173   2.55546
H    -2.64837  -2.09067   0.13614
H    -2.52017   1.92499   0.44552
H    -1.64954   3.58374  -1.56833
H    -3.37620   3.44142  -1.11744
H    -2.71136   2.45890  -2.45555
H    -0.39708  -2.76142   0.95221
H     1.14327  -2.15208   1.64120
H    -0.40292  -1.62659   2.34736
H     3.39801   0.96361  -0.65146
H     4.02150   3.23555  -0.74245
H     3.29842   3.29685   0.88870
H     2.31537   3.71942  -0.53180
H     3.49796  -3.53305  -0.54394
H     3.02962  -3.14128  -2.22908
H     2.07184  -4.33792  -1.28832
