52
Generated by autodE on: 2022-06-25. E = -1296.312198 Ha. Imaginary frequency = -321.1 cm-1
C     3.19605  -2.61933   1.70138
N     2.63170  -1.29203   1.55236
C     1.69429  -1.00821   0.63158
O     1.28031  -1.84181  -0.17404
C     1.25308   0.46920   0.65511
C     2.43468   1.35637   1.05704
O     2.68434   1.53826   2.26044
N     3.20167   1.82854   0.07550
C     4.42971   2.54049   0.38198
C     0.72312   0.69100  -1.54943
C     1.77541  -0.06856  -2.18853
O     2.93621   0.34350  -2.31627
C    -0.64526   0.32680  -1.66345
C    -1.59630   1.44649  -2.01199
C    -1.05922  -1.01178  -2.21295
C    -1.11037   0.12477   0.64381
C    -2.48140   0.74676   0.61758
O    -2.70724   1.95244   0.79244
N    -3.49887  -0.09324   0.31750
C    -4.83662   0.41652   0.10438
C    -1.12223  -1.32000   1.02032
O    -1.79549  -2.18773   0.48659
O    -0.39400  -1.56894   2.11604
C    -0.32817  -2.93578   2.54719
N     0.01281   0.86105   1.05428
C    -0.12497   2.28359   1.43512
H     3.26095  -3.10458   0.71918
H     4.20322  -2.53376   2.13005
H     2.58418  -3.25282   2.36325
H     2.85887  -0.58429   2.24749
H     3.07133   1.47857  -0.88424
H     5.14118   1.89772   0.92605
H     4.22368   3.42277   1.00529
H     4.88999   2.86736  -0.55827
H     0.93203   1.76206  -1.47618
H     1.50897  -1.05458  -2.61454
H    -2.64795   1.16414  -1.87300
H    -1.46619   1.66977  -3.08646
H    -1.39224   2.36737  -1.45212
H    -2.10570  -1.22402  -1.95709
H    -0.99760  -0.98201  -3.31588
H    -0.43541  -1.83294  -1.84754
H    -3.28488  -1.06391   0.10536
H    -4.86753   1.14461  -0.72351
H    -5.49778  -0.42402  -0.14094
H    -5.22362   0.91855   1.00506
H     0.09904  -3.56388   1.75349
H    -1.33097  -3.30208   2.80867
H     0.32057  -2.94022   3.43009
H    -1.01938   2.41118   2.04169
H     0.74867   2.56807   2.02192
H    -0.20312   2.91652   0.53999
