52
Generated by autodE on: 2022-06-02. E = -1300.933563 Ha
C     4.77181   0.56237   1.27742
N     3.64900   0.12785   0.47417
C     3.08763   0.94208  -0.42833
O     3.49016   2.10228  -0.63035
C     1.92008   0.44157  -1.20653
C     1.14037  -0.66942  -1.18687
C     1.32396  -1.95500  -0.49289
O     2.16329  -2.18980   0.36787
O     0.50644  -2.89433  -0.96457
C     0.68149  -4.22742  -0.46179
C     0.00787  -0.36290  -2.16452
O     0.70859   0.39373  -3.16410
C     1.28577   1.34653  -2.25656
C    -0.00110   2.00090  -1.67092
C     0.06720   2.60987  -0.26273
C    -0.77928   3.87848  -0.14141
N    -0.35950   1.49606   0.59778
C    -1.37335   0.70004  -0.09792
C    -2.79653   1.31981   0.05229
C    -3.22436   1.70532   1.44613
O    -3.53661   1.48160  -0.90276
C    -1.51964  -0.70856   0.47267
C    -0.82308  -1.11373   1.61719
C    -1.01394  -2.39451   2.14478
C    -1.90770  -3.28054   1.53818
C    -2.60702  -2.88174   0.39404
C    -2.41818  -1.60260  -0.13106
C    -0.92466   0.75540  -1.57353
H     4.50473   1.42741   1.90647
H     5.08558  -0.26395   1.92685
H     5.62319   0.86134   0.64526
H     3.23518  -0.80054   0.60852
H    -0.15051  -4.81269  -0.86787
H     0.65380  -4.23513   0.63450
H     1.64254  -4.63298  -0.81116
H    -0.50905  -1.22251  -2.59776
H     1.97408   2.02950  -2.76255
H    -0.36500   2.73074  -2.40464
H     1.10552   2.87266  -0.00618
H    -1.81072   3.72224  -0.49312
H    -0.33956   4.68578  -0.74870
H    -0.81692   4.22320   0.90412
H    -0.65132   1.79727   1.52526
H    -4.31820   1.64153   1.52176
H    -2.75153   1.08424   2.21899
H    -2.93136   2.75234   1.62722
H    -0.11394  -0.42919   2.08169
H    -0.45609  -2.70120   3.03268
H    -2.05335  -4.28188   1.94960
H    -3.30262  -3.57026  -0.09140
H    -2.97310  -1.29451  -1.01985
H    -1.80027   0.83334  -2.22487
