26
Generated by autodE on: 2022-06-02. E = -743.630312 Ha
C    -3.88228   0.33559   0.56161
N    -2.49042   0.32151   0.16297
C    -1.80010  -0.82694   0.09876
O    -2.30369  -1.93833   0.33122
C    -0.36478  -0.75596  -0.27926
C     0.58450   0.20605  -0.31000
C     0.51888   1.63919  -0.00730
O    -0.50426   2.30595   0.07963
O     1.73658   2.15781   0.16113
C     1.81205   3.55979   0.46142
C     1.90317  -0.55829  -0.60855
C     2.22452  -1.40039   0.64597
C     1.28272  -2.34732   0.67123
C     0.40888  -2.06534  -0.57019
O     1.39553  -1.57140  -1.48870
H    -4.47972  -0.33328  -0.07699
H    -4.01044   0.00328   1.60550
H    -4.26982   1.35723   0.46624
H    -1.97517   1.19886   0.05009
H     1.37254   4.14886  -0.35625
H     1.28032   3.77931   1.39830
H     2.87882   3.78743   0.56545
H     2.71295   0.02389  -1.05711
H     3.02230  -1.18397   1.35517
H     1.08649  -3.12547   1.40746
H    -0.18125  -2.88985  -0.97952
