26
Generated by autodE on: 2022-07-27. E = -557.213447 Ha
C     1.41626   3.09295  -0.83661
C     1.95891   2.11695   0.12471
N     1.35300   1.03484   0.52965
C     0.04078   0.58211   0.29053
C    -1.07405   1.44986   0.49429
C    -0.89370   2.78378   1.20385
O    -2.25140   1.13313   0.18604
C    -0.04372  -0.83995  -0.05165
C     1.11034  -1.54090  -0.48427
C     1.07306  -2.90737  -0.76990
C    -0.11972  -3.62570  -0.65461
C    -1.27524  -2.94882  -0.24359
C    -1.24411  -1.58769   0.05297
H     1.07273   4.01055  -0.32847
H     2.22464   3.39789  -1.52025
H     0.56757   2.67744  -1.39970
H     2.96853   2.25643   0.52136
H     1.94462   0.39020   1.06441
H    -1.02482   3.61638   0.49388
H    -1.70708   2.86281   1.94130
H     0.06710   2.91339   1.71822
H     2.05283  -1.00741  -0.62265
H     1.98638  -3.40931  -1.10018
H    -0.15224  -4.69269  -0.88684
H    -2.21910  -3.49243  -0.14694
H    -2.15155  -1.08043   0.37067
