52
Generated by autodE on: 2022-06-02. E = -1300.830690 Ha. Imaginary frequency = -333.6 cm-1
C     4.33876   0.75938   1.51096
N     3.30881   0.28921   0.60930
C     2.87696   1.04882  -0.40759
O     3.32100   2.18886  -0.63165
C     1.80495   0.50358  -1.28489
C     1.02198  -0.60584  -1.30283
C     1.13385  -1.85893  -0.54795
O     1.86509  -2.04919   0.41800
O     0.39675  -2.83076  -1.08529
C     0.58193  -4.15801  -0.57009
C     0.03610  -0.36117  -2.46311
O     0.92736   0.29861  -3.39289
C     1.30339   1.34563  -2.46572
C    -0.06904   1.90941  -2.06944
C    -0.06264   2.50851   0.30007
C    -0.91330   3.70426   0.03324
N    -0.51285   1.30696   0.70214
C    -1.61328   0.62689   0.24069
C    -2.92340   1.32312   0.11989
C    -3.33358   2.25129   1.24470
O    -3.73749   1.03324  -0.75484
C    -1.73495  -0.80661   0.59726
C    -1.08214  -1.33676   1.72966
C    -1.25809  -2.67070   2.10048
C    -2.09980  -3.50783   1.36297
C    -2.75239  -2.99494   0.23730
C    -2.57407  -1.66538  -0.14354
C    -0.90108   0.81457  -2.08008
H     4.01889   1.66795   2.04705
H     4.55442  -0.02659   2.24504
H     5.26559   1.00306   0.96705
H     2.87759  -0.63243   0.73747
H     0.48887  -4.17029   0.52155
H    -0.20406  -4.76979  -1.02572
H     1.57497  -4.53062  -0.86300
H    -0.43406  -1.24751  -2.89579
H     2.02951   2.04403  -2.88983
H    -0.33526   2.94829  -2.23621
H     0.96455   2.70585   0.61225
H    -1.81005   3.48121  -0.56065
H    -1.24525   4.17409   0.97605
H    -0.31737   4.44978  -0.51183
H     0.23647   0.69628   1.02455
H    -3.86511   3.13024   0.85270
H    -4.04816   1.67651   1.85910
H    -2.50709   2.55789   1.89338
H    -0.44800  -0.69961   2.34945
H    -0.74015  -3.05255   2.98356
H    -2.23814  -4.55059   1.65648
H    -3.40438  -3.63924  -0.35775
H    -3.08711  -1.27936  -1.02303
H    -1.97428   0.78615  -2.24660
