49
Generated by autodE on: 2022-06-21. E = -1020.948954 Ha
C    -2.98228   3.18018   2.81901
C    -2.01465   2.26349   2.61395
C    -0.92607   2.02088   3.62631
C    -1.99819   1.48398   1.37117
C    -1.09407   0.54072   1.05618
C    -1.07993  -0.20717  -0.24032
C    -1.24662  -1.76058  -0.07488
C    -2.03758  -2.34981  -1.25972
C    -1.91675  -2.16713   1.24338
C     0.21152  -2.19275  -0.17690
C     0.69957  -3.58020   0.15061
C     2.18026  -3.78872   0.27844
O    -0.10522  -4.48775   0.29633
N     1.03325  -1.32448  -0.63177
C     0.31130  -0.09090  -0.95878
C     0.15967   0.00747  -2.50230
C     1.29098  -0.51878  -3.33490
O    -0.82544   0.52682  -2.99200
C     1.10959   1.15368  -0.56682
C     0.58253   2.42565  -0.84062
C     1.26811   3.57642  -0.44973
C     2.49285   3.47261   0.21926
C     3.02550   2.20928   0.48809
C     2.33939   1.05518   0.09463
H    -3.01614   3.78078   3.73239
H    -3.76616   3.35177   2.07482
H    -1.04687   2.66905   4.50575
H     0.06811   2.20973   3.18783
H    -0.92535   0.97169   3.96565
H    -2.78721   1.71807   0.64666
H    -0.29462   0.29845   1.76268
H    -1.86468   0.19174  -0.89404
H    -1.60983  -2.05366  -2.22866
H    -2.04656  -3.44783  -1.21058
H    -3.07761  -1.99024  -1.22272
H    -1.30608  -1.89725   2.11689
H    -2.09123  -3.25083   1.26977
H    -2.88705  -1.65745   1.33969
H     2.38539  -4.84102   0.51265
H     2.68616  -3.50163  -0.65554
H     2.58317  -3.13894   1.07166
H     1.25449  -1.62018  -3.32456
H     2.26192  -0.22403  -2.91165
H     1.19054  -0.16266  -4.36840
H    -0.37500   2.51551  -1.35606
H     0.84188   4.55898  -0.66550
H     3.02895   4.37323   0.52766
H     3.98161   2.11666   1.00890
H     2.75639   0.07167   0.30919
