49
Generated by autodE on: 2022-06-21. E = -1020.877575 Ha. Imaginary frequency = -347.8 cm-1
C    -2.49610   3.89998   1.35562
C    -1.98965   2.68420   1.66459
C    -1.27781   2.44425   2.97143
C    -2.11112   1.57810   0.72335
C    -1.60304   0.32781   0.91419
C    -1.71748  -0.74084  -0.03284
C    -1.35669  -2.07617   0.19562
C    -2.05039  -3.13299  -0.63906
C    -0.93881  -2.52530   1.58228
C     0.64097  -2.19158  -0.68682
C     1.21681  -3.54141  -0.87651
C     2.26289  -3.94131   0.11830
O     0.78772  -4.25448  -1.76964
N     1.03703  -1.08719  -1.00256
C     0.68496   0.19132  -1.11389
C    -0.20070   0.52115  -2.24260
C    -0.43374  -0.54230  -3.29318
O    -0.72571   1.63457  -2.35212
C     1.26123   1.14215  -0.15837
C     0.96018   2.51993  -0.18070
C     1.48451   3.37748   0.78857
C     2.31435   2.88966   1.79992
C     2.62146   1.52301   1.83432
C     2.10380   0.66186   0.87101
H    -2.40704   4.74663   2.04182
H    -3.00769   4.07402   0.40392
H    -1.23541   3.36139   3.57565
H    -0.24717   2.09455   2.80258
H    -1.78604   1.66333   3.56141
H    -2.64565   1.78977  -0.20896
H    -1.05833   0.12116   1.83844
H    -2.26714  -0.52237  -0.95296
H    -2.24524  -2.78097  -1.66297
H    -1.48044  -4.07047  -0.69143
H    -3.02450  -3.37382  -0.17630
H    -0.19420  -1.85550   2.03511
H    -0.51310  -3.53900   1.55450
H    -1.81766  -2.55452   2.25074
H     2.62378  -4.95347  -0.10793
H     3.09481  -3.21883   0.09442
H     1.83204  -3.90732   1.13208
H    -0.79031  -1.48971  -2.86560
H     0.51043  -0.76312  -3.81794
H    -1.17085  -0.16616  -4.01371
H     0.30274   2.90645  -0.95302
H     1.22774   4.43884   0.75537
H     2.71770   3.56442   2.55837
H     3.27004   1.12611   2.61886
H     2.35626  -0.39926   0.91210
