48
Generated by autodE on: 2022-06-04. E = -1599.323805 Ha
F    -1.66285   2.53066   0.01943
C    -2.46741   1.47797  -0.15323
F    -3.14948   1.28517   0.98496
F    -3.35733   1.82794  -1.09975
C    -1.72794   0.19716  -0.60179
O    -1.01303   0.65019  -1.74726
O     0.19186  -0.13126  -1.81520
C     0.71070  -0.22143  -0.47092
C     1.47957   1.07119  -0.12016
C     2.46771   1.06039   0.87761
C     3.20153   2.21022   1.17186
C     2.97542   3.39198   0.46046
C     2.01316   3.40523  -0.55100
C     1.27118   2.25619  -0.83973
C     1.73501  -1.35965  -0.55936
C     2.54181  -1.39946  -1.70970
C     3.52034  -2.38239  -1.86119
C     3.72560  -3.33166  -0.85558
C     2.94551  -3.28136   0.30099
C     1.95761  -2.30328   0.45055
C    -0.63477  -0.48878   0.34487
C    -0.53051   0.02047   1.80220
F     0.53457  -0.53738   2.41536
F    -0.38546   1.34806   1.90778
F    -1.59080  -0.30165   2.56076
C    -1.18729  -1.96571   0.37202
C    -1.06246  -2.67064  -1.00034
C    -2.11868  -1.94633  -1.87990
C    -2.74717  -0.94243  -0.89803
C    -2.71476  -1.73767   0.41034
H     2.67777   0.14646   1.43132
H     3.96239   2.17602   1.95513
H     3.55279   4.29162   0.68603
H     1.83330   4.31657  -1.12626
H     0.52650   2.29285  -1.63054
H     2.40487  -0.65426  -2.49361
H     4.12959  -2.40039  -2.76775
H     4.49316  -4.10039  -0.97050
H     3.10007  -4.00921   1.10073
H     1.37346  -2.29022   1.36547
H    -0.77711  -2.54934   1.20211
H    -0.05952  -2.64376  -1.43162
H    -1.32426  -3.72821  -0.85266
H    -1.68662  -1.46072  -2.76253
H    -2.90010  -2.63681  -2.22649
H    -3.71867  -0.55139  -1.21987
H    -3.08830  -1.19260   1.28022
H    -3.26429  -2.68624   0.32790
