23
Generated by autodE on: 2022-06-04. E = -947.254393 Ha
F     0.70289   1.74492   1.38953
C     0.34028   1.79490   0.09038
F    -0.38939   2.91594  -0.06164
F     1.46665   1.96179  -0.62626
C    -0.43847   0.58510  -0.33125
C    -0.06539  -0.70862  -0.32314
C     1.21849  -1.33991   0.09197
F     1.70972  -2.13084  -0.88420
F     2.18051  -0.45923   0.40764
F     1.03445  -2.13279   1.17105
C    -1.29866  -1.54355  -0.62598
C    -2.19698  -1.43067   0.65074
C    -2.62676   0.06229   0.64269
C    -1.92663   0.61930  -0.64182
C    -2.03903  -0.59330  -1.58728
H    -1.10043  -2.56785  -0.96253
H    -3.06308  -2.10007   0.54819
H    -1.64798  -1.72036   1.55659
H    -2.31134   0.60846   1.54248
H    -3.71645   0.16940   0.54327
H    -2.30957   1.58281  -0.99379
H    -1.50974  -0.44572  -2.53965
H    -3.07915  -0.89666  -1.77617
