25
Generated by autodE on: 2022-06-04. E = -652.031741 Ha
O    -0.64065  -2.97960   0.26136
O     0.37262  -2.06540   0.07271
C     0.14167  -0.80189   0.02667
C     1.35094   0.01957  -0.05790
C     1.30976   1.29645  -0.65399
C     2.47206   2.05960  -0.75322
C     3.68285   1.56374  -0.26000
C     3.73308   0.29448   0.33034
C     2.57911  -0.47667   0.42956
C    -1.20705  -0.23491   0.06402
C    -2.27088  -0.82848  -0.64656
C    -3.53077  -0.23631  -0.63176
C    -3.75569   0.92746   0.11394
C    -2.70993   1.51247   0.83421
C    -1.43709   0.94465   0.80048
H     0.37377   1.67944  -1.06084
H     2.43294   3.04439  -1.22320
H     4.59063   2.16672  -0.33462
H     4.67723  -0.09055   0.72116
H     2.61357  -1.45898   0.90190
H    -2.09535  -1.74134  -1.21162
H    -4.34702  -0.68885  -1.19876
H    -4.75083   1.37771   0.13430
H    -2.88461   2.41603   1.42180
H    -0.62253   1.40125   1.36390
