48
Generated by autodE on: 2022-06-04. E = -1599.256528 Ha. Imaginary frequency = -327.8 cm-1
F    -3.36017   1.53313   0.05848
C    -2.40855   1.26394  -0.86799
F    -1.57047   2.30965  -0.87350
F    -3.02962   1.26610  -2.06136
C    -1.77750  -0.08333  -0.56693
O    -0.56183  -0.01306  -1.99119
O     0.48290   0.75567  -1.52267
C     1.29949   0.21042  -0.64347
C     2.10461   1.22564   0.04179
C     3.37762   0.92142   0.57264
C     4.14005   1.91128   1.18811
C     3.65847   3.22122   1.27287
C     2.40934   3.54172   0.72737
C     1.63827   2.55874   0.11752
C     1.69135  -1.20112  -0.69941
C     1.73238  -1.86452  -1.93965
C     2.20128  -3.17493  -2.01357
C     2.62719  -3.83878  -0.85807
C     2.58732  -3.18368   0.37825
C     2.12234  -1.87387   0.46030
C    -1.10600  -0.43288   0.62431
C    -0.81531   0.42628   1.78804
F     0.32627   0.06594   2.44083
F    -0.70520   1.73917   1.51635
F    -1.78752   0.33553   2.75032
C    -1.57675  -1.86227   0.96463
C    -1.08393  -2.91102  -0.06257
C    -1.82366  -2.50033  -1.36288
C    -2.67883  -1.29380  -0.90683
C    -3.05896  -1.73288   0.52777
H     3.78771  -0.08233   0.48006
H     5.12276   1.66007   1.59224
H     4.25922   3.99496   1.75628
H     2.03285   4.56511   0.78455
H     0.66351   2.80972  -0.29274
H     1.40322  -1.34884  -2.84124
H     2.23341  -3.68201  -2.98022
H     2.98540  -4.86873  -0.92011
H     2.90425  -3.70255   1.28517
H     2.04513  -1.38032   1.42833
H    -1.39056  -2.14526   2.00776
H    -0.00049  -2.92995  -0.17389
H    -1.39634  -3.91066   0.27491
H    -1.14245  -2.24717  -2.18164
H    -2.49733  -3.29517  -1.71471
H    -3.49756  -1.04401  -1.59028
H    -3.61748  -2.68281   0.54941
H    -3.60850  -0.96476   1.08887
