41
Generated by autodE on: 2022-06-18. E = -841.309976 Ha
C     0.50118   2.37431  -0.60226
C     0.25070   1.26344  -1.30847
C    -0.08941   1.29955  -2.77329
C     0.30330  -0.11844  -0.69939
C     1.19171  -0.33413   0.55360
C     2.64328  -0.42740   0.20867
C     3.63046   0.39078   0.61562
C     5.04146   0.19156   0.13058
C     3.44750   1.56410   1.54002
N     0.66600  -1.57460   1.13410
N    -0.74208  -1.37248   1.05631
C    -1.51127  -2.53755   1.44385
C    -1.08476  -0.72338  -0.23286
C    -1.56933  -1.67775  -1.24382
N    -1.92252  -2.50557  -2.00204
C    -2.16890   0.36664  -0.04988
O    -2.84153   0.73965  -1.01451
N    -2.25421   0.84543   1.19258
C    -3.15850   1.90195   1.59379
H     0.75604   2.35202   0.45863
H     0.45511   3.35823  -1.07845
H    -1.03670   0.77115  -2.96646
H     0.68893   0.78174  -3.36026
H    -0.18169   2.33008  -3.14553
H     0.68530  -0.80661  -1.46896
H     0.99963   0.46537   1.27852
H     2.89553  -1.24090  -0.48354
H     5.72580   0.02256   0.98036
H     5.40632   1.09835  -0.38347
H     5.12686  -0.65864  -0.56194
H     3.60003   2.50905   0.98971
H     2.45702   1.60251   2.01082
H     4.20917   1.54226   2.33755
H     0.92019  -2.34549   0.49604
H    -1.31008  -3.41812   0.80144
H    -2.58342  -2.30194   1.38544
H    -1.26414  -2.79865   2.48225
H    -1.65701   0.37690   1.87294
H    -3.74757   1.59165   2.46949
H    -3.84072   2.12349   0.76384
H    -2.60684   2.82007   1.85200
