18
Generated by autodE on: 2022-06-18. E = -489.757721 Ha
C     3.29479   0.50299   0.41232
N     2.01702   0.07970  -0.12261
C     0.83456   0.36131   0.46711
O     0.75665   1.02101   1.52443
C    -0.37128  -0.15378  -0.20431
C    -0.27450  -0.89687  -1.39635
N    -0.14164  -1.50607  -2.38005
N    -1.62730   0.07566   0.31895
C    -2.77950  -0.48718  -0.42100
N    -1.91361   0.72016   1.37277
H     3.93111  -0.36485   0.64775
H     3.83172   1.14070  -0.30759
H     3.12579   1.07469   1.33165
H     2.02115  -0.46037  -0.98217
H    -3.67919  -0.21882   0.13879
H    -2.80537  -0.05631  -1.42957
H    -2.67033  -1.57696  -0.48440
H    -1.01037   1.04327   1.76767
