18
Generated by autodE on: 2022-06-09. E = -646.741189 Ha
C    -3.53336  -1.00426   0.01741
C    -2.13020  -1.47357  -0.15913
O    -1.77178  -2.60697  -0.40000
C    -1.06107  -0.42158  -0.02141
O    -1.26634   0.81819   0.24227
C     0.09709   1.50618   0.29948
O     0.14705   2.67878   0.53477
C     0.94835   0.42204   0.02712
C     2.38874   0.37701  -0.07596
C     3.01489  -0.95232  -0.40411
O     3.04692   1.40343   0.10021
O     0.18571  -0.72442  -0.15967
H    -4.22382  -1.84604  -0.11276
H    -3.75370  -0.20800  -0.71264
H    -3.65144  -0.56139   1.02034
H     4.10618  -0.84093  -0.43132
H     2.73302  -1.70694   0.34744
H     2.65177  -1.31398  -1.37970
