26
Generated by autodE on: 2022-06-09. E = -3424.030658 Ha
C     1.41790  -0.72400  -3.50551
C     0.42092   0.33079  -2.98971
C     0.57318   1.63300  -3.79124
C     0.61013   0.54091  -1.55353
C     0.45598   0.48989  -0.34977
C    -0.25050   0.10144   0.84142
Cl   -1.22570   1.51593   1.47100
Br    1.01485  -0.44197   2.29911
C    -1.18575  -1.07599   0.51983
C    -2.06794  -0.88439  -0.73229
C    -1.48840  -1.30010  -2.11454
C    -1.05068  -0.19107  -3.09535
H     2.45430  -0.37598  -3.37949
H     1.24005  -0.90336  -4.57721
H     1.30915  -1.67849  -2.96993
H    -0.10161   2.41415  -3.40984
H     1.60648   2.00854  -3.73818
H     0.32727   1.44839  -4.84853
H    -0.55019  -1.96547   0.38916
H    -1.81259  -1.24971   1.40677
H    -2.43439   0.15480  -0.76708
H    -2.96039  -1.50304  -0.55275
H    -0.66820  -2.02336  -1.97059
H    -2.28076  -1.86433  -2.63032
H    -1.17398  -0.55385  -4.12933
H    -1.72789   0.67166  -2.98308
