44
Generated by autodE on: 2022-06-09. E = -4070.768383 Ha. Imaginary frequency = -299.8 cm-1
C    -0.27401  -4.25617  -0.95642
C     0.79719  -3.33065  -1.44151
O     1.89639  -3.67351  -1.83241
C     0.44261  -1.87694  -1.44895
O     1.13929  -0.98497  -2.16195
C     0.33166   0.17888  -2.30512
O     0.74550   1.16619  -2.84772
C    -0.91528  -0.21582  -1.68045
C    -2.24005   0.39346  -1.86799
C    -3.43761  -0.47645  -1.60037
O    -2.32074   1.53898  -2.28777
O    -0.83369  -1.54683  -1.41282
C     0.16528   0.09690   0.51127
C     0.94679  -0.86968   0.58552
C     2.09324  -1.52078   1.29350
C     1.74314  -2.94132   1.76460
C     3.32634  -1.54533   0.36771
C     2.44638  -0.61322   2.50868
C     1.46597  -0.52285   3.68289
C     0.05946   0.04414   3.42752
C     0.02881   1.36389   2.62984
C    -0.49871   1.19740   1.19556
Cl   -2.30071   0.88141   1.28556
Br   -0.22916   2.91037   0.21659
H    -1.09510  -4.27174  -1.69276
H     0.14115  -5.26503  -0.84430
H    -0.69543  -3.90033  -0.00454
H    -3.29877  -1.11292  -0.71688
H    -4.32608   0.15735  -1.48453
H    -3.58216  -1.13909  -2.47133
H     2.52763  -3.29575   2.45085
H     0.78148  -2.96979   2.29633
H     1.69836  -3.64930   0.92762
H     4.17463  -1.98885   0.91137
H     3.60591  -0.52447   0.06644
H     3.15337  -2.13865  -0.53832
H     2.66214   0.39467   2.11961
H     3.40176  -0.99425   2.90588
H     1.95621   0.11178   4.44112
H     1.35623  -1.51428   4.15165
H    -0.41486   0.21646   4.40563
H    -0.56992  -0.70631   2.92660
H    -0.60279   2.11826   3.11854
H     1.03772   1.79460   2.55431
