52
Generated by autodE on: 2022-10-22. E = -1354.320484 Ha
C     4.74884  -1.33352  -0.38376
N     3.43974  -1.00961   0.14529
C     2.31814  -1.44655  -0.48185
O     2.33968  -2.30945  -1.36759
N     1.13799  -0.87946  -0.02669
N     1.18346   0.13367   0.94841
C     0.20577   1.11979   0.49689
C     0.84084   2.18555  -0.45427
C     2.32848   2.17128  -0.62801
O     0.13255   3.04634  -0.93431
C    -0.29616   1.98880   1.65955
O    -1.28215   2.68754   1.58370
O     0.50047   1.91637   2.71624
C     0.11288   2.68134   3.87305
C    -0.96682   0.24126  -0.15714
C    -1.99281   0.08837   0.96671
O    -1.69493  -0.32172   2.07326
O    -3.20267   0.54145   0.66913
C    -4.16813   0.56069   1.73274
C    -1.47453   0.67814  -1.55221
C    -2.58524  -0.27729  -2.06105
C    -1.82865  -1.59984  -2.36355
C    -0.36798  -1.24479  -2.03413
C    -0.30650   0.22962  -2.45674
C    -0.22509  -1.13280  -0.49166
O    -0.84110  -2.17496   0.22588
C    -0.28568  -3.47055   0.06091
H     4.84385  -2.41747  -0.53855
H     5.51190  -1.01728   0.33912
H     4.94942  -0.83218  -1.34694
H     3.33126  -0.20025   0.74892
H     0.86373  -0.25193   1.84107
H     2.80553   2.27545   0.35900
H     2.67453   1.21845  -1.05090
H     2.61993   3.00285  -1.28146
H     0.89451   2.50836   4.62065
H    -0.85980   2.32836   4.24346
H     0.05065   3.74829   3.61866
H    -5.09087   0.95386   1.29177
H    -3.81933   1.21738   2.54239
H    -4.33063  -0.45356   2.12286
H    -1.74893   1.73603  -1.58632
H    -3.01209   0.15299  -2.97879
H    -3.40403  -0.40844  -1.34860
H    -1.90583  -1.87593  -3.42483
H    -2.19911  -2.44478  -1.77030
H     0.37897  -1.90582  -2.47718
H    -0.53056   0.36940  -3.52396
H     0.66520   0.69599  -2.25593
H    -0.26091  -3.78127  -0.99582
H     0.73503  -3.52847   0.47239
H    -0.93273  -4.15980   0.62080
