25
Generated by autodE on: 2022-10-26. E = -738.857348 Ha
C     2.87400  -3.52364  -1.75233
N     2.12481  -2.28652  -1.80559
C     1.42849  -1.79209  -0.77408
O     1.32760  -2.30671   0.34624
N     0.78971  -0.56683  -1.11255
N     0.13582  -0.13691  -0.09717
C    -0.61033   0.95960   0.05863
C    -0.83420   1.97233  -0.99951
C    -0.02635   1.91211  -2.26690
O    -1.67220   2.85313  -0.83488
C    -1.22099   1.10491   1.40274
O    -1.80745   2.08544   1.81246
O    -1.03323   0.00236   2.15251
C    -1.52197   0.04006   3.50014
H     2.50342  -4.23798  -2.50385
H     2.76157  -3.96717  -0.75637
H     3.94349  -3.34342  -1.94313
H     2.11368  -1.74969  -2.66818
H     0.19542  -0.75944   0.74302
H    -0.24458   2.81393  -2.85366
H     1.05003   1.83806  -2.05375
H    -0.29084   1.01443  -2.84596
H    -1.27064  -0.93254   3.93799
H    -2.61079   0.19155   3.50749
H    -1.03482   0.84933   4.06288
