70
Generated by autodE on: 2022-06-14. E = -2038.967828 Ha
C    10.93453   3.43741  24.33682
O    10.10173   3.73354  23.20406
C    10.01616   2.80744  22.26155
O    10.63202   1.76556  22.25987
C     9.09510   3.26424  21.10686
C     9.07926   2.16786  20.00226
O     8.14915   1.44544  19.73377
O    10.22073   2.19244  19.31956
C    10.30370   1.34522  18.16118
N     9.69060   4.49153  20.60888
C     8.65832   5.35961  20.04971
C     8.61073   4.97040  18.54252
C     9.74908   5.42064  17.66566
O     7.76024   4.20432  18.12598
C     8.98797   6.82421  20.33672
C     8.67461   7.86098  19.44798
C     8.91918   9.19212  19.80020
C     9.48121   9.49986  21.04065
C     9.81139   8.46722  21.92580
C     9.56926   7.14067  21.57421
C     7.40955   4.86351  20.80090
C     7.65336   3.70829  21.46277
C     6.65628   2.90987  22.32734
C     6.09084   3.80212  23.46406
C     6.86879   4.84269  23.99282
C     6.40017   5.62241  25.05258
C     5.14998   5.36500  25.61733
C     4.38042   4.30898  25.12080
C     4.84958   3.53031  24.06127
C     7.28471   1.72640  23.12713
F     6.31669   1.02445  23.74293
F     7.96141   0.84961  22.36944
F     8.13001   2.12754  24.09620
C     5.59020   2.19648  21.40533
C     5.14769   2.85791  20.10213
C     4.22410   4.06447  20.22548
C     4.73631   5.21184  21.08435
C     6.15608   5.77080  20.71529
C     5.98902   6.29255  19.33820
N     5.73989   6.68718  18.27817
C     6.34316   6.94784  21.59847
N     6.37551   7.85282  22.32127
H    11.98224   3.33840  24.01979
H    10.81996   4.28496  25.02129
H    10.60320   2.50706  24.81779
H     9.50791   1.60956  17.45060
H    11.28961   1.53242  17.72192
H    10.20638   0.29024  18.45316
H    10.49195   4.32822  20.00317
H     9.35796   6.16615  16.95453
H    10.10507   4.55861  17.08246
H    10.57786   5.87730  18.22087
H     8.23162   7.64777  18.47624
H     8.66762   9.98950  19.09736
H     9.66753  10.54060  21.31588
H    10.25532   8.69844  22.89688
H     9.81954   6.33255  22.26139
H     7.84970   5.06057  23.57285
H     7.01879   6.43927  25.43052
H     4.77853   5.97853  26.44129
H     3.40386   4.08754  25.55732
H     4.22208   2.71900  23.69500
H     6.03298   1.23576  21.12082
H     4.70785   1.96127  22.01212
H     6.01973   3.11168  19.48583
H     4.60609   2.08227  19.53679
H     3.99204   4.43594  19.21427
H     3.26385   3.75362  20.66931
H     4.75336   4.94604  22.14117
H     4.05094   6.06686  20.99548
