35
Generated by autodE on: 2022-06-14. E = -973.850853 Ha
C     4.28655  -1.11499   2.22233
O     3.50282  -0.44211   1.23083
C     2.17981  -0.64651   1.27706
O     1.65703  -1.36267   2.13534
C     1.39459   0.01961   0.25330
N     0.05051  -0.29959   0.37840
C    -1.04737   0.19485  -0.13660
C    -1.04589   1.54821  -0.82347
C    -1.67863   1.65454  -2.17900
O    -0.65566   2.50844  -0.18268
C    -2.31549  -0.50208   0.08991
C    -3.51718   0.22556   0.21623
C    -4.71806  -0.43766   0.46123
C    -4.74303  -1.83168   0.57967
C    -3.55737  -2.56286   0.45256
C    -2.35217  -1.90739   0.20611
C     1.83953   0.69273  -0.93984
O     1.08853   0.97931  -1.87604
O     3.15123   0.98034  -0.98335
C     3.62629   1.60284  -2.18153
H     5.32646  -0.82606   2.02867
H     4.17615  -2.20588   2.13450
H     3.99067  -0.80159   3.23437
H    -0.06745  -1.07791   1.04318
H    -1.54202   0.73365  -2.76057
H    -1.25385   2.51763  -2.70816
H    -2.76100   1.82384  -2.05452
H    -3.50925   1.31525   0.15542
H    -5.63983   0.13820   0.56734
H    -5.68715  -2.34819   0.76648
H    -3.57277  -3.65196   0.53207
H    -1.43812  -2.49010   0.07316
H     4.69796   1.77447  -2.02472
H     3.11219   2.55952  -2.35571
H     3.47416   0.94747  -3.05188
