70
Generated by autodE on: 2022-06-14. E = -2038.880241 Ha. Imaginary frequency = -249.0 cm-1
C    11.70410   2.25349  24.16209
O    11.12109   2.37027  22.85699
C    10.75701   3.58503  22.47509
O    10.96916   4.58900  23.14927
C    10.03754   3.67741  21.18324
C     9.81899   2.58450  20.21801
O     9.04280   2.65387  19.27532
O    10.56692   1.50701  20.44051
C    10.32368   0.36997  19.60111
N     9.90179   4.98217  20.82420
C     9.05753   5.60406  19.98555
C     8.79840   5.03730  18.58519
C    10.02854   4.82508  17.74321
O     7.67667   4.95377  18.12903
C     9.03780   7.08955  20.09538
C     8.88925   7.91358  18.96486
C     8.88040   9.30212  19.09499
C     9.01512   9.89508  20.35311
C     9.15260   9.08688  21.48604
C     9.15979   7.69959  21.36032
C     7.21278   4.90218  21.05243
C     7.40926   3.85293  21.69788
C     6.74652   2.73328  22.42894
C     5.93139   3.29662  23.61187
C     6.35306   4.45943  24.27132
C     5.63304   4.96618  25.35507
C     4.48689   4.30646  25.80608
C     4.07765   3.12866  25.17429
C     4.79742   2.62340  24.08859
C     7.74931   1.74692  23.06325
F     7.11945   0.78897  23.76690
F     8.58166   2.36882  23.91914
F     8.50296   1.11102  22.15206
C     5.90968   1.92905  21.37853
C     4.60530   2.53123  20.83890
C     4.63537   3.87467  20.09720
C     4.72164   5.10974  21.01227
C     6.08479   5.88581  20.88170
C     6.00660   6.65842  19.62120
N     5.76328   7.30999  18.69483
C     6.13661   6.87940  21.97702
N     6.12146   7.63170  22.85830
H    11.88948   1.18347  24.30978
H    12.64807   2.81450  24.21358
H    11.01107   2.62921  24.92757
H     9.28130   0.03513  19.70206
H    10.53019   0.61377  18.54940
H    11.00809  -0.41061  19.95240
H    10.26645   5.57106  21.58341
H     9.79798   4.12218  16.93194
H    10.89091   4.47847  18.32570
H    10.29813   5.79980  17.30102
H     8.76356   7.47975  17.97330
H     8.76365   9.92331  18.20450
H     9.00217  10.98268  20.45260
H     9.23570   9.53700  22.47737
H     9.22515   7.09210  22.26570
H     7.24708   4.98188  23.93065
H     5.96947   5.88392  25.84247
H     3.91768   4.70468  26.64923
H     3.19066   2.59636  25.52548
H     4.46641   1.69755  23.61928
H     6.58729   1.72184  20.53773
H     5.65656   0.95471  21.82229
H     4.21384   1.77550  20.13871
H     3.85941   2.59853  21.64547
H     3.69976   3.94909  19.52349
H     5.44582   3.88382  19.35168
H     3.91896   5.82961  20.79894
H     4.62358   4.82728  22.06751
