54
Generated by autodE on: 2022-06-03. E = -1344.104695 Ha
C     2.80156   0.14345  -5.21475
N     1.87985  -0.07987  -4.11641
C     0.59503  -0.38493  -4.33114
O     0.10531  -0.48022  -5.45820
C    -0.31783  -0.48211  -3.07816
C     0.37005  -0.84544  -1.76149
C     1.31955  -1.87639  -1.68520
C     1.87204  -2.23828  -0.45417
C     1.48182  -1.58154   0.71598
C     0.53572  -0.55514   0.64622
C    -0.01573  -0.18895  -0.58366
O    -0.85358   0.87066  -2.96758
N    -2.28201   0.78079  -2.94140
C    -2.87355   1.83261  -3.50838
N    -3.42243   2.78119  -3.91036
C    -2.65131  -0.56316  -3.22640
C    -1.55967  -1.32676  -3.33396
C    -1.54094  -2.82944  -3.50018
F    -0.19591  -3.15928  -3.86043
C    -2.38967  -3.31952  -4.67342
C    -2.45968  -2.55136  -5.84714
C    -3.17879  -3.00392  -6.95434
C    -3.84183  -4.23450  -6.90795
C    -3.76559  -5.01276  -5.75068
C    -3.04026  -4.56144  -4.64359
C    -1.79206  -3.55645  -2.17011
C    -3.18060  -3.43694  -1.51771
C    -3.54351  -2.07895  -0.87776
C    -4.50911  -1.19631  -1.67942
C    -4.08819  -0.94542  -3.14166
H     2.84037  -0.73381  -5.87874
H     3.80252   0.32615  -4.80627
H     2.49649   1.01341  -5.81767
H     2.22138  -0.02045  -3.16284
H     1.61611  -2.41592  -2.58259
H     2.60992  -3.04276  -0.41241
H     1.91401  -1.86749   1.67767
H     0.22344  -0.03340   1.55380
H    -0.75107   0.61369  -0.62821
H    -1.93762  -1.59591  -5.89116
H    -3.22194  -2.39117  -7.85794
H    -4.41154  -4.58641  -7.77131
H    -4.27270  -5.97929  -5.70421
H    -2.99076  -5.19522  -3.75895
H    -1.56573  -4.61894  -2.34426
H    -1.03403  -3.19390  -1.46118
H    -3.19617  -4.20465  -0.72890
H    -3.96627  -3.73578  -2.22980
H    -4.01376  -2.26326   0.10116
H    -2.62001  -1.51779  -0.65983
H    -4.62009  -0.22994  -1.16119
H    -5.50924  -1.66004  -1.70005
H    -4.23271  -1.85661  -3.73528
H    -4.72211  -0.16516  -3.59115
