24
Generated by autodE on: 2022-07-27. E = -701.396739 Ha
C     2.05595  -0.32816  -2.36756
N     1.20547  -1.47623  -2.08776
C     0.22748  -1.55404  -1.18053
O    -0.46536  -2.54818  -0.96267
C    -0.08102  -0.28987  -0.38739
O    -0.47603   0.62917  -1.18875
N    -0.92515   1.89263  -0.74867
C    -1.20966   2.58558  -1.83419
N    -1.49940   3.31186  -2.71401
C     0.00340  -0.26758   1.04620
C     0.64902  -1.36726   1.67607
C     0.79572  -1.40092   3.05477
C     0.29757  -0.35191   3.83941
C    -0.34532   0.73390   3.23633
C    -0.49200   0.78926   1.85397
H     2.24744   0.24746  -1.45241
H     1.60821   0.33991  -3.11943
H     3.01919  -0.69134  -2.74740
H     1.32851  -2.31179  -2.65760
H     1.03674  -2.19255   1.07944
H     1.29905  -2.24739   3.52529
H     0.41219  -0.38347   4.92523
H    -0.73490   1.54839   3.85002
H    -0.98660   1.63262   1.38331
