24
Generated by autodE on: 2022-06-03. E = -701.402669 Ha
C    -2.27772  -1.31561  -1.33313
N    -1.92912  -1.74128   0.01117
C    -1.03898  -1.15048   0.80677
O    -0.80204  -1.43442   1.98050
C    -0.18790  -0.03661   0.21554
O    -0.64686   1.15412   0.21667
N    -2.00199   1.32826   0.63789
C    -2.26496   2.61400   0.54344
N    -2.62865   3.73420   0.50667
C     1.17044  -0.25154  -0.20493
C     1.69061  -1.56549  -0.23036
C     2.99774  -1.78306  -0.65402
C     3.79282  -0.70340  -1.05479
C     3.28230   0.60315  -1.03359
C     1.98011   0.83501  -0.61267
H    -3.21358  -0.73686  -1.33865
H    -1.47766  -0.69238  -1.75516
H    -2.39663  -2.19454  -1.98116
H    -2.49822  -2.46385   0.45098
H     1.07377  -2.40913   0.08262
H     3.39990  -2.79751  -0.67306
H     4.81853  -0.87882  -1.38671
H     3.90889   1.43998  -1.34786
H     1.57489   1.84731  -0.59347
