30
Generated by autodE on: 2022-06-03. E = -642.593757 Ha
F    -1.41745  -1.73548   1.05080
C    -0.52445  -0.87224   0.37935
C    -0.76966   0.53935   0.89878
C    -1.17296   0.71269   2.23105
C    -1.34518   1.99565   2.75533
C    -1.10994   3.12022   1.95727
C    -0.70632   2.95203   0.63011
C    -0.53972   1.66787   0.10188
C    -0.67889  -1.00291  -1.06803
C    -0.25841  -1.03484  -2.20665
C     0.68519  -1.11227  -3.31189
C     2.06590  -0.70063  -2.74099
C     2.48796  -1.39866  -1.42920
C     2.07124  -0.76209  -0.07193
C     0.90120  -1.37988   0.71792
H    -1.35746  -0.16206   2.85617
H    -1.66532   2.11721   3.79298
H    -1.24372   4.12361   2.36836
H    -0.52358   3.82373  -0.00269
H    -0.23464   1.54281  -0.93811
H     0.72449  -2.14706  -3.69280
H     0.40710  -0.46610  -4.15937
H     2.81619  -0.91177  -3.52001
H     2.07299   0.39162  -2.58741
H     2.17500  -2.45734  -1.45580
H     3.58907  -1.41999  -1.43704
H     2.94480  -0.83643   0.59389
H     1.90270   0.32018  -0.20278
H     0.88395  -2.47189   0.57067
H     1.04721  -1.19772   1.79440
