54
Generated by autodE on: 2022-06-03. E = -1343.999387 Ha. Imaginary frequency = -167.1 cm-1
C     2.52418  -1.75938  -5.22059
N     1.87702  -0.99851  -4.16989
C     0.62789  -0.54180  -4.33011
O     0.00712  -0.58835  -5.39179
C    -0.01115   0.08654  -3.10444
C     0.58214   0.07385  -1.75963
C     1.01631  -1.12496  -1.16140
C     1.65820  -1.09529   0.07525
C     1.88487   0.12354   0.72268
C     1.46358   1.31806   0.12879
C     0.80707   1.29853  -1.09981
O    -0.89368   0.95881  -3.47327
N    -1.75412   1.43919  -2.49439
C    -2.71475   2.12112  -3.09491
N    -3.63754   2.73848  -3.48019
C    -2.65436  -0.90812  -2.19479
C    -1.78144  -1.58092  -2.74378
C    -1.48568  -2.90216  -3.32460
F    -0.08276  -3.13633  -3.31428
C    -1.93786  -3.02521  -4.77572
C    -3.00763  -2.28101  -5.28635
C    -3.42217  -2.45681  -6.60984
C    -2.76635  -3.37134  -7.43813
C    -1.69384  -4.11357  -6.93315
C    -1.28282  -3.94340  -5.60937
C    -2.08120  -4.00454  -2.42492
C    -3.60545  -4.01597  -2.22616
C    -4.23693  -3.13293  -1.12009
C    -4.82607  -1.76715  -1.52320
C    -3.85865  -0.56278  -1.45909
H     3.54348  -2.00789  -4.90305
H     2.56877  -1.17757  -6.15317
H     1.96969  -2.69043  -5.42327
H     2.31757  -0.94701  -3.25702
H     0.82778  -2.07625  -1.65647
H     1.97911  -2.03103   0.53743
H     2.38880   0.14301   1.69155
H     1.64511   2.27278   0.62694
H     0.48145   2.23199  -1.55751
H    -3.51437  -1.55354  -4.65173
H    -4.25807  -1.86838  -6.99539
H    -3.08699  -3.50353  -8.47415
H    -1.17119  -4.82797  -7.57371
H    -0.44310  -4.52168  -5.22168
H    -1.77513  -4.95781  -2.88412
H    -1.57402  -3.93371  -1.44922
H    -3.85372  -5.05896  -1.97589
H    -4.10936  -3.82269  -3.18827
H    -5.07024  -3.71623  -0.69815
H    -3.52020  -3.00137  -0.29024
H    -5.67134  -1.52661  -0.85892
H    -5.23981  -1.83530  -2.54305
H    -4.34710   0.33553  -1.86706
H    -3.59280  -0.34275  -0.41110
