22
Generated by autodE on: 2022-05-30. E = -404.714568 Ha
C     3.13073   0.07248   0.54146
C     1.85343   0.36244  -0.23745
O     1.98997   0.95953  -1.34790
C     0.67424  -0.08205   0.38362
N    -0.64450   0.05919  -0.07880
C    -0.91627   1.02024  -1.16637
C    -1.66200  -0.58593   0.45967
C    -1.41432  -1.57633   1.54551
C    -3.05638  -0.30623  -0.00083
H     2.96653  -0.46010   1.48898
H     3.81070  -0.52263  -0.09100
H     3.64648   1.02473   0.75175
H     0.76382  -0.60826   1.32691
H    -1.48580   0.52805  -1.96436
H     0.04199   1.36893  -1.55663
H    -1.50560   1.85934  -0.77222
H    -0.62667  -2.29317   1.25563
H    -2.33258  -2.12563   1.78483
H    -1.05946  -1.07829   2.46685
H    -3.77373  -0.88239   0.59524
H    -3.19688  -0.57529  -1.06226
H    -3.30991   0.76380   0.08781
