27
Generated by autodE on: 2022-05-30. E = -632.403630 Ha
C     0.73630  -3.52708  -0.96526
O     1.00455  -2.19076  -0.50087
C     0.29497  -1.21173  -1.04347
O    -0.55034  -1.35314  -1.89351
C     0.69244   0.16205  -0.43085
C     2.11209   0.39336  -0.75135
N     3.22155   0.59722  -1.02100
C     0.45212   0.14169   1.01709
C    -0.17127   0.39073   2.02702
C    -1.17121   0.96755   2.91373
C    -2.35076   1.42962   2.01969
C    -1.95938   2.20213   0.74108
C    -1.63541   1.37865  -0.53948
C    -0.17431   1.31845  -1.02996
H     0.93750  -3.60002  -2.04321
H    -0.31062  -3.79308  -0.76302
H     1.41338  -4.18008  -0.40387
H    -1.51820   0.25996   3.68294
H    -0.73301   1.82992   3.44434
H    -2.94721   0.54624   1.73668
H    -3.00393   2.06258   2.64147
H    -1.12731   2.89214   0.96564
H    -2.81662   2.84853   0.49650
H    -2.19771   1.83186  -1.37032
H    -2.03719   0.35779  -0.44230
H    -0.14759   1.19614  -2.12225
H     0.33732   2.26343  -0.79421
