49
Generated by autodE on: 2022-05-30. E = -1037.118234 Ha. Imaginary frequency = -249.0 cm-1
C     2.52278  -2.71431   0.58967
O     1.60200  -1.85693  -0.10611
C     0.34808  -2.26960  -0.20769
O    -0.05892  -3.33514   0.20232
C    -0.53322  -1.24409  -0.94838
C    -1.93921  -1.55737  -0.64309
N    -3.06564  -1.75498  -0.45196
C    -0.32652  -1.41747  -2.50553
C     0.98754  -0.81574  -3.04203
C     0.85095   0.44214  -3.92092
C     0.07540   1.65268  -3.38001
C     0.52781   2.19812  -2.01168
C     0.16290   1.26189  -0.93612
C    -0.23208   0.15042  -0.55947
C    -0.02465   0.21127   1.90812
C    -1.23826   0.11930   2.66727
C    -1.84123  -1.27023   2.77769
O    -1.79120   1.06389   3.26684
N     0.73053   1.37192   1.76448
C     2.18540   1.15703   1.79473
C     0.27138   2.46612   1.13744
C     1.20749   3.61708   0.90255
C    -1.19101   2.77234   1.05262
H     3.48193  -2.18533   0.58657
H     2.61248  -3.67868   0.07056
H     2.17778  -2.87711   1.62029
H    -0.39287  -2.49449  -2.72186
H    -1.19407  -0.94435  -2.98849
H     1.67130  -0.61063  -2.20803
H     1.49248  -1.58267  -3.65033
H     1.87310   0.76877  -4.18104
H     0.37644   0.15176  -4.87470
H     0.15992   2.46284  -4.12401
H    -0.99870   1.41162  -3.31039
H     1.61888   2.36939  -2.00030
H     0.06967   3.18517  -1.83404
H     0.58346  -0.69097   1.90959
H    -2.84896  -1.25952   2.33419
H    -1.95623  -1.52417   3.84411
H    -1.24829  -2.04710   2.27811
H     2.69030   2.00421   2.27349
H     2.57181   1.03236   0.77089
H     2.39820   0.25351   2.37453
H     1.47962   4.09666   1.86026
H     2.13884   3.31816   0.40408
H     0.71264   4.37470   0.28291
H    -1.79806   1.87587   0.90209
H    -1.36354   3.47276   0.22419
H    -1.53056   3.25310   1.98621
