34
Generated by autodE on: 2022-06-01. E = -1751.163394 Ha
C    -4.32182  -1.60471  -0.66024
C    -2.87621  -1.95670  -0.55603
O    -2.44002  -3.05502  -0.28260
C    -1.87892  -0.82741  -0.84073
O    -1.81394  -0.63223  -2.29442
C    -1.40695   0.65623  -2.45830
O    -1.20122   1.17192  -3.51890
C    -1.25850   1.18801  -1.01969
C    -1.35844   2.68955  -0.84213
C    -2.41298   3.19660   0.08397
O    -0.56294   3.38380  -1.44440
O    -2.29950   0.43023  -0.38456
C     0.05398   0.51664  -0.51035
C     0.44196   0.84157   0.96321
O    -0.52766   0.10310   1.71054
C    -0.23003  -1.18068   1.16385
C     1.28793  -1.23182   1.34951
Cl    2.14985  -2.70373   1.48262
C     1.71601   0.03505   1.23369
C     3.08855   0.59656   1.14561
F     4.03303  -0.27819   1.51426
F     3.22341   1.68964   1.92235
F     3.37365   0.98852  -0.11706
C    -0.42425  -0.96446  -0.36806
H    -4.94075  -2.50383  -0.55182
H    -4.56831  -0.87607   0.12988
H    -4.51663  -1.10759  -1.62365
H    -3.40443   2.88323  -0.28190
H    -2.28147   2.73041   1.07433
H    -2.35770   4.28963   0.15974
H     0.88180   0.68733  -1.20539
H     0.45975   1.89952   1.24439
H    -0.81531  -1.97983   1.62755
H     0.11738  -1.69901  -0.97154
