18
Generated by autodE on: 2022-06-01. E = -646.741196 Ha
C     3.58011   0.73926  -0.36408
C     2.20099   1.15741  -0.74173
O     1.89812   2.09694  -1.44640
C     1.08093   0.31964  -0.18169
O     1.22564  -0.70647   0.57628
C    -0.17071  -1.23794   0.89953
O    -0.27753  -2.20287   1.59967
C    -0.96845  -0.32257   0.19266
C    -2.40553  -0.24913   0.06416
C    -2.96590   0.86807  -0.77560
O    -3.11443  -1.08149   0.63218
O    -0.15030   0.60179  -0.44555
H     3.75515  -0.30042  -0.68661
H     3.68417   0.75628   0.73358
H     4.31037   1.41300  -0.82787
H    -2.66740   1.84398  -0.35990
H    -4.06029   0.79097  -0.79587
H    -2.56676   0.81597  -1.80114
