16
Generated by autodE on: 2022-06-01. E = -1104.339440 Ha
F    -1.73450  -0.91908   1.41980
C    -1.62178  -0.18541   0.28836
F    -2.50146  -0.71056  -0.59040
F    -2.03788   1.05624   0.57554
C    -0.23650  -0.22856  -0.23087
C     0.73175   0.69449  -0.27047
Cl    0.75207   2.33996   0.19623
C     2.00747  -0.06084  -0.72760
C     2.40985  -0.97924   0.44872
C     1.45214  -1.90919   0.49457
C     0.48317  -1.53881  -0.65094
O     1.40638  -1.00977  -1.61819
H     2.78339   0.54596  -1.20466
H     3.26707  -0.81834   1.10077
H     1.30491  -2.73052   1.19449
H    -0.15323  -2.32834  -1.06356
