34
Generated by autodE on: 2022-06-01. E = -1751.085064 Ha. Imaginary frequency = -282.6 cm-1
C    -3.77209  -1.79957   0.16391
C    -2.88496  -1.92492  -1.03351
O    -2.72460  -2.93479  -1.69221
C    -2.13419  -0.69712  -1.43245
O    -1.67436  -0.53327  -2.67395
C    -1.23807   0.82327  -2.79393
O    -0.67800   1.21520  -3.78552
C    -1.62323   1.39307  -1.53519
C    -1.51887   2.76581  -1.06067
C    -2.22425   3.09903   0.22348
O    -0.86011   3.57784  -1.70504
O    -2.36581   0.47005  -0.85952
C     0.46581   0.17047  -0.69598
C     0.58011   0.78270   0.70965
O    -0.57628   0.21681   1.34252
C    -0.26914  -1.14647   1.03774
C     1.16478  -1.22476   1.62061
Cl    1.82627  -2.67156   2.24072
C     1.70104  -0.01250   1.42546
C     3.07595   0.50623   1.61633
F     3.86977  -0.34703   2.27696
F     3.07486   1.66914   2.29921
F     3.66110   0.76434   0.42525
C    -0.10329  -1.06914  -0.49633
H    -4.09238  -2.79741   0.48784
H    -3.26390  -1.26672   0.98092
H    -4.65536  -1.19902  -0.11390
H    -3.31363   3.00413   0.08123
H    -1.93934   2.38972   1.01526
H    -1.97711   4.12598   0.52013
H     1.03710   0.51866  -1.55441
H     0.62269   1.87234   0.79994
H    -0.99826  -1.85090   1.44872
H     0.00897  -1.94333  -1.13642
