33
Generated by autodE on: 2022-10-26. E = -781.618252 Ha
C    -3.82887   0.43183   1.21805
N    -2.49882   0.00821   0.83399
C    -1.38594   0.59691   1.36987
O    -1.51774   1.51243   2.20718
C    -0.09736   0.11328   0.88873
C     1.15825   0.78090   1.03061
C     1.24301   2.05577   1.84465
O     2.20503   0.34877   0.49283
N    -0.04286  -1.17852   0.27831
C    -0.50163  -2.32188   1.09460
C     0.62891  -1.41624  -0.82036
C     0.98987  -2.80510  -1.21334
C     1.04176  -0.32935  -1.79833
O     2.06253  -0.48862  -2.47037
N     0.19304   0.69430  -1.98269
C     0.53773   1.79394  -2.86389
H    -4.05822   1.45682   0.87746
H    -4.56230  -0.25439   0.77489
H    -3.94559   0.41111   2.31214
H    -2.40575  -0.59705   0.02655
H     0.94900   1.88937   2.89014
H     0.56148   2.82041   1.44371
H     2.27776   2.42138   1.79942
H    -1.08579  -3.02131   0.48397
H    -1.11146  -1.94524   1.91856
H     0.37591  -2.84090   1.50646
H     1.47558  -3.34034  -0.38318
H     0.08131  -3.37182  -1.47975
H     1.66239  -2.78387  -2.07628
H    -0.54321   0.84217  -1.29919
H     1.39596   2.36724  -2.47507
H     0.80198   1.41830  -3.86275
H    -0.32704   2.46272  -2.95075
