44
Generated by autodE on: 2022-10-25. E = -988.332227 Ha
C     2.21644  -0.10842   4.14541
O     2.99859   0.03120   2.96195
C     2.44343   0.81425   1.96808
F     2.36419   2.14063   2.44453
C     1.09033   0.42692   1.53181
C     0.25104   0.24447   0.67616
C    -0.43605   0.15795  -0.61216
C    -0.46313  -1.28866  -1.14572
C     0.19032  -2.34186  -0.49520
C     0.16471  -3.63602  -1.02875
C    -0.51317  -3.89282  -2.22171
C    -1.16860  -2.84471  -2.87871
C    -1.14502  -1.55621  -2.34362
C    -1.87918   0.67402  -0.49292
C    -2.44250   1.56082  -1.41855
C    -3.77626   1.96741  -1.29078
C    -4.56152   1.49558  -0.23714
C    -4.00503   0.60917   0.69230
C    -2.67659   0.20317   0.56217
C     0.45695   1.04659  -1.54693
C     1.97146   0.75356  -1.51213
C     2.85084   1.53710  -0.49621
C     3.37056   0.79905   0.75084
H     2.75926  -0.79733   4.80536
H     1.22346  -0.53117   3.91418
H     2.08630   0.85956   4.65428
H     0.72568  -2.15381   0.43639
H     0.67990  -4.44466  -0.50463
H    -0.53393  -4.90261  -2.63825
H    -1.70476  -3.03257  -3.81213
H    -1.66769  -0.74958  -2.86162
H    -1.85137   1.94046  -2.25171
H    -4.19947   2.65970  -2.02267
H    -5.60133   1.81600  -0.13827
H    -4.60856   0.23320   1.52201
H    -2.24815  -0.49305   1.28767
H     0.08708   0.91021  -2.57324
H     0.28357   2.10104  -1.28217
H     2.14153  -0.33020  -1.39760
H     2.34852   1.00113  -2.51602
H     2.33477   2.45915  -0.18042
H     3.74627   1.87602  -1.03879
H     3.57968  -0.25615   0.51680
H     4.31492   1.25159   1.09306
