29
Generated by autodE on: 2022-06-02. E = -857.261397 Ha
C     4.06565  -1.36502   1.50148
O     3.54157  -0.47967   0.50416
C     2.22011  -0.24103   0.54923
O     1.47901  -0.74366   1.38023
C     1.86023   0.73785  -0.46984
N     0.62753   1.17112  -0.70895
C     0.54540   2.46422  -1.43584
C    -0.52198   0.50100  -0.38374
C    -1.76091   1.26090  -0.23467
O    -1.82752   2.45218   0.04142
O    -2.86232   0.51800  -0.44935
C    -4.12007   1.16445  -0.23228
C    -0.48223  -0.97448  -0.34331
O     0.26007  -1.66041  -1.02770
O    -1.36658  -1.50288   0.50801
C    -1.43580  -2.93357   0.55087
H     5.13574  -1.46390   1.28573
H     3.57293  -2.34661   1.44292
H     3.91914  -0.94447   2.50735
H     2.67240   1.24955  -0.98109
H     1.47565   2.59204  -1.99857
H     0.43606   3.27911  -0.71271
H    -0.30930   2.45022  -2.11872
H    -4.25754   1.99730  -0.93767
H    -4.88592   0.39821  -0.40156
H    -4.19045   1.54726   0.79668
H    -0.46917  -3.35339   0.86480
H    -2.21136  -3.17529   1.28691
H    -1.70815  -3.34066  -0.43378
