46
Generated by autodE on: 2022-06-02. E = -1205.122328 Ha. Imaginary frequency = -345.5 cm-1
C    -2.57467   2.19482  -2.14534
O    -1.90661   2.11385  -0.88179
C    -0.69938   1.51080  -0.87378
O    -0.17235   1.09664  -1.89427
C    -0.23134   1.44022   0.51076
C    -0.99357  -0.84104   0.38400
C    -2.41851  -0.65142   0.42509
C    -3.19660  -0.94866  -0.71307
C    -4.57696  -0.73983  -0.70231
C    -5.20743  -0.24275   0.44231
C    -4.44412   0.04820   1.58034
C    -3.06374  -0.14372   1.57210
C     0.08357  -1.45531   0.22025
C     0.81487  -2.72894   0.07516
C     1.73078   0.11967   0.32669
C     2.79390  -0.66747   0.99950
O     3.80544  -1.02633   0.41643
O     2.51128  -1.04230   2.24789
C     3.48941  -1.85091   2.91618
C     2.14409   0.45784  -1.08642
O     2.53731   1.56299  -1.39972
O     2.15050  -0.59103  -1.90262
C     2.61316  -0.35728  -3.23859
N     0.96608   1.04757   0.99020
C     1.12362   1.27304   2.44112
H    -2.02783   2.86408  -2.82630
H    -2.66394   1.20138  -2.60520
H    -3.57010   2.60249  -1.93432
H    -0.82689   2.03228   1.20293
H    -2.70381  -1.33305  -1.60805
H    -5.16307  -0.96730  -1.59609
H    -6.28750  -0.07926   0.44868
H    -4.92926   0.43911   2.47806
H    -2.46574   0.10897   2.45027
H     1.56912  -2.67563  -0.72146
H     1.33669  -2.99098   1.00870
H     0.11196  -3.54453  -0.15976
H     4.45075  -1.32125   2.97730
H     3.62754  -2.80193   2.38235
H     3.09067  -2.03296   3.92062
H     1.97112   0.38311  -3.73697
H     2.54986  -1.32277  -3.75342
H     3.65223   0.00251  -3.23030
H     0.63979   2.22379   2.68779
H     2.18416   1.33363   2.69845
H     0.64727   0.45980   3.00457
