36
Generated by autodE on: 2022-06-17. E = -692.463879 Ha
C     1.43847   2.55068  -1.26878
C     1.01773   1.90422   0.02675
O     0.34067   2.49420   0.85867
N     1.42596   0.62397   0.23065
N     2.07876  -0.07729  -0.77252
C     2.30043  -1.27485  -0.36363
C     2.98022  -2.29689  -1.20127
C     1.84781  -1.52080   1.04824
C     0.99895  -0.25694   1.35883
C     1.34147   0.32829   2.73026
C    -0.47561  -0.58665   1.25653
C    -1.26853  -0.34908   0.19639
C    -2.67204  -0.71901   0.12591
C    -3.49302  -0.48226  -0.92463
C    -3.03306   0.20822  -2.18626
C    -4.92725  -0.92731  -0.90661
H     2.52399   2.47727  -1.42272
H     0.95298   2.04825  -2.11943
H     1.13124   3.60359  -1.24265
H     2.31342  -3.16069  -1.36217
H     3.27312  -1.88081  -2.17472
H     3.87628  -2.67942  -0.68417
H     1.27730  -2.45440   1.15421
H     2.73062  -1.59555   1.70663
H     1.15036  -0.43198   3.50296
H     0.73391   1.21422   2.94926
H     2.40577   0.60391   2.77323
H    -0.88255  -1.10310   2.13362
H    -0.84106   0.15229  -0.67677
H    -3.08370  -1.23506   1.00116
H    -2.35951   1.05425  -1.98280
H    -2.48586  -0.49114  -2.84319
H    -3.89035   0.58707  -2.76274
H    -5.18678  -1.46018   0.02014
H    -5.14060  -1.59214  -1.76330
H    -5.60675  -0.06306  -1.01640
