23
Generated by autodE on: 2022-06-17. E = -351.521381 Ha
C     0.66950   2.70443   2.55689
C     0.90280   1.91628   1.48437
C     2.16522   2.05188   0.67190
C    -0.07961   0.90759   1.09236
C     0.03459   0.05888   0.03998
C    -0.97244  -0.92402  -0.30440
C    -0.93605  -1.80651  -1.33467
C    -2.06736  -2.76898  -1.56214
C     0.19232  -1.91585  -2.32061
H     1.38711   3.46685   2.87249
H    -0.24826   2.60338   3.14444
H     2.81384   2.84369   1.07246
H     1.93695   2.29021  -0.38029
H     2.73555   1.10812   0.66339
H    -0.97997   0.84870   1.71570
H     0.92922   0.11210  -0.58641
H    -1.85476  -0.94492   0.34678
H    -2.50214  -2.63135  -2.56855
H    -2.86871  -2.65232  -0.81783
H    -1.70658  -3.81273  -1.52659
H     0.61347  -2.93671  -2.30670
H     1.00985  -1.20664  -2.13834
H    -0.18084  -1.75396  -3.34737
