52
Generated by autodE on: 2022-06-24. E = -1192.566930 Ha
C    -3.18609   0.00920  -0.78741
C    -2.73978   0.62750   0.31499
C    -3.66411   1.34625   1.26006
C    -1.27805   0.68335   0.69678
C    -0.59602   2.05644   0.47870
C    -0.92660   2.60646  -0.90094
O    -0.29330   2.35031  -1.90565
O    -2.02327   3.35925  -0.88248
C    -2.54033   3.78610  -2.15348
O     0.78662   1.78670   0.58504
C     1.07695   0.44301   0.18793
C     1.88535   0.47263  -1.11631
O     1.81800  -0.38128  -1.97728
O     2.71040   1.51266  -1.17127
C     3.51279   1.63600  -2.35577
C     1.91325  -0.23089   1.27325
C     2.66283  -1.38213   0.98766
C     3.37068  -2.03360   1.99980
C     3.33516  -1.54618   3.31032
C     2.58895  -0.40050   3.59889
C     1.88230   0.25510   2.58566
C    -0.31370  -0.25252  -0.05072
C    -0.41059  -1.67797   0.39471
C    -0.54806  -2.76755  -0.38189
C    -0.61110  -2.75080  -1.88471
C    -0.63496  -4.13887   0.23324
H    -2.52467  -0.51955  -1.47589
H    -4.25259   0.01110  -1.03124
H    -4.71181   1.27948   0.93342
H    -3.58449   0.92422   2.27653
H    -3.39395   2.41235   1.33905
H    -1.19544   0.48356   1.77849
H    -0.87124   2.79516   1.24261
H    -3.43094   4.38457  -1.93164
H    -2.81068   2.90991  -2.76069
H    -1.79526   4.39172  -2.68794
H     4.15680   0.75352  -2.47856
H     2.86755   1.74672  -3.23914
H     4.12201   2.53602  -2.21509
H     2.68790  -1.77964  -0.02780
H     3.95079  -2.92846   1.76238
H     3.88802  -2.05695   4.10220
H     2.55492  -0.01095   4.61920
H     1.30327   1.15017   2.81206
H    -0.51761  -0.17998  -1.12319
H    -0.36863  -1.82560   1.47927
H    -1.53342  -3.24693  -2.23300
H    -0.57470  -1.74359  -2.31601
H     0.23023  -3.32847  -2.30600
H    -0.57666  -4.10422   1.33115
H     0.18082  -4.78423  -0.13804
H    -1.57775  -4.63860  -0.05142
