23
Generated by autodE on: 2022-06-24. E = -351.521384 Ha
C     3.65247   0.97869  -0.00555
C     2.58081   0.15629   0.02659
C     2.74360  -1.33985   0.11213
C     1.23085   0.71429  -0.02197
C     0.07819  -0.00110   0.00093
C    -1.23762   0.60281  -0.04945
C    -2.43227  -0.04070  -0.03100
C    -3.72159   0.72861  -0.09036
C    -2.59059  -1.53258   0.04816
H     3.53057   2.06449  -0.06787
H     4.67344   0.58845   0.02942
H     3.80492  -1.62386   0.14302
H     2.27613  -1.84067  -0.75196
H     2.25082  -1.74228   1.01279
H     1.16649   1.80744  -0.08228
H     0.13424  -1.09140   0.06068
H    -1.25419   1.69781  -0.10893
H    -4.34651   0.51398   0.79521
H    -4.32029   0.42200  -0.96696
H    -3.55619   1.81467  -0.14470
H    -1.63779  -2.07583   0.08999
H    -3.18224  -1.80705   0.93939
H    -3.16012  -1.90308  -0.82247
