44
Generated by autodE on: 2022-06-20. E = -1063.344475 Ha
C     2.65051   2.77537   1.67363
N     2.18654   1.48768   1.19390
C     1.45459   1.37888   0.08374
O     1.19923   2.34058  -0.65039
C     0.89019  -0.03225  -0.27754
C     1.83084  -1.13523   0.23425
O     2.01005  -1.28837   1.45818
N     2.41966  -1.85608  -0.71460
C     3.33689  -2.94657  -0.46330
N     0.72147  -0.07185  -1.73823
N    -0.67240  -0.37311  -2.00798
C    -1.02682   0.12836  -3.31911
C    -1.39434   0.28123  -0.90219
N    -2.80186  -0.02750  -0.86553
C    -3.71124   1.07607  -1.13915
C    -3.23448  -1.02784  -0.00849
C    -2.41192  -1.85086   0.67077
C    -0.92316  -1.70017   0.56461
C    -0.57233  -0.21409   0.30626
C    -0.86055   0.62773   1.55634
N    -0.28261   0.19755   2.69144
O    -1.59373   1.61975   1.51302
H     3.24523   3.28953   0.90374
H     1.80363   3.42706   1.94315
H     3.27476   2.61789   2.56132
H     2.32689   0.64924   1.75488
H     2.14172  -1.60109  -1.66402
H     4.28487  -2.78353  -0.99768
H     2.90953  -3.90476  -0.79785
H     3.53809  -3.00414   0.61318
H     0.88512   0.89488  -2.05075
H    -2.09099  -0.06789  -3.50364
H    -0.43837  -0.39067  -4.08982
H    -0.84817   1.22103  -3.41679
H    -1.29140   1.37737  -0.97838
H    -3.73294   1.81511  -0.31703
H    -3.41326   1.59197  -2.06258
H    -4.72926   0.68623  -1.28250
H    -4.32137  -1.11694   0.06803
H    -2.83554  -2.63986   1.29409
H    -0.52287  -2.29604  -0.27155
H    -0.42643  -2.06736   1.46966
H    -0.36964   0.77214   3.52444
H     0.46624  -0.49238   2.64229
