20
Generated by autodE on: 2022-06-20. E = -457.715327 Ha
C     3.09979  -0.63562   0.28330
N     1.83066   0.02240   0.01913
C     1.81348   1.22982  -0.69063
C     0.67472   1.84911  -1.03965
C    -0.69395   1.30954  -0.70428
C    -0.57614  -0.01910   0.02457
C    -1.77007  -0.77417   0.43724
N    -2.96627  -0.20719   0.13967
O    -1.71989  -1.87377   1.02522
C     0.63783  -0.55977   0.32694
H     2.93386  -1.48962   0.95195
H     3.56739  -1.00205  -0.64642
H     3.80024   0.05916   0.77176
H     2.79789   1.63194  -0.93701
H     0.74286   2.79103  -1.58874
H    -1.29675   1.20094  -1.62888
H    -1.25550   2.04787  -0.09516
H    -3.04768   0.68550  -0.32995
H    -3.81420  -0.69494   0.40686
H     0.69260  -1.51529   0.85096
