24
Generated by autodE on: 2022-06-20. E = -605.594588 Ha
C     3.06601  -2.35289  -0.15583
N     2.39174  -1.07485  -0.14301
N     1.13058  -1.17345  -0.07249
C     0.16967  -0.22192  -0.01408
C     0.52069   1.20783  -0.12277
O     1.48482   1.61115  -0.78679
N    -0.28906   2.07936   0.53911
C    -0.03169   3.50622   0.51130
C    -1.16879  -0.83348   0.06905
O    -1.28074  -2.07349   0.19156
N    -2.26095  -0.04353  -0.01803
C    -3.59815  -0.60205  -0.01851
H     3.66546  -2.44572  -1.07669
H     3.77326  -2.40389   0.68860
H     2.37475  -3.21286  -0.09428
H     0.68223  -2.11627  -0.01602
H    -0.90443   1.71958   1.26110
H     0.07030   3.85741  -0.52557
H     0.89406   3.77100   1.05060
H    -0.87489   4.02857   0.98076
H    -2.14281   0.94119  -0.22778
H    -4.32320   0.22050   0.01735
H    -3.79302  -1.20506  -0.92158
H    -3.75314  -1.24854   0.85810
