38
Generated by autodE on: 2022-06-18. E = -1046.532089 Ha
C     4.71691  -1.40829   0.51172
O     3.44660  -0.76249   0.71195
C     2.74942  -0.46427  -0.37560
O     3.10108  -0.68301  -1.51227
C     1.44450   0.21403  -0.00296
N     1.58055   1.55751   0.49706
C     0.13088   1.86262   0.44689
C    -0.26448   3.28608   0.73352
C    -0.22575   1.36315  -0.95820
O    -1.06782   1.73356  -1.73548
O     0.62441   0.33059  -1.21310
C    -0.38965   0.76809   1.43323
C    -1.89708   0.50176   1.38664
C    -2.27557  -0.50045   0.32630
C    -3.56612  -0.49622  -0.37591
N    -4.47278   0.43554   0.01282
O    -3.84270  -1.29912  -1.29041
C    -1.40408  -1.50817   0.05072
N    -0.16340  -1.62788   0.60541
C     0.68247  -2.73498   0.18005
C     0.52812  -0.44455   1.08445
H     5.13590  -1.56163   1.51210
H     5.37781  -0.76790  -0.08881
H     4.57144  -2.37192   0.00347
H     2.09754   2.13348  -0.17484
H     0.24014   3.97522   0.03974
H    -1.34912   3.40986   0.60389
H     0.00160   3.55815   1.76494
H    -0.11708   1.13104   2.43157
H    -2.41082   1.46343   1.24225
H    -2.21217   0.13346   2.37899
H    -4.31338   1.06911   0.78514
H    -5.37516   0.45260  -0.44927
H    -1.69498  -2.30735  -0.63428
H     1.49710  -2.87717   0.90336
H     1.12285  -2.56477  -0.81787
H     0.09152  -3.65952   0.14032
H     1.16464  -0.71799   1.93425
