18
Generated by autodE on: 2022-06-18. E = -588.777264 Ha
C    -3.52645  -0.40107   1.41604
O    -2.10839  -0.32980   1.20793
C    -1.70078  -0.01007  -0.02818
O    -2.43635   0.22248  -0.97110
C    -0.25221   0.02464  -0.10468
N     0.63435  -0.21013   0.85972
C     1.90846  -0.08067   0.40145
C     3.13562  -0.27441   1.21119
C     1.80627   0.26581  -0.97328
O     2.61020   0.50140  -1.86429
O     0.40445   0.31646  -1.23062
H    -3.99421   0.57285   1.21127
H    -3.66240  -0.67351   2.46873
H    -3.97210  -1.16625   0.76400
H     0.37032  -0.45289   1.81645
H     3.15836   0.39672   2.08560
H     3.22493  -1.31015   1.57972
H     4.01173  -0.05609   0.58541
