38
Generated by autodE on: 2022-06-18. E = -1046.476445 Ha. Imaginary frequency = -434.4 cm-1
C     4.92267  -1.05378   0.45205
O     3.70935  -0.28929   0.52667
C     2.82438  -0.47083  -0.46097
O     2.97440  -1.24188  -1.38959
C     1.62540   0.34121  -0.22376
N     1.67865   1.59015   0.35029
C     0.40057   2.08931   0.26683
C    -0.01144   3.41311   0.79923
C    -0.17119   1.46418  -0.91683
O    -1.17525   1.69477  -1.56012
O     0.67540   0.40092  -1.22121
C    -0.48497   0.53331   1.54026
C    -1.97979   0.53234   1.29404
C    -2.37754  -0.55779   0.32367
C    -3.68785  -0.57457  -0.34058
N    -4.55066   0.41601   0.00061
O    -4.02064  -1.44023  -1.17610
C    -1.52444  -1.58620   0.06541
N    -0.27689  -1.70777   0.60350
C     0.56769  -2.81921   0.18777
C     0.30891  -0.60485   1.25604
H     5.50788  -0.77619   1.33589
H     5.47622  -0.80630  -0.46501
H     4.69705  -2.12972   0.46609
H     2.26655   1.74981   1.16638
H     0.27831   4.22385   0.11039
H    -1.10449   3.44399   0.91297
H     0.45239   3.60090   1.77807
H    -0.15062   1.13605   2.38609
H    -2.29946   1.52048   0.91971
H    -2.50725   0.40807   2.26162
H    -4.32850   1.12416   0.68802
H    -5.46274   0.43824  -0.44176
H    -1.83070  -2.39312  -0.60238
H     1.40701  -2.92186   0.88836
H     0.97167  -2.66662  -0.82420
H    -0.01222  -3.75239   0.20196
H     1.14495  -0.86079   1.90849
