25
Generated by autodE on: 2022-07-27. E = -685.384281 Ha
C    -0.02406   4.04302   0.86453
N    -0.39033   2.64830   0.73032
C     0.44155   1.76215   0.14667
O     1.53652   2.09211  -0.33216
C    -0.01937   0.34759   0.10358
O    -1.13003   0.14561   0.75346
C    -1.90992  -0.91080   0.92234
C    -3.08681  -0.69383   1.64238
N    -4.07922  -0.54525   2.24919
C     0.71989  -0.70644  -0.58006
C     0.84550  -1.99664  -0.02017
C     1.58330  -2.98210  -0.67402
C     2.19553  -2.70724  -1.90104
C     2.07555  -1.43309  -2.46719
C     1.35183  -0.43779  -1.81472
H     0.89325   4.16258   1.46368
H    -0.84272   4.57749   1.36101
H     0.15547   4.50428  -0.11964
H    -1.26788   2.32301   1.12046
H    -1.66086  -1.86906   0.47165
H     0.39680  -2.22432   0.94735
H     1.68198  -3.97066  -0.22033
H     2.76538  -3.48446  -2.41522
H     2.54909  -1.21368  -3.42672
H     1.26202   0.55238  -2.25876
