25
Generated by autodE on: 2022-06-05. E = -685.383119 Ha
C    -3.34638  -2.01978  -0.76755
N    -2.00297  -1.54970  -0.49286
C    -1.74478  -0.23516  -0.33470
O    -2.64190   0.62202  -0.39717
C    -0.34643   0.15383  -0.03545
O    -0.12588   1.32152   0.50687
C    -0.88578   2.32987   0.89322
C    -0.21048   3.39684   1.49582
N     0.31977   4.31078   2.00358
C     0.86176  -0.63854  -0.25199
C     1.99209  -0.42607   0.56976
C     3.16316  -1.15063   0.36648
C     3.23883  -2.10124  -0.65894
C     2.13195  -2.31241  -1.48627
C     0.95524  -1.58908  -1.29223
H    -3.31372  -3.10310  -0.93397
H    -4.02729  -1.80815   0.07325
H    -3.75680  -1.53217  -1.66504
H    -1.26188  -2.22905  -0.36121
H    -1.96064   2.29967   0.74074
H     1.93657   0.30553   1.37724
H     4.02306  -0.97838   1.01783
H     4.15787  -2.67072  -0.81388
H     2.18647  -3.03814  -2.30081
H     0.11776  -1.74186  -1.97281
