19
Generated by autodE on: 2022-06-05. E = -981.905222 Ha
F     0.95703   1.68091   1.60825
C     0.77069   1.67976   0.27334
F     1.82836   2.31301  -0.26775
F    -0.31254   2.42763   0.01919
C     0.65821   0.28919  -0.25907
C    -0.36845  -0.56287  -0.31213
C    -1.79271  -0.46618   0.11106
F    -2.13275  -1.57048   0.80788
F    -2.05241   0.59329   0.88925
F    -2.62027  -0.40085  -0.94795
C     0.24559  -1.89577  -0.82529
C     1.12587  -2.43484   0.32347
C     2.15614  -1.58764   0.38764
C     1.88379  -0.55006  -0.72348
O     1.24380  -1.37133  -1.70888
H    -0.44082  -2.58886  -1.32167
H     0.87714  -3.29041   0.94944
H     2.99524  -1.55178   1.08085
H     2.73214   0.01165  -1.12494
