44
Generated by autodE on: 2022-06-05. E = -1667.290866 Ha. Imaginary frequency = -159.5 cm-1
C     1.69070   4.17360   2.00296
N     1.52370   2.73518   1.95266
C     1.75405   2.04364   0.82093
O     2.23282   2.55823  -0.19455
C     1.39955   0.57763   0.88416
C     2.24142  -0.46563   0.31844
C     2.25632  -1.77903   0.84580
C     3.10479  -2.74918   0.32019
C     3.95515  -2.44514  -0.74708
C     3.96946  -1.14580  -1.26466
C     3.13366  -0.16598  -0.74046
O     0.44017   0.37898   1.75152
C    -0.39561  -0.63119   1.97840
C    -1.31602  -0.41863   3.02428
N    -2.10310  -0.27136   3.87512
C    -1.69215  -0.30034  -0.13463
C    -2.06967  -1.74979  -0.12001
F    -2.90700  -2.02237  -1.14390
F    -1.02950  -2.59191  -0.23271
F    -2.73033  -2.08447   1.00666
C    -2.77772   0.76780   0.25653
C    -2.09934   1.87740   1.06798
C    -1.32271   2.51806   0.18927
C    -1.53690   1.78544  -1.13300
O    -2.92792   1.41729  -1.01943
C    -0.89571   0.36631  -1.01823
C    -0.06464  -0.12959  -2.14773
F    -0.83015  -0.28107  -3.25857
F     0.89595   0.75595  -2.48268
F     0.52720  -1.31110  -1.92896
H     1.67961   4.49759   3.05081
H     0.88405   4.69817   1.46173
H     2.64886   4.46147   1.54843
H     1.03103   2.27566   2.71141
H     1.64268  -2.04926   1.70139
H     3.10089  -3.75220   0.75189
H     4.60745  -3.21385  -1.16723
H     4.63814  -0.89220  -2.09012
H     3.14579   0.83893  -1.15069
H    -0.13335  -1.64466   1.69762
H    -3.71968   0.35851   0.63342
H    -2.21609   2.03613   2.13758
H    -0.63926   3.35079   0.33551
H    -1.32024   2.32433  -2.06034
