51
Generated by autodE on: 2022-06-04. E = -1395.061613 Ha
C     3.30253 -13.46689   5.27944
O     3.67014 -12.39397   6.16079
C     4.56168 -11.52330   5.69913
O     5.11925 -11.61784   4.62477
C     4.88843 -10.43679   6.72743
O     6.09260 -10.83784   7.40121
C     7.17664 -10.05009   6.94407
C     8.06692 -10.84680   6.06447
N     8.77158 -11.46422   5.38101
C     6.54296  -8.88339   6.20153
C     5.22792  -9.11078   6.09139
C     4.20589  -8.15305   5.56225
C     3.09199  -8.81105   4.75844
C     2.66078  -8.08824   3.51945
O     2.58035  -9.85786   5.12356
C     3.57872  -7.33509   6.72166
C     4.62512  -6.65160   7.60844
C     5.70336  -5.83538   6.86462
C     7.10056  -6.46233   6.75468
C     7.32402  -7.65356   5.77151
C     8.83650  -7.97682   5.83881
O     9.45271  -8.06904   6.87721
O     9.37183  -8.15848   4.63834
C    10.76627  -8.51197   4.58376
C     7.02050  -7.29310   4.30375
O     6.59011  -8.06538   3.47527
O     7.32749  -6.02594   4.04279
C     7.16686  -5.58744   2.68425
H     4.18384 -14.06878   5.01587
H     2.84647 -13.06108   4.36483
H     2.57544 -14.07527   5.82914
H     4.07983 -10.37468   7.46835
H     7.78026  -9.72498   7.80693
H     4.69315  -7.43494   4.89757
H     2.47720  -7.02464   3.73986
H     1.76917  -8.55411   3.08051
H     3.49842  -8.12208   2.80113
H     2.91616  -6.57845   6.27061
H     2.94571  -7.99642   7.33401
H     5.11315  -7.40151   8.25154
H     4.07707  -5.98349   8.29128
H     5.34052  -5.53030   5.86906
H     5.85877  -4.89347   7.41302
H     7.41429  -6.82038   7.74599
H     7.81230  -5.67589   6.46595
H    10.92550  -9.47522   5.08773
H    11.01107  -8.59160   3.51907
H    11.37378  -7.73201   5.06281
H     7.80548  -6.18268   2.01625
H     7.47342  -4.53563   2.66984
H     6.11669  -5.68426   2.37458
