37
Generated by autodE on: 2022-06-04. E = -920.827540 Ha
C    -1.02585  -2.69810  -3.44627
O    -1.13046  -1.54704  -2.58962
C    -0.16437  -1.36945  -1.69279
O     0.78726  -2.10381  -1.55364
C    -0.44743  -0.14034  -0.81700
C    -0.95343   0.98776  -1.73638
O    -0.21767   1.59862  -2.48173
O    -2.25691   1.20357  -1.63187
C    -2.81698   2.21979  -2.48147
C     0.75125   0.31186  -0.11546
C     1.41208   0.68500   0.82872
C     1.73465   1.01567   2.21202
C     2.54977  -0.09134   2.90761
C     3.57295  -0.81166   2.07866
O     2.37328  -0.33527   4.08689
C     0.39546   1.31903   2.92616
C    -0.72855   0.28314   2.70785
C    -1.64529   0.42498   1.45878
C    -1.46031  -0.57276   0.29575
H    -1.03364  -3.61841  -2.84563
H    -0.09999  -2.64805  -4.03626
H    -1.90128  -2.66291  -4.10405
H    -3.88440   2.25929  -2.23773
H    -2.34028   3.18906  -2.27898
H    -2.67402   1.95041  -3.53751
H     2.39236   1.90348   2.27011
H     4.22494  -1.41909   2.71957
H     4.16491  -0.09638   1.48626
H     3.05060  -1.46335   1.35860
H     0.61724   1.39025   4.00100
H     0.04880   2.31303   2.60289
H    -1.38143   0.35629   3.59146
H    -0.30407  -0.73487   2.74429
H    -1.60489   1.45801   1.07581
H    -2.68168   0.28407   1.80230
H    -1.10471  -1.53580   0.69388
H    -2.42168  -0.76378  -0.19880
