14
Generated by autodE on: 2022-06-04. E = -474.077806 Ha
C    -3.40723   0.04363   0.17990
O    -2.01656   0.18583  -0.13569
C    -1.15327  -0.42652   0.68996
O    -1.48870  -1.08195   1.66712
C     0.23632  -0.24256   0.32210
O     0.50854   0.47263  -0.72827
C     1.66167   0.79243  -1.26272
C     2.86809   0.35359  -0.70027
N     3.86808  -0.01846  -0.22011
H    -3.95055   0.59738  -0.59466
H    -3.62530   0.46776   1.17129
H    -3.70251  -1.01589   0.16500
H     1.04186  -0.68571   0.91145
H     1.60262   1.41188  -2.15537
