14
Generated by autodE on: 2022-07-27. E = -474.070031 Ha
C    -2.90919  -1.27174  -0.61053
O    -2.27775  -0.37273   0.30867
C    -0.96488  -0.15021   0.11840
O    -0.30999  -0.66627  -0.77661
C    -0.45584   0.77397   1.10390
O     0.78487   1.16336   1.15980
C     1.93182   0.99366   0.57104
C     2.25142   0.15951  -0.51703
N     2.73177  -0.45458  -1.38879
H    -2.83378  -0.89045  -1.63980
H    -2.44596  -2.26830  -0.55859
H    -3.96048  -1.32824  -0.30532
H    -1.08711   1.22344   1.86880
H     2.73096   1.58676   1.01843
