53
Generated by autodE on: 2022-06-12. E = -3966.026685 Ha
C    -1.98497  -4.65624   4.81679
N    -1.50074  -3.38444   5.32018
C    -2.33165  -2.36449   5.54488
O    -3.54377  -2.40967   5.34311
C    -1.67479  -1.07766   6.08924
C    -2.03492  -0.83403   7.58755
O    -1.70869   0.16668   8.17896
O    -2.62780  -1.88499   8.12285
C    -3.02538  -1.77037   9.50216
N    -0.20747  -1.19142   6.15082
N     0.30910  -0.19568   5.59919
C    -0.67611   0.68659   5.04794
C    -1.91396   0.16798   5.26394
C    -3.27288   0.60642   4.75543
C    -3.39689   0.07281   3.30895
O    -2.79163  -0.89139   2.89307
O    -4.24570   0.78306   2.57748
C    -4.44338   0.35676   1.22079
C    -4.40609   0.02720   5.62011
O    -4.38039   0.03225   6.83280
O    -5.46434  -0.32103   4.90150
C    -6.59526  -0.83238   5.62499
C    -3.54703   2.14837   4.81218
C    -2.91210   2.91323   5.98372
C    -1.74060   3.80528   5.55526
C    -0.35980   3.17374   5.38178
C    -0.11756   1.96316   4.46038
C     1.38529   1.84198   4.19675
Br   -0.91307   2.27730   2.61731
H    -2.55386  -4.51162   3.88636
H    -2.64298  -5.15175   5.54833
H    -1.12513  -5.30531   4.61388
H    -0.52096  -3.26990   5.56198
H    -2.14802  -1.58279  10.13619
H    -3.48977  -2.72873   9.75842
H    -3.74896  -0.95027   9.60926
H    -4.84377  -0.66668   1.19746
H    -5.16360   1.05945   0.78709
H    -3.49357   0.39278   0.66829
H    -7.35283  -1.06730   4.86916
H    -6.97501  -0.07689   6.32682
H    -6.30602  -1.73951   6.17417
H    -3.21282   2.58421   3.86672
H    -4.63838   2.27370   4.81888
H    -3.68474   3.56703   6.41490
H    -2.60940   2.23387   6.79536
H    -2.01851   4.32950   4.62553
H    -1.60688   4.59388   6.31356
H     0.00705   2.83528   6.36723
H     0.32971   3.96710   5.05423
H     1.91907   1.75344   5.15343
H     1.73966   2.74442   3.68170
H     1.62543   0.96149   3.58699
