51
Generated by autodE on: 2022-06-23. E = -1299.865408 Ha
C     4.72925  -0.52519   0.28140
O     3.79752   0.25649   1.03798
C     2.55175   0.40109   0.51027
C     2.03541   1.63318   0.22331
O     2.65669   2.80930   0.27743
C     4.08568   2.92465   0.27992
C     0.58444   1.80231  -0.10394
O     0.11453   2.92654  -0.13126
C    -0.23813   0.60782  -0.59025
C    -0.51054   0.95504  -2.07416
C    -1.58920   0.45682   0.21227
C    -1.38234   0.80908   1.71814
C    -2.54847   0.71349   2.66139
O    -0.26645   1.06709   2.13358
C    -2.69127   1.39832  -0.32440
C    -3.57487   0.97998  -1.46576
O    -2.81886   2.48234   0.21569
N    -1.89060  -0.95407   0.01767
C    -3.12991  -1.53171   0.52186
C    -0.66812  -1.73898   0.18808
C    -0.78468  -3.12837  -0.45461
C    -0.46589  -2.00091   1.64977
N    -0.49766  -2.23460   2.78660
C     0.45556  -0.80115  -0.42461
C     1.00264  -1.36054  -1.75969
C     1.71087  -0.80048   0.44564
O     2.08501  -1.83923   0.97957
H     5.65766  -0.55302   0.86620
H     4.36327  -1.55040   0.12749
H     4.92429  -0.05039  -0.69412
H     4.29021   3.98293   0.07350
H     4.50530   2.64642   1.25438
H     4.52642   2.30200  -0.51233
H    -1.01503   1.92576  -2.14820
H    -1.12369   0.19048  -2.56145
H     0.43580   1.04254  -2.62259
H    -2.45604   1.51035   3.41306
H    -2.46903  -0.25099   3.18955
H    -3.52542   0.76809   2.17103
H    -3.28818   0.02523  -1.91596
H    -4.60538   0.90301  -1.08254
H    -3.56898   1.77793  -2.22291
H    -3.40754  -2.40402  -0.08584
H    -3.06899  -1.85318   1.57695
H    -3.94531  -0.80458   0.44177
H    -1.05595  -3.03879  -1.51313
H     0.17111  -3.65902  -0.36325
H    -1.55241  -3.72279   0.05788
H     1.50839  -2.31763  -1.58560
H     1.73991  -0.66401  -2.17941
H     0.20726  -1.51427  -2.49605
