51
Generated by autodE on: 2022-06-23. E = -1299.816354 Ha. Imaginary frequency = -281.1 cm-1
C     4.33446  -0.35796   1.12291
O     3.95512   0.37009  -0.05065
C     2.64253   0.41803  -0.41131
C     1.98939   1.60981  -0.52688
O     2.44125   2.81158  -0.15538
C     3.32088   2.93148   0.96856
C     0.68484   1.68632  -1.25342
O     0.32760   2.76865  -1.71200
C    -0.08643   0.44067  -1.47365
C    -1.09667   0.52919  -2.58752
C    -1.52912   0.53149   0.39138
C    -0.83661   1.30410   1.50849
C    -1.32430   0.97993   2.89929
O    -0.07529   2.22918   1.30309
C    -2.65247   1.28352  -0.23733
C    -2.63281   2.78609  -0.12198
O    -3.53421   0.72207  -0.87959
N    -1.57550  -0.84340   0.52297
C    -2.77553  -1.64385   0.21841
C    -0.37621  -1.51543   0.66230
C    -0.33784  -3.02034   0.67732
C     0.59182  -0.96577   1.57704
N     1.39602  -0.62621   2.34457
C     0.55018  -0.82297  -1.23722
C     0.16398  -1.98442  -2.12519
C     1.99182  -0.83607  -0.84070
O     2.64758  -1.87934  -0.87531
H     3.96978   0.15167   2.02728
H     3.95200  -1.38650   1.10168
H     5.43245  -0.37511   1.12765
H     2.97821   2.28325   1.78958
H     3.26227   3.98196   1.28189
H     4.35448   2.67929   0.69981
H    -1.53070   1.53209  -2.65584
H    -1.90851  -0.19734  -2.47157
H    -0.59477   0.31452  -3.54703
H    -0.59586   1.33488   3.63982
H    -1.54455  -0.08443   3.04576
H    -2.27164   1.53127   3.03519
H    -3.48200   3.18533  -0.69021
H    -2.71345   3.10318   0.92959
H    -1.69219   3.19503  -0.51789
H    -2.74039  -2.55458   0.82513
H    -3.66236  -1.07378   0.49814
H    -2.83836  -1.91080  -0.84429
H    -0.90468  -3.45528  -0.15229
H     0.70921  -3.34193   0.59893
H    -0.74313  -3.40697   1.62732
H     0.68077  -2.90218  -1.82754
H     0.45726  -1.76249  -3.16558
H    -0.91708  -2.16500  -2.12231
