27
Generated by autodE on: 2022-06-16. E = -574.453025 Ha
C     0.81494   2.35353   0.30166
C     0.68789   1.23931  -0.73682
C    -0.71985   0.61037  -0.82140
C    -1.92652   1.52237  -0.67321
C    -0.61810  -0.53545   0.24329
C    -1.08009  -0.10679   1.58949
N    -1.41087   0.22687   2.64900
C    -1.42724  -1.70560  -0.16538
N    -2.04034  -2.62515  -0.51477
O     0.73788  -0.90209   0.32232
C     1.58398  -0.00099  -0.48862
C     1.92361  -0.72785  -1.78762
C     2.83816   0.24660   0.33360
H     0.12686   3.17750   0.06357
H     1.83313   2.76764   0.30400
H     0.58878   2.01011   1.32234
H     0.93526   1.65662  -1.72426
H    -0.79685   0.09016  -1.78581
H    -2.85839   0.94225  -0.76013
H    -1.92156   2.27599  -1.47461
H    -1.94021   2.04848   0.29164
H     1.02755  -0.91055  -2.39856
H     2.63068  -0.12833  -2.38038
H     2.39296  -1.69759  -1.56435
H     2.59565   0.65871   1.32201
H     3.50139   0.95060  -0.19039
H     3.38455  -0.69802   0.47580
