15
Generated by autodE on: 2022-06-16. E = -417.068632 Ha
C    -2.78845  -1.07801   0.24515
C    -1.65967  -0.12695   0.19011
C    -1.84986   1.32489   0.37312
O    -0.51785  -0.65094  -0.03546
C     0.75223  -0.09970  -0.14915
C     1.10130   1.19623   0.24453
N     1.47287   2.26037   0.56762
C     1.71549  -1.01990  -0.58171
N     2.53400  -1.77264  -0.95142
H    -3.29292  -0.98000   1.22223
H    -2.45524  -2.11108   0.09000
H    -3.53405  -0.79449  -0.51791
H    -2.91790   1.56015   0.44493
H    -1.34209   1.66533   1.29115
H    -1.40027   1.87274  -0.47173
