38
Generated by autodE on: 2022-05-30. E = -1237.019740 Ha
C    -1.59545  -2.51234   2.33718
N    -1.59792  -1.99229   0.98555
C    -0.50450  -2.07458   0.20049
O     0.52100  -2.70294   0.49073
N    -0.59749  -1.44868  -1.03816
N    -1.74369  -0.67722  -1.32357
N    -1.24513   0.59709  -1.66128
C    -1.79521   1.75581  -1.19767
O    -1.31845   2.85261  -1.44970
O    -2.90535   1.55317  -0.48009
C    -3.52779   2.73188   0.04969
C     0.09771   0.49533  -2.21191
C     1.20923   1.39610  -1.58536
O     2.33973   0.53343  -1.76932
C     1.86554  -0.55790  -0.94845
C     1.49179   0.15564   0.34492
C     1.56549  -0.33761   1.72814
O     0.84394   0.04416   2.63234
O     2.54477  -1.23094   1.88682
C     2.62295  -1.88045   3.16245
C     1.06423   1.35648  -0.07367
F     0.57971   2.35343   0.63804
C     0.56627  -0.92186  -1.75435
H    -1.11270  -1.82034   3.04756
H    -2.63023  -2.68333   2.66263
H    -1.05639  -3.46844   2.36859
H    -2.31384  -1.33170   0.69631
H    -2.17191  -1.06805  -2.16854
H    -4.40670   2.38181   0.60339
H    -3.83579   3.40672  -0.76179
H    -2.83973   3.25935   0.72608
H     0.11143   0.60907  -3.30372
H     1.34799   2.37832  -2.04391
H     2.60806  -1.35481  -0.87248
H     2.76737  -1.14556   3.96688
H     3.48410  -2.55599   3.10539
H     1.70240  -2.45391   3.34699
H     0.84120  -1.55176  -2.60966
