19
Generated by autodE on: 2022-05-30. E = -602.158638 Ha
C     2.04660   0.18985  -2.66911
N     2.12249   0.40069  -1.23782
C     1.05417   0.77515  -0.52016
O    -0.06740   0.98096  -0.99409
N     1.38635   1.03335   0.83086
N     0.48333   0.89099   1.72605
N    -0.66920   0.32171   1.77043
C    -0.96876  -0.64853   0.81444
O    -0.19279  -1.49462   0.40737
O    -2.26813  -0.61496   0.53190
C    -2.74148  -1.60939  -0.38830
H     2.01730   1.14315  -3.22315
H     1.14092  -0.38019  -2.92015
H     2.92720  -0.37804  -2.99329
H     3.02023   0.34970  -0.76602
H     0.72822   1.35412   2.61366
H    -3.81253  -1.41500  -0.51599
H    -2.21919  -1.51364  -1.35106
H    -2.58380  -2.61853   0.01881
