38
Generated by autodE on: 2022-05-30. E = -1236.928238 Ha. Imaginary frequency = -397.1 cm-1
C     0.40934  -3.22525   1.49615
N    -0.91766  -3.32214   0.91710
C    -1.62307  -2.31661   0.38353
O    -2.77110  -2.43985  -0.06132
N    -0.93610  -1.05866   0.37907
N    -1.76512  -0.12999  -0.02736
N    -1.19523   0.95302  -0.49541
C    -2.02727   1.94354  -1.00402
O    -1.60900   2.80801  -1.75052
O    -3.28622   1.86104  -0.56160
C    -4.19476   2.87593  -1.01804
C     0.01621   0.17258  -1.94285
C     1.28572   1.04691  -1.84395
O     2.31501   0.05333  -2.02362
C     1.86615  -0.80294  -0.93359
C     1.87062   0.20320   0.22740
C     2.16289  -0.01714   1.63864
O     1.93934   0.78198   2.53354
O     2.75150  -1.20514   1.84827
C     3.05626  -1.54599   3.20523
C     1.48557   1.34674  -0.36474
F     1.25505   2.52951   0.16053
C     0.40528  -1.05144  -1.38780
H     1.18770  -3.10707   0.72832
H     0.61027  -4.14842   2.05374
H     0.46676  -2.37720   2.18730
H    -1.36634  -4.23234   0.87050
H    -2.66527  -0.46306  -0.42396
H    -5.15633   2.65261  -0.54203
H    -3.84012   3.87049  -0.71233
H    -4.29210   2.83807  -2.11237
H    -0.70652   0.30209  -2.74686
H     1.36679   1.88936  -2.53713
H     2.50249  -1.68452  -0.82022
H     3.79762  -0.84809   3.62134
H     3.46694  -2.56188   3.17702
H     2.14769  -1.52142   3.82412
H     0.04675  -2.02991  -1.70005
