56
Generated by autodE on: 2022-06-29. E = -1396.106480 Ha
C     3.30185  -2.72592  -1.50572
C     1.91474  -2.31206  -1.08539
O     0.92507  -2.77257  -1.65848
C     1.71033  -1.40098   0.04500
C     2.45541  -0.40661   0.59821
C     3.73991   0.19233   0.23265
C     4.62149   0.63095   1.24097
C     5.84822   1.20486   0.90727
C     6.20362   1.37298  -0.43545
C     5.32412   0.96648  -1.44448
C     4.10161   0.38158  -1.11512
C     1.53377   0.20661   1.65230
O     0.73189  -0.90350   2.06392
C     0.35405  -1.32282   0.74481
C    -0.33978  -0.05520   0.15317
C     0.48496   1.05221   0.87255
N    -0.49053   1.65340   1.80710
C    -0.65709   2.97061   1.84888
N    -0.75406   4.13201   1.93871
N    -1.65794   0.84905   1.92849
C    -1.80723   0.21943   0.59318
C    -2.69083  -1.01808   0.68211
C    -2.60267  -2.02378  -0.29391
C    -3.45413  -3.12932  -0.25296
C    -4.40882  -3.24764   0.76283
C    -4.50619  -2.24849   1.73404
C    -3.65663  -1.13822   1.69149
C    -2.48359   1.21725  -0.36648
C    -2.38264   1.05887  -1.75718
C    -3.04211   1.93181  -2.62576
C    -3.81684   2.97963  -2.11861
C    -3.93223   3.13797  -0.73539
C    -3.27532   2.26068   0.13256
H     3.54014  -2.26502  -2.47723
H     3.30115  -3.81659  -1.65367
H     4.07546  -2.44592  -0.78103
H     4.34964   0.50074   2.29036
H     6.52888   1.52650   1.69871
H     7.16120   1.83024  -0.69510
H     5.58813   1.11366  -2.49418
H     3.40605   0.09422  -1.90434
H     1.99846   0.71988   2.49988
H    -0.23651  -2.24047   0.77297
H    -0.22568  -0.03641  -0.93241
H     0.92669   1.81800   0.22629
H    -1.41995   0.11293   2.59629
H    -1.85648  -1.95401  -1.08707
H    -3.36751  -3.90475  -1.01777
H    -5.07322  -4.11430   0.79505
H    -5.24978  -2.32769   2.53069
H    -3.75409  -0.35778   2.44722
H    -1.79414   0.24153  -2.17671
H    -2.94827   1.79056  -3.70514
H    -4.32890   3.66538  -2.79771
H    -4.53773   3.94943  -0.32426
H    -3.37575   2.38656   1.21015
