28
Generated by autodE on: 2022-06-29. E = -691.408487 Ha
C    -2.95392   2.07419   0.38010
C    -1.52707   1.66241   0.65802
O    -0.68855   2.50226   0.98800
C    -1.23525   0.23407   0.51040
C    -0.09324  -0.44617   0.19650
C     1.29539  -0.07346  -0.04003
C     1.89843   1.05861   0.54971
C     3.23300   1.36727   0.28987
C     3.99385   0.56314  -0.56534
C     3.41188  -0.56406  -1.15534
C     2.08300  -0.88700  -0.88754
C    -0.58976  -1.90168  -0.06248
C    -1.38974  -1.87751  -1.38011
C    -2.50841  -1.21035  -1.08145
C    -2.35875  -0.83896   0.40949
O    -1.64616  -1.98206   0.90089
H    -3.02652   3.16939   0.36660
H    -3.61533   1.67708   1.16798
H    -3.30867   1.65984  -0.57718
H     1.30358   1.68720   1.20784
H     3.68454   2.24338   0.76135
H     5.03885   0.81000  -0.76705
H     3.99857  -1.19845  -1.82361
H     1.64755  -1.77022  -1.35790
H     0.15051  -2.69624   0.07059
H    -1.04013  -2.27436  -2.33238
H    -3.33836  -0.91294  -1.72145
H    -3.27419  -0.64816   0.97771
