35
Generated by autodE on: 2022-06-18. E = -1010.880160 Ha
C     0.10519  -1.28338   2.59606
O     1.02779  -0.88031   1.58330
C     0.46472  -0.36940   0.41975
C    -0.47297  -1.39218  -0.28392
O    -0.14991  -2.56606  -0.27811
C    -1.69927  -0.92274  -0.96699
C    -2.33635  -1.85794  -1.94692
C    -2.29858   0.24380  -0.59265
C    -3.63557   0.65769  -1.12088
C    -1.70048   1.07204   0.48091
O    -2.36921   1.75786   1.23038
C    -0.17076   1.05228   0.58143
O     0.32949   1.63642   1.71771
C     0.30524   3.06831   1.79564
O     0.28695   1.75668  -0.60890
N     1.38550   1.12702  -1.14110
C     1.54546  -0.02265  -0.59689
C     2.68430  -0.90641  -0.99032
C     3.65893  -0.36116  -1.99200
O     2.78286  -2.01462  -0.49336
H    -0.56073  -0.45543   2.88603
H     0.71026  -1.57624   3.46386
H    -0.49873  -2.14612   2.27357
H    -2.62506  -1.31942  -2.86252
H    -3.26067  -2.28930  -1.52580
H    -1.66176  -2.68250  -2.20685
H    -3.60696   0.72712  -2.22013
H    -3.94851   1.62346  -0.70605
H    -4.40121  -0.09619  -0.87211
H    -0.64909   3.48495   1.44838
H     0.44522   3.31536   2.85581
H     1.13176   3.49712   1.20906
H     3.13500  -0.08539  -2.92024
H     4.42618  -1.11719  -2.20026
H     4.12851   0.55507  -1.60106
