9
Generated by autodE on: 2022-06-18. E = -321.369909 Ha
C    -1.99776  -0.96634  -0.11887
C    -1.10781   0.22167   0.06465
O    -1.48806   1.35796   0.27218
C     0.33253  -0.05123  -0.01943
N     1.49074  -0.19381  -0.07003
O     2.68111  -0.35077  -0.12423
H    -1.79872  -1.42639  -1.10084
H    -1.76170  -1.72309   0.64744
H    -3.04949  -0.66084  -0.04411
