26
Generated by autodE on: 2022-06-18. E = -689.457177 Ha
C    -2.07106   2.50971  -0.51580
O    -1.35673   1.98262   0.60876
C    -0.51373   0.95222   0.31533
C    -0.93620  -0.34101   0.36538
O    -2.20487  -0.57992   0.72013
C    -2.89840  -1.79195   0.39042
C     0.05614  -1.44553   0.16487
O    -0.26118  -2.60640   0.39121
C     1.43190  -1.09891  -0.29170
C     2.36973  -2.23297  -0.57169
C     1.82051   0.19672  -0.39898
C     3.20675   0.57878  -0.81111
C     0.85311   1.29756  -0.11048
O     1.17247   2.47891  -0.23352
H    -2.70516   3.32266  -0.13758
H    -1.37621   2.91022  -1.27112
H    -2.70554   1.73415  -0.97494
H    -3.96508  -1.53608   0.44152
H    -2.67272  -2.58667   1.11271
H    -2.65107  -2.13020  -0.62537
H     1.87460  -3.20220  -0.44122
H     2.76099  -2.16857  -1.60010
H     3.24298  -2.19139   0.10048
H     3.32314   1.66830  -0.84687
H     3.94940   0.16443  -0.10920
H     3.44747   0.16249  -1.80333
