35
Generated by autodE on: 2022-06-18. E = -1010.817035 Ha. Imaginary frequency = -379.8 cm-1
C     0.69164  -1.39251   2.95856
O     1.18145  -0.89059   1.70722
C     0.21743  -0.43383   0.84986
C    -0.54810  -1.44960   0.06509
O    -0.29343  -2.64096   0.18187
C    -1.58213  -0.95132  -0.88529
C    -2.07766  -1.90182  -1.93026
C    -2.07607   0.30621  -0.75451
C    -3.15069   0.83461  -1.65318
C    -1.62727   1.19189   0.35940
O    -2.28730   2.16632   0.70000
C    -0.38011   0.81328   1.08715
O     0.13929   1.54128   2.06091
C    -0.09571   2.95160   2.20811
O     0.42975   2.07227  -0.96877
N     1.18857   1.15471  -1.22567
C     1.49545   0.02678  -0.87821
C     2.48495  -1.00048  -1.26434
C     3.38990  -0.60051  -2.39762
O     2.53600  -2.07270  -0.69598
H     0.16154  -0.60739   3.51984
H     1.57186  -1.71632   3.52929
H     0.02230  -2.25206   2.80091
H    -1.88346  -1.50109  -2.93892
H    -3.16813  -2.04196  -1.85068
H    -1.58961  -2.87947  -1.83679
H    -2.83643   0.76998  -2.70720
H    -3.39309   1.87687  -1.41435
H    -4.07067   0.23322  -1.56016
H    -1.07662   3.14153   2.65911
H     0.70231   3.30380   2.87366
H    -0.02285   3.45178   1.23306
H     2.78738  -0.36762  -3.28977
H     4.08468  -1.42321  -2.60951
H     3.94491   0.31151  -2.12695
