22
Generated by autodE on: 2022-10-07. E = -679.396235 Ha
C     3.59040  -0.06164   0.32164
N     2.32073   0.34497  -0.25325
C     1.20811   0.39811   0.48595
O     1.15983   0.13139   1.69058
C    -0.05017   0.82016  -0.21790
N    -1.08970   0.01345  -0.28741
C    -1.26778  -1.29879   0.00953
C    -0.19735  -2.14598   0.37614
N     0.66869  -2.87601   0.65426
C    -2.56576  -1.84743  -0.11461
N    -3.63013  -2.31504  -0.21152
C    -0.33521   2.19815  -0.69455
C     0.75035   3.22352  -0.59578
O    -1.45292   2.44122  -1.14268
H     4.36430  -0.00362  -0.45239
H     3.86885   0.59421   1.16055
H     3.53216  -1.09533   0.69759
H     2.26286   0.57244  -1.24195
H    -1.91901   0.51023  -0.66189
H     1.57557   2.95954  -1.27684
H     1.16543   3.24808   0.42438
H     0.35246   4.20912  -0.86696
