10
Generated by autodE on: 2022-10-07. E = -455.046568 Ha
O     1.98237  -1.20997  -0.19512
C     1.33630  -0.53545   0.64838
O     1.04220  -0.88180   1.82132
C     0.96836   0.88021   0.24325
C    -0.17951   1.30830  -0.30876
C    -1.37502   0.44946  -0.64959
O    -1.29574  -0.79735  -0.46314
O    -2.38393   1.05925  -1.10648
H     1.75825   1.61924   0.43757
H    -0.29825   2.37310  -0.54067
