32
Generated by autodE on: 2022-10-07. E = -1134.432920 Ha. Imaginary frequency = -405.3 cm-1
C     4.21866   0.32471   0.00463
N     2.80026   0.48128  -0.24535
C     1.93512   0.62933   0.76569
O     2.26768   0.62458   1.95849
C     0.48651   0.87520   0.39692
C     0.10240   2.18073  -0.26270
C     1.11809   2.95539  -1.04333
O    -1.04874   2.57984  -0.13270
N    -0.48481   0.48160   1.26667
C    -0.66787  -0.84250   1.58921
C    -1.88513  -1.19469   2.25444
N    -2.87169  -1.53140   2.77146
C     0.43913  -1.70175   1.88113
N     1.29906  -2.46377   2.06594
C    -0.93632  -1.47507  -0.52716
C    -2.36336  -1.03062  -0.80959
O    -2.77681   0.03786  -0.28413
O    -3.02656  -1.80791  -1.53759
C     0.19530  -0.83769  -1.06272
C     0.22900   0.04813  -2.28716
O    -0.83362   0.51468  -2.75614
O     1.39807   0.27196  -2.74513
H     4.61568   1.17110   0.58727
H     4.43022  -0.59988   0.56723
H     4.74471   0.27958  -0.95732
H     2.43506   0.39842  -1.20888
H     1.45824   2.36767  -1.91017
H     2.00231   3.16954  -0.42403
H     0.66149   3.89297  -1.38432
H    -1.38422   0.92284   1.01324
H    -0.82754  -2.52816  -0.25283
H     1.13519  -1.37076  -0.90342
