59
Generated by autodE on: 2022-10-23. E = -4086.413871 Ha
C   -33.62327 -17.23232  -2.42862
N   -32.62508 -16.88346  -3.42244
C   -31.36084 -16.63436  -3.08827
O   -30.87520 -16.76939  -1.96276
C   -30.43240 -16.22353  -4.22156
O   -31.14094 -15.84131  -5.44658
C   -30.25518 -16.11332  -6.44428
O   -30.49051 -15.93780  -7.60525
C   -28.99938 -16.68616  -5.71347
C   -28.12545 -17.63455  -6.47661
C   -27.80005 -17.41018  -7.82016
C   -26.93307 -18.28274  -8.48251
C   -26.39359 -19.38551  -7.81446
C   -26.73131 -19.61808  -6.47707
C   -27.59311 -18.74631  -5.80980
O   -29.70470 -17.34573  -4.64264
C   -28.41040 -15.45635  -4.93652
C   -29.33221 -15.15596  -3.99712
C   -29.35763 -14.08867  -2.92240
C   -30.81358 -13.93004  -2.36395
C   -31.02833 -13.67816  -0.90351
O   -31.73998 -13.97484  -3.15232
C   -29.22163 -12.66710  -3.57538
C   -28.65473 -11.54338  -2.75386
O   -29.67367 -12.49029  -4.68787
C   -28.34476 -14.42564  -1.79119
C   -27.00032 -15.03695  -2.19345
C   -26.04270 -14.19045  -3.03391
C   -26.49832 -13.75793  -4.43840
C   -27.07768 -14.87579  -5.28894
Br  -27.47620 -13.89567  -7.17159
O   -26.23110 -15.91419  -5.51171
C   -24.91157 -15.68464  -5.99416
H   -34.50869 -17.63385  -2.93582
H   -33.22520 -17.99175  -1.74205
H   -33.91796 -16.34925  -1.83810
H   -32.91773 -16.66794  -4.37117
H   -28.20858 -16.54796  -8.34251
H   -26.67851 -18.09716  -9.52858
H   -25.71436 -20.06468  -8.33505
H   -26.31787 -20.48020  -5.94858
H   -27.84402 -18.91947  -4.76272
H   -30.31782 -12.94486  -0.49935
H   -32.06154 -13.34367  -0.74671
H   -30.87070 -14.62308  -0.36067
H   -27.62310 -11.75214  -2.43748
H   -28.68644 -10.62009  -3.34569
H   -29.24999 -11.41470  -1.83604
H   -28.17952 -13.52770  -1.18097
H   -28.83681 -15.15989  -1.14060
H   -26.47938 -15.27981  -1.25329
H   -27.17156 -16.00544  -2.68824
H   -25.78782 -13.26804  -2.48608
H   -25.10354 -14.75657  -3.13426
H   -27.21113 -12.93280  -4.40981
H   -25.62907 -13.35094  -4.97210
H   -24.94386 -15.05886  -6.89935
H   -24.27040 -15.21295  -5.23494
H   -24.51264 -16.67498  -6.24710
