25
Generated by autodE on: 2022-10-23. E = -780.584241 Ha
C     5.27062  -0.63824   0.43852
N     3.95659  -0.06719   0.21965
C     2.82288  -0.77452   0.34020
O     2.72202  -1.96251   0.64346
C     1.58677   0.01148   0.06966
O     1.51578   1.25776  -0.26867
C     0.07144   1.60786  -0.43116
O    -0.23596   2.73616  -0.74923
C    -0.55502   0.38996  -0.13356
C    -1.94549   0.00388  -0.09472
C    -2.94910   0.94737  -0.40502
C    -4.29305   0.57863  -0.36869
C    -4.66472  -0.72631  -0.02544
C    -3.67381  -1.66524   0.28312
C    -2.32610  -1.31004   0.25062
O     0.42218  -0.54353   0.16344
H     5.81291  -0.06853   1.20799
H     5.86237  -0.62290  -0.48992
H     5.15723  -1.67576   0.77263
H     3.89111   0.91277  -0.04435
H    -2.66609   1.96597  -0.67343
H    -5.05864   1.31941  -0.61137
H    -5.71923  -1.00960   0.00150
H    -3.95281  -2.68674   0.55257
H    -1.56025  -2.04881   0.49255
