59
Generated by autodE on: 2022-10-23. E = -4086.325642 Ha. Imaginary frequency = -156.6 cm-1
C   -33.64335 -16.62351  -2.17179
N   -32.79053 -16.69229  -3.34240
C   -31.46590 -16.87442  -3.25132
O   -30.84102 -17.18065  -2.23267
C   -30.72274 -16.69088  -4.52643
O   -31.22821 -16.21397  -5.64804
C   -30.28706 -16.46307  -6.70610
O   -30.49940 -16.07175  -7.83030
C   -29.25638 -17.20467  -6.04695
C   -28.15394 -17.95886  -6.59945
C   -27.74598 -17.72780  -7.92797
C   -26.65587 -18.42030  -8.45246
C   -25.96280 -19.35067  -7.67032
C   -26.37245 -19.58907  -6.35254
C   -27.45971 -18.90198  -5.81682
O   -29.66108 -17.42201  -4.76179
C   -28.45497 -14.90904  -5.04093
C   -29.26951 -14.65857  -4.15179
C   -29.44444 -13.92627  -2.87766
C   -30.90567 -13.96540  -2.34656
C   -31.14512 -13.97840  -0.86765
O   -31.81330 -13.95726  -3.15570
C   -29.28080 -12.39234  -3.20403
C   -28.68479 -11.49614  -2.16022
O   -29.67549 -11.96970  -4.27050
C   -28.39148 -14.47942  -1.87326
C   -27.04275 -14.96199  -2.43951
C   -26.11141 -14.02983  -3.24243
C   -26.45349 -13.59553  -4.69047
C   -27.09832 -14.70522  -5.53982
Br  -27.29910 -13.91955  -7.48487
O   -26.41467 -15.88067  -5.59767
C   -25.05814 -15.87379  -6.02658
H   -34.64113 -17.00926  -2.41955
H   -33.21183 -17.23263  -1.36868
H   -33.74058 -15.58404  -1.81849
H   -33.16017 -16.33956  -4.22164
H   -28.27204 -16.98903  -8.53132
H   -26.34116 -18.22756  -9.48071
H   -25.10691 -19.88799  -8.08482
H   -25.83805 -20.31609  -5.73662
H   -27.76982 -19.08297  -4.78646
H   -30.44350 -13.32766  -0.32875
H   -32.18262 -13.68739  -0.65934
H   -30.98327 -15.00629  -0.50435
H   -27.61132 -11.71773  -2.05426
H   -28.81335 -10.45145  -2.47019
H   -29.14867 -11.66437  -1.17744
H   -28.22802 -13.73234  -1.08584
H   -28.84309 -15.35230  -1.38196
H   -26.46176 -15.27542  -1.55658
H   -27.20831 -15.88524  -3.01303
H   -25.92959 -13.10563  -2.66965
H   -25.14131 -14.54978  -3.28225
H   -27.13753 -12.73870  -4.71040
H   -25.52794 -13.25787  -5.17882
H   -24.98718 -15.48282  -7.05356
H   -24.41599 -15.27957  -5.35918
H   -24.73208 -16.92083  -6.00917
