38
Generated by autodE on: 2022-06-17. E = -602.370345 Ha
C     3.48464  -0.69894  -1.70686
C     3.62766   0.33118  -0.62118
C     4.97796   0.98867  -0.55091
C     2.64291   0.67177   0.24443
C     1.29482   0.12745   0.29250
C     0.36012   0.52234   1.17872
C    -1.06997   0.03043   1.27821
C    -1.40544  -0.23187   2.75553
C    -2.06369   1.02661   0.62083
C    -2.35896   0.42518  -0.77708
C    -3.84445   0.50790  -1.12827
C    -1.52746   1.08575  -1.88300
N    -1.96615  -1.00153  -0.67542
C    -1.30598  -1.20197   0.40139
C    -0.79019  -2.54763   0.80108
H     4.24140  -1.49369  -1.58299
H     3.67843  -0.24380  -2.69435
H     2.49480  -1.17243  -1.73829
H     5.21947   1.49189  -1.50452
H     5.03696   1.73181   0.25802
H     5.77264   0.23743  -0.39289
H     2.86940   1.44002   0.99378
H     1.03415  -0.63731  -0.44486
H     0.62399   1.29640   1.91136
H    -2.42705  -0.62922   2.86172
H    -0.70342  -0.95025   3.20623
H    -1.34196   0.70615   3.32979
H    -2.98986   1.05800   1.21537
H    -1.66678   2.05025   0.56880
H    -4.04271   0.05285  -2.11180
H    -4.17374   1.55868  -1.16310
H    -4.45388  -0.01758  -0.37607
H    -0.45668   1.07863  -1.63397
H    -1.84067   2.13223  -2.02370
H    -1.66334   0.55485  -2.83858
H     0.26715  -2.49161   1.10246
H    -0.89952  -3.26940  -0.01967
H    -1.35042  -2.92177   1.67441
