23
Generated by autodE on: 2022-06-17. E = -351.521381 Ha
C     3.18154   0.28709   2.02378
C     2.34432   0.48042   0.98092
C     2.76201   1.29056  -0.21964
C     1.00404  -0.10209   1.00311
C     0.07256   0.01941   0.02410
C    -1.24422  -0.58023   0.09691
C    -2.22841  -0.50713  -0.83462
C    -2.11092   0.22989  -2.13856
C    -3.54899  -1.18886  -0.61271
H     4.18952   0.71109   2.03332
H     2.87516  -0.30161   2.89400
H     2.71463   0.68770  -1.14176
H     3.78754   1.66969  -0.10734
H     2.08932   2.15092  -0.37205
H     0.74910  -0.68297   1.89772
H     0.31946   0.59703  -0.87081
H    -1.45418  -1.15151   1.00933
H    -2.90471   0.99349  -2.21857
H    -1.14274   0.72704  -2.28025
H    -2.26822  -0.46337  -2.98383
H    -4.37729  -0.45836  -0.64585
H    -3.75326  -1.91741  -1.41793
H    -3.58822  -1.71625   0.35169
