15
Generated by autodE on: 2022-06-17. E = -250.750151 Ha
C     2.63966   0.05096   0.00418
C     1.39520   0.13149   0.84244
N     0.27848   0.04213   0.30932
C    -0.91348  -0.03512  -0.13983
C    -1.65858   1.20286  -0.55494
C    -1.61413  -1.36192  -0.23305
H     3.27102  -0.77222   0.37788
H     3.22946   0.97100   0.15168
H     2.45606  -0.09345  -1.07683
H    -1.04527   2.10542  -0.42715
H    -1.96840   1.13158  -1.61177
H    -2.58155   1.31158   0.04159
H    -2.53301  -1.35301   0.37945
H    -1.92552  -1.56251  -1.27263
H    -0.96941  -2.18396   0.10703
