36
Generated by autodE on: 2022-10-20. E = -804.610742 Ha
C    -0.12251  -2.68327   1.26368
O     0.15155  -1.28663   1.24303
C     0.03226  -0.62783   0.00632
C     0.95258  -1.17444  -1.11378
C     2.37715  -1.33094  -0.53415
C     2.87737   0.13674  -0.40809
C     1.67479   0.96120  -0.90782
C     1.13002   0.05482  -2.02568
C     0.52686   0.87787   0.14505
C     0.97970   1.20872   1.48868
N     1.33792   1.52130   2.54783
C    -0.74737   1.72660  -0.17855
C    -0.53706   3.02643  -0.91723
O    -1.57501   0.85987  -0.95651
C    -1.48318  -0.44889  -0.42200
C    -2.03024  -1.42979  -1.45294
C    -2.33245  -0.50083   0.80230
N    -3.04833  -0.50081   1.71491
H     0.16809  -3.04106   2.26066
H    -1.19389  -2.89570   1.11520
H     0.45971  -3.22954   0.50544
H     0.56728  -2.08085  -1.59309
H     2.99326  -1.90500  -1.24035
H     2.38627  -1.86251   0.42496
H     3.17789   0.40246   0.61512
H     3.74134   0.32388  -1.06158
H     1.92265   1.99376  -1.17776
H     0.20396   0.41613  -2.48612
H     1.87689  -0.12169  -2.81338
H    -1.26032   1.93043   0.77820
H     0.11741   3.68669  -0.32923
H    -0.08447   2.86463  -1.90525
H    -1.50418   3.53253  -1.05371
H    -1.46165  -1.33854  -2.38654
H    -3.08433  -1.19424  -1.65717
H    -1.96049  -2.46205  -1.08642
