22
Generated by autodE on: 2022-10-20. E = -479.733110 Ha
C     2.67848  -0.90081   0.03963
O     1.39573  -1.45683   0.34721
C     0.33885  -0.65660   0.36678
C     0.17868   0.68418   0.13050
C     1.10165   1.66759  -0.27434
N     1.81088   2.53699  -0.60324
C    -1.33982   0.93192   0.16981
C    -1.93494   0.27042  -1.10758
C    -1.70495  -1.24621  -0.84207
C    -1.03057  -1.26028   0.57017
C    -1.75615  -0.08375   1.25205
H     3.39656  -1.72686   0.10554
H     2.68253  -0.48426  -0.97871
H     2.94388  -0.11881   0.76685
H    -1.62281   1.98016   0.32425
H    -3.00681   0.50314  -1.19594
H    -1.43422   0.62790  -2.01828
H    -1.06890  -1.72827  -1.59789
H    -2.65475  -1.79849  -0.79782
H    -1.02227  -2.23580   1.07059
H    -1.35358   0.15528   2.24688
H    -2.84491  -0.23143   1.31202
