36
Generated by autodE on: 2022-10-20. E = -804.514812 Ha. Imaginary frequency = -54.6 cm-1
C    -0.16677  -2.76410   1.26008
O     0.24766  -1.40386   1.41814
C     0.64786  -0.73553   0.33862
C     1.21746  -1.34413  -0.92629
C     2.75827  -1.42869  -0.64015
C     3.20042   0.06555  -0.63600
C     1.86226   0.82245  -0.89476
C     1.17496  -0.13863  -1.88266
C     1.00142   0.59994   0.35400
C     1.03437   1.41314   1.50394
N     1.05113   2.11745   2.43700
C    -1.32477   1.88694  -0.25892
C    -0.87261   3.13597  -0.89975
O    -1.70930   0.91312  -1.00370
C    -2.11108  -0.33198  -0.61610
C    -2.43452  -1.26908  -1.73335
C    -2.50990  -0.50515   0.70654
N    -2.81496  -0.65062   1.83344
H    -0.57885  -3.07273   2.22805
H    -0.94379  -2.84734   0.48611
H     0.69021  -3.40356   1.00000
H     0.75787  -2.27942  -1.26277
H     3.24555  -1.99347  -1.44807
H     2.96764  -1.94499   0.30734
H     3.66086   0.37309   0.31372
H     3.91880   0.27096  -1.44381
H     1.96920   1.86917  -1.20339
H     0.16288   0.16835  -2.16453
H     1.77394  -0.30991  -2.78901
H    -1.50318   1.81622   0.81830
H    -0.02913   3.56099  -0.33303
H    -0.57340   2.96163  -1.94254
H    -1.67938   3.89357  -0.88480
H    -1.56256  -1.44413  -2.38558
H    -3.26293  -0.90329  -2.36806
H    -2.73833  -2.23919  -1.31542
