23
Generated by autodE on: 2022-07-26. E = -497.014660 Ha
C    -1.99547  -1.69740  -1.59061
C    -1.18775  -1.30968  -0.36954
O    -1.15612  -2.07965   0.61609
C    -0.49198  -0.06879  -0.38567
C    -0.46895   0.82233  -1.46882
N    -0.42613   1.58165  -2.36214
N     0.23226   0.32421   0.79419
C    -0.54372   0.46153   2.04067
C     1.50520   0.62817   0.76714
C     2.31025   0.42028  -0.46328
C     2.16167   1.19325   1.97930
H    -1.67379  -2.69549  -1.92739
H    -1.90874  -0.98997  -2.42564
H    -3.05594  -1.77891  -1.30131
H    -0.04365  -0.06482   2.86312
H    -1.53487   0.03229   1.88311
H    -0.63984   1.52706   2.29480
H     1.92961  -0.42367  -1.05542
H     2.25752   1.32134  -1.10071
H     3.36353   0.26559  -0.19430
H     3.16030   1.57228   1.73359
H     1.56125   1.99872   2.42790
H     2.26763   0.40363   2.74402
