19
Generated by autodE on: 2022-05-30. E = -634.779121 Ha
C    -3.57835  -0.67384   0.65731
O    -2.22881  -0.74499   0.18093
C    -1.47250   0.35455   0.34608
O    -1.88517   1.37822   0.86691
C    -0.12440   0.15704  -0.16631
C     0.95736   0.94111  -0.02135
F     1.08411   2.09772   0.58999
C     2.15238   0.18409  -0.62136
C     2.42581  -1.01427   0.31871
C     1.37201  -1.81885   0.15596
C     0.46426  -1.09501  -0.86509
O     1.46638  -0.47142  -1.69950
H    -4.02875  -1.64910   0.43886
H    -4.13024   0.12352   0.13825
H    -3.59678  -0.48159   1.74014
H     3.00156   0.79222  -0.95026
H     3.28364  -1.10158   0.98383
H     1.12870  -2.75782   0.65172
H    -0.24037  -1.70005  -1.44291
