42
Generated by autodE on: 2022-05-30. E = -1131.772898 Ha. Imaginary frequency = -276.5 cm-1
C     4.43087   1.13126  -0.12224
O     3.20176   0.60638   0.39088
C     2.21468   0.38541  -0.50658
O     2.34755   0.63183  -1.69625
C     1.03635  -0.16737   0.14020
C     1.15192  -0.92133   1.48867
C     1.89015  -2.23676   1.17678
C     1.01798  -2.96958   0.47445
C    -0.25529  -2.10618   0.39730
O    -0.19721  -1.40227   1.64262
C     0.07248  -0.92812  -0.54108
F     0.06980  -1.12898  -1.86160
C    -1.83091   0.44473  -0.35774
C    -1.85966   1.00483  -1.66995
N    -1.94638   1.39947  -2.76394
C    -2.79310  -0.65427  -0.15479
C    -3.35226  -1.29473  -1.40634
O    -3.08682  -1.10386   0.95229
N    -1.34434   1.22819   0.71129
C    -2.03759   1.18152   2.01377
C    -0.14243   1.83975   0.63697
C     0.29238   2.56355  -0.60747
C     0.48707   2.34464   1.89836
H     4.26773   2.11378  -0.58911
H     4.86724   0.44573  -0.86339
H     5.10140   1.23032   0.73952
H     1.47991  -0.34430   2.35764
H     2.92875  -2.44727   1.42909
H     1.14413  -3.93954  -0.00469
H    -1.20443  -2.62695   0.24998
H    -3.91013  -2.19380  -1.11613
H    -2.55136  -1.56572  -2.11059
H    -4.02803  -0.59945  -1.92884
H    -1.66911   0.36291   2.64195
H    -3.10616   1.04515   1.83819
H    -1.89193   2.14194   2.51869
H     0.28081   1.96928  -1.52194
H     1.30572   2.95725  -0.46727
H    -0.38959   3.42094  -0.74534
H     1.56682   2.44665   1.72800
H     0.09603   3.34812   2.14547
H     0.32373   1.68596   2.75875
