38
Generated by autodE on: 2022-06-17. E = -602.267017 Ha. Imaginary frequency = -201.7 cm-1
C     4.48569   2.28952  -0.59682
C     3.08091   2.32546  -0.05991
C     2.49128   3.70245   0.07791
C     2.42012   1.18137   0.25898
C     1.07742   1.03620   0.78109
C     0.50892  -0.17906   1.05537
C    -0.80905  -0.42078   1.58010
C    -1.71188   0.75543   1.85388
C    -1.24287  -1.70980   1.82602
C    -2.25181  -2.50302  -0.04849
C    -3.19107  -3.64680  -0.07986
N    -1.85112  -1.77261  -0.94595
C    -1.21406  -0.80701  -1.52102
C     0.12641  -1.04864  -2.14360
C    -1.84826   0.53626  -1.68975
H     5.17659   2.86527   0.04728
H     4.54512   2.75901  -1.59680
H     4.87178   1.26194  -0.67894
H     1.46415   3.69993   0.46721
H     3.10707   4.32830   0.74980
H     2.48231   4.22389  -0.89710
H     2.96237   0.23851   0.10575
H     0.49461   1.94404   0.96181
H     1.11556  -1.07385   0.86298
H    -2.70341   0.42655   2.19983
H    -1.85886   1.38515   0.95943
H    -1.28905   1.42184   2.62789
H    -0.53223  -2.53995   1.78910
H    -2.14842  -1.88814   2.41081
H    -3.54038  -3.91450  -1.09133
H    -4.06135  -3.40280   0.55200
H    -2.71186  -4.52248   0.38733
H     0.07531  -0.96695  -3.24422
H     0.83431  -0.27618  -1.79570
H     0.52429  -2.03851  -1.88079
H    -2.83216   0.58918  -1.20524
H    -1.18984   1.30758  -1.24624
H    -1.96167   0.79277  -2.75791
