35
Generated by autodE on: 2022-10-23. E = -932.862627 Ha
C    -2.25063  -3.41234  -1.81038
N    -2.17671  -1.98398  -1.59739
C    -1.13371  -1.41965  -0.95312
O    -0.22520  -2.11734  -0.45453
C    -1.10545   0.05724  -0.89182
C    -2.13034   0.89909  -1.45058
O    -3.08772   0.51289  -2.13009
O    -2.00026   2.20511  -1.11737
C    -2.96077   3.10854  -1.67061
N     0.05667   0.61368  -0.34350
C     0.85953   1.55133  -1.14788
C     0.51026   0.12668   0.80663
C    -0.45278  -0.44937   1.69792
N    -1.18048  -0.86503   2.50519
C     1.90467   0.16712   1.26115
C     2.18323   0.41047   2.62102
C     3.50133   0.43793   3.07091
C     4.55251   0.20006   2.17863
C     4.28085  -0.07239   0.83312
C     2.96656  -0.09080   0.37179
H    -3.26470  -3.67211  -2.14093
H    -2.03166  -3.95406  -0.87841
H    -1.53567  -3.76152  -2.57604
H    -2.82799  -1.34904  -2.05840
H    -3.97561   2.85919  -1.32727
H    -2.67846   4.10532  -1.31075
H    -2.93608   3.08517  -2.77031
H     1.54313   2.11094  -0.50094
H     1.41988   0.99462  -1.91000
H     0.17071   2.24122  -1.64262
H     1.36368   0.59056   3.31940
H     3.70947   0.64224   4.12311
H     5.58497   0.21537   2.53466
H     5.09826  -0.28201   0.14013
H     2.76010  -0.33725  -0.66932
