35
Generated by autodE on: 2022-10-26. E = -932.854938 Ha
C     2.46488   0.44812  -2.35446
N     3.12520   0.96088  -1.16575
C     2.70349   0.81212   0.10716
O     3.33557   1.24989   1.07511
C     1.41265   0.06320   0.28231
C     1.41521  -1.17495   1.03942
O     0.43660  -1.76638   1.48221
O     2.67529  -1.61908   1.24005
C     2.81932  -2.78879   2.05083
N     0.24360   0.65343  -0.09806
C     0.20997   2.12980  -0.16210
C    -0.85356  -0.05865  -0.44074
C    -0.65588  -1.36425  -0.95909
N    -0.54068  -2.41945  -1.44283
C    -2.22906   0.43584  -0.31511
C    -3.20940   0.01872  -1.23908
C    -4.52576   0.45943  -1.11988
C    -4.89056   1.31624  -0.07528
C    -3.92927   1.72085   0.85717
C    -2.61092   1.28139   0.74688
H     1.65613   1.11176  -2.70468
H     3.20569   0.35624  -3.15934
H     2.03955  -0.54631  -2.16072
H     3.95984   1.53066  -1.28624
H     2.27184  -3.63586   1.61191
H     3.89352  -3.00692   2.07794
H     2.44714  -2.60649   3.07001
H    -0.69486   2.45969  -0.67775
H     1.08314   2.46714  -0.73287
H     0.26111   2.54790   0.85075
H    -2.93052  -0.64608  -2.05919
H    -5.27150   0.13396  -1.84847
H    -5.92324   1.65971   0.01732
H    -4.21085   2.37307   1.68682
H    -1.88071   1.57673   1.50105
