24
Generated by autodE on: 2022-10-23. E = -613.235330 Ha
C     2.41867   0.24164   1.11092
O     1.97151  -0.07017  -0.21938
C     0.72156  -0.00614  -0.60032
O     0.57872   0.13359  -1.89745
C     1.69559   0.54099  -2.71323
C    -0.42702  -0.06515   0.21525
C    -1.66208   0.61095  -0.20485
C    -1.63567   1.65552  -1.30716
O    -2.74463   0.38796   0.34816
C    -0.38263  -0.92869   1.40561
C    -1.43235  -0.80571   2.48428
O     0.50697  -1.77842   1.53995
H     2.51163  -0.68203   1.69199
H     3.39514   0.72509   0.98538
H     1.71102   0.92599   1.59851
H     1.27000   0.75041  -3.70085
H     2.43168  -0.27108  -2.77938
H     2.16343   1.44279  -2.29594
H    -2.48702   2.33040  -1.14235
H    -0.70066   2.22991  -1.34455
H    -1.76969   1.16880  -2.28562
H    -1.70195   0.23885   2.69057
H    -2.35349  -1.31835   2.16980
H    -1.04385  -1.29276   3.38968
