59
Generated by autodE on: 2022-10-23. E = -1546.067183 Ha. Imaginary frequency = -318.5 cm-1
C     3.26331   1.53042  -2.54913
N     2.28444   0.98623  -1.63443
C     2.54808   0.84482  -0.33655
O     3.64281   1.13922   0.16721
C     1.39403   0.32793   0.53872
C     1.92800   0.04899   1.92915
O     1.51844   0.59313   2.93680
O     2.91482  -0.83389   1.92537
C     3.47985  -1.18383   3.19477
N     0.28034   1.23168   0.57543
C     0.49078   2.62640   0.12687
C    -0.88887   0.86394   1.11017
C    -0.94934  -0.19808   2.07769
N    -1.11392  -0.97666   2.92479
C    -2.14194   1.61752   0.95322
C    -2.44384   2.30930  -0.24057
C    -3.66319   2.96465  -0.38155
C    -4.59894   2.95046   0.65831
C    -4.31517   2.26025   1.84100
C    -3.10363   1.59040   1.98604
C    -0.73810  -1.29193  -0.47787
C    -1.13605  -0.40895  -1.54747
C    -2.53714  -0.42600  -2.11755
O    -0.32605   0.38988  -2.06978
C    -1.76720  -2.16658   0.13099
C    -1.45278  -3.57812   0.57414
O    -2.92995  -1.77263   0.25327
C     0.69541  -1.46572  -0.17675
O     0.90218  -2.28595   0.89713
C     1.89417  -3.31020   0.82007
O     1.59250  -1.68404  -1.17969
C     1.17684  -2.29733  -2.40229
H     2.81081   1.61208  -3.54559
H     3.59782   2.53026  -2.22688
H     4.15510   0.88541  -2.61735
H     1.35141   0.69453  -1.95627
H     2.70290  -1.59013   3.85797
H     4.23938  -1.94561   2.98646
H     3.94152  -0.30344   3.66464
H    -0.23750   3.27324   0.62412
H     1.49602   2.92307   0.44942
H     0.40691   2.73045  -0.95795
H    -1.74884   2.30095  -1.07675
H    -3.88777   3.48317  -1.31568
H    -5.55266   3.47002   0.54281
H    -5.04267   2.24026   2.65476
H    -2.89568   1.05237   2.91113
H    -3.24685   0.05913  -1.43504
H    -2.90042  -1.44914  -2.28654
H    -2.51647   0.12591  -3.06673
H    -1.14044  -3.57030   1.62938
H    -2.38211  -4.16059   0.49823
H    -0.65903  -4.05354  -0.01471
H     1.64249  -4.04683   0.04173
H     1.88279  -3.79896   1.80248
H     2.89222  -2.89990   0.62779
H     0.84582  -1.54017  -3.12696
H     0.36758  -3.02167  -2.23103
H     2.05822  -2.82036  -2.79725
