46
Generated by autodE on: 2022-06-10. E = -3899.611612 Ha
C     1.25624   3.94825   1.37279
N     0.96052   2.53221   1.47997
C     0.91563   1.76479   0.39674
O     1.20788   2.14050  -0.73779
C     0.46035   0.27653   0.50991
Br    0.19020  -0.27506   2.47771
N     1.43983  -0.56150  -0.05771
C     2.79186  -0.44592   0.14767
O     3.28660   0.38437   0.88457
O     3.45568  -1.35727  -0.56611
C     4.88900  -1.32770  -0.46259
N     0.85523  -1.60457  -0.82332
C    -0.22544  -0.91713  -1.52536
C     0.32197  -0.10874  -2.63961
N     0.81257   0.39259  -3.56321
C    -1.22913  -1.91789  -2.18975
C    -0.79630  -3.33869  -2.31943
O    -2.22886  -1.46002  -2.71009
C    -0.83709  -0.03222  -0.37294
C    -1.57398   1.26749  -0.77343
O    -1.65657   2.17995   0.05571
N    -2.17493   1.29216  -1.96246
C    -2.99525   2.42379  -2.35761
C    -1.88973  -0.91233   0.38031
O    -1.92189  -2.12732   0.19382
N    -2.75082  -0.25469   1.16129
C    -3.67922  -0.95975   2.02452
H     2.21629   4.10644   0.85969
H     1.31418   4.37493   2.38101
H     0.46879   4.46964   0.80437
H     0.66418   2.14870   2.37036
H     5.19852  -1.49357   0.57871
H     5.27618  -0.36243  -0.81774
H     5.24941  -2.14143  -1.10150
H     1.56787  -1.96725  -1.46147
H     0.05702  -3.36723  -3.02061
H    -0.45243  -3.74038  -1.35957
H    -1.61965  -3.93650  -2.72981
H    -2.25051   0.41796  -2.49105
H    -3.27617   2.30339  -3.41073
H    -3.90975   2.48929  -1.74560
H    -2.43364   3.36097  -2.23941
H    -2.60050   0.74088   1.30979
H    -4.43334  -0.25184   2.38894
H    -3.15878  -1.40576   2.88875
H    -4.17639  -1.76426   1.46615
