19
Generated by autodE on: 2022-07-27. E = -623.018160 Ha
C     4.08117   0.08869   1.66897
O     2.85111   0.69516   1.24277
C     1.92621  -0.12175   0.76024
O     2.04203  -1.33291   0.65019
N     0.79225   0.61290   0.39519
N    -0.11444  -0.18077  -0.06877
C    -1.31334   0.17244  -0.51047
C    -1.67833   1.54621  -0.49671
N    -1.99661   2.66478  -0.49462
C    -2.28379  -0.82679  -1.02086
C    -1.89140  -2.27689  -1.01874
O    -3.36765  -0.42566  -1.42006
H     3.89126  -0.63153   2.47779
H     4.71056   0.90961   2.03031
H     4.56696  -0.42291   0.82569
H     0.13597  -1.19185  -0.09402
H    -0.97971  -2.43546  -1.61792
H    -2.71367  -2.86736  -1.44068
H    -1.68307  -2.61828   0.00854
