46
Generated by autodE on: 2022-06-10. E = -3899.553000 Ha. Imaginary frequency = -405.5 cm-1
C     1.76053   3.85758   0.35726
N     1.45930   2.45639   0.15372
C     0.84726   1.73609   1.09706
O     0.66873   2.11550   2.25440
C     0.33092   0.35220   0.67882
Br    0.82957  -0.97219   2.02586
N     1.52203  -0.13784  -0.83184
C     2.77565  -0.60922  -0.39558
O     3.49286   0.05176   0.31934
O     3.05615  -1.82455  -0.86051
C     4.32273  -2.38813  -0.47559
N     0.78744  -0.99744  -1.52809
C    -0.41014  -0.51816  -1.92750
C    -0.41442   0.78738  -2.52880
N    -0.43707   1.83528  -3.02897
C    -1.45631  -1.47948  -2.46723
C    -1.03680  -2.87775  -2.79499
O    -2.56244  -1.03425  -2.72018
C    -0.98959   0.20673   0.13482
C    -1.80597   1.45260  -0.17676
O    -1.48285   2.57720   0.20992
N    -2.93489   1.23347  -0.88146
C    -3.73812   2.35205  -1.33737
C    -1.80676  -1.00450   0.59049
O    -1.75742  -2.09128   0.00510
N    -2.57818  -0.81443   1.67351
C    -2.65217   0.36148   2.52549
H     0.83508   4.45728   0.39668
H     2.30545   4.00411   1.30119
H     2.38191   4.21485  -0.47313
H     1.56209   2.03898  -0.76554
H     4.37569  -3.36511  -0.96810
H     4.36756  -2.50431   0.61628
H     5.14251  -1.74051  -0.81613
H     0.85559  -1.99768  -1.30663
H    -0.33890  -2.84109  -3.64892
H    -1.92552  -3.45779  -3.07270
H    -0.52575  -3.36714  -1.95559
H    -3.02985   0.35712  -1.39627
H    -3.19320   2.96444  -2.07626
H    -4.65375   1.96483  -1.80152
H    -4.01206   2.99878  -0.49194
H    -3.11875  -1.63108   1.95063
H    -2.89562   0.03708   3.54574
H    -1.69271   0.89184   2.56008
H    -3.43183   1.06430   2.19174
