35
Generated by autodE on: 2022-06-17. E = -915.741308 Ha
C     2.73224   3.13657   0.47974
O     1.99926   2.08423  -0.16436
C     2.22650   0.84846   0.29461
O     2.99856   0.56329   1.19638
N     1.54434  -0.10045  -0.40880
O     0.60309   0.31353  -1.43301
N    -0.51598  -0.51520  -1.29649
C    -1.54914   0.08668  -0.51039
C    -1.34753   1.27372   0.20899
C    -2.40924   1.85253   0.90822
C    -3.67779   1.26664   0.89902
C    -3.88333   0.10035   0.15527
C    -2.83423  -0.47806  -0.56015
C     0.07537  -1.84236  -0.96326
C    -0.90136  -2.84604  -0.36772
C     0.70830  -2.41369  -2.23398
C     1.21817  -1.42672   0.04823
C     0.77122  -1.48980   1.49947
O     0.42608  -0.53597   2.15792
H     3.81420   2.97445   0.37222
H     2.43594   4.06041  -0.03026
H     2.47082   3.19200   1.54611
H    -0.37117   1.75194   0.21853
H    -2.23516   2.77505   1.46742
H    -4.50248   1.72334   1.45051
H    -4.87467  -0.35698   0.11212
H    -3.01537  -1.36003  -1.17320
H    -1.64704  -3.14222  -1.11759
H    -0.33723  -3.74456  -0.07965
H    -1.42567  -2.46871   0.51930
H     1.42879  -1.71241  -2.67588
H    -0.07923  -2.62143  -2.97268
H     1.23042  -3.35235  -2.00012
H     2.06415  -2.12195  -0.06498
H     0.79017  -2.51685   1.92858
