21
Generated by autodE on: 2022-06-17. E = -644.983385 Ha
C     4.61461   0.08498   0.01524
O     3.21478  -0.21812  -0.03044
C     2.38124   0.82222   0.11923
O     2.75522   1.97451   0.28676
N     1.02844   0.54326   0.07805
O     0.86169  -0.78882  -0.12167
N    -0.28165  -1.34755  -0.20472
C    -1.47460  -0.67346  -0.10024
C    -2.56990  -1.57592  -0.24072
C    -3.87492  -1.12135  -0.17078
C    -4.12370   0.24313   0.04207
C    -3.05996   1.14246   0.18307
C    -1.73979   0.71009   0.11543
H     4.88502   0.52701   0.98541
H     5.13395  -0.87107  -0.12104
H     4.88780   0.78133  -0.79109
H    -2.34648  -2.63097  -0.40434
H    -4.70485  -1.82178  -0.27999
H    -5.15243   0.60575   0.09852
H    -3.26360   2.20225   0.34863
H    -0.92086   1.40927   0.22393
