23
Generated by autodE on: 2022-06-11. E = -609.171913 Ha
C     5.08559  -0.53407  -0.52891
O     4.03193   0.19571   0.10893
C     2.77528  -0.15770  -0.21678
O     2.51191  -1.05412  -1.01556
C     1.78977   0.63159   0.48351
N     0.51567   0.34715   0.23300
N    -0.51589   0.94716   0.71482
C    -1.75994   0.41674   0.37419
C    -2.87370   1.24079   0.63998
C    -4.16451   0.81212   0.33997
C    -4.37664  -0.45162  -0.22413
C    -3.27948  -1.28374  -0.47455
C    -1.98277  -0.86570  -0.17570
H     5.02491  -1.60413  -0.28034
H     5.03750  -0.41344  -1.62147
H     6.02202  -0.11198  -0.14544
H     2.03444   1.42504   1.18649
H     0.40082  -0.43628  -0.43699
H    -2.69637   2.22512   1.07780
H    -5.01261   1.46885   0.54805
H    -5.38863  -0.79004  -0.45655
H    -3.43440  -2.28005  -0.89571
H    -1.15773  -1.56064  -0.34863
