23
Generated by autodE on: 2022-07-27. E = -609.171739 Ha
C     3.31651   3.91187   0.55243
O     1.99876   3.51544   0.15779
C     1.71338   2.20340   0.24845
O     2.51908   1.36303   0.64310
C     0.36244   1.91271  -0.16825
N    -0.01857   0.63994  -0.11289
N    -1.16851   0.17236  -0.45161
C    -1.37101  -1.19796  -0.29228
C    -0.46951  -2.11249   0.29760
C    -0.80337  -3.46300   0.39295
C    -2.03081  -3.93563  -0.08646
C    -2.93177  -3.03497  -0.66625
C    -2.60794  -1.68407  -0.76690
H     3.36469   4.99677   0.40135
H     4.07651   3.41149  -0.06609
H     3.49561   3.67061   1.61092
H    -0.33964   2.66653  -0.51834
H     0.72624   0.01120   0.23926
H     0.49419  -1.79126   0.69882
H    -0.09437  -4.15499   0.85388
H    -2.28276  -4.99510  -0.00463
H    -3.89479  -3.38811  -1.04268
H    -3.30251  -0.97239  -1.21746
