52
Generated by autodE on: 2022-06-24. E = -1280.854731 Ha
C     1.78042   5.20821  -1.05390
O     1.09440   3.94748  -0.99238
C     1.84758   2.86892  -0.80947
O     3.05846   2.88879  -0.69412
C     1.06517   1.59375  -0.73975
N    -0.21256   1.56776  -0.76181
C    -0.67791   0.16647  -0.59106
C    -1.82753  -0.06492  -1.58088
C    -3.14311  -0.33118  -1.17651
C    -4.16311  -0.50464  -2.11829
C    -3.88936  -0.40419  -3.48372
C    -2.58583  -0.11493  -3.89992
C    -1.57040   0.05602  -2.95779
C    -1.07730  -0.05470   0.86784
C    -0.99045   0.97209   1.81882
C    -1.29832   0.73567   3.16240
C    -1.70075  -0.53430   3.58007
C    -1.81124  -1.56124   2.63728
C    -1.50892  -1.32240   1.29616
C     0.62806  -0.66497  -0.96850
C     1.76835   0.27768  -0.54730
C     2.24968   0.09827   0.91336
C     2.20954  -1.34752   1.33854
C     2.89284  -1.81606   2.54999
N     3.56827  -0.88066   3.26740
O     2.86805  -3.00345   2.93795
C     1.48399  -2.26604   0.63480
N     0.75290  -2.00788  -0.47436
C     0.08700  -3.06080  -1.21961
H     2.48778   5.21761  -1.89569
H     1.00334   5.96674  -1.20036
H     2.32404   5.39329  -0.11628
H    -3.38663  -0.40432  -0.11746
H    -5.17898  -0.71679  -1.77626
H    -4.68578  -0.54205  -4.21880
H    -2.35718  -0.01807  -4.96397
H    -0.56510   0.29856  -3.30693
H    -0.67187   1.96779   1.51246
H    -1.21816   1.55221   3.88399
H    -1.93375  -0.72255   4.63075
H    -2.13575  -2.55777   2.94609
H    -1.62201  -2.13319   0.57889
H     0.64220  -0.72076  -2.06447
H     2.62665   0.17216  -1.22414
H     1.63579   0.71365   1.59227
H     3.27207   0.50183   0.98046
H     4.04688  -1.17199   4.11218
H     3.60703   0.09410   2.99949
H     1.48120  -3.30605   0.96628
H     0.52917  -3.17447  -2.22438
H    -0.98435  -2.83972  -1.34875
H     0.18530  -4.01181  -0.68062
