32
Generated by autodE on: 2022-06-24. E = -823.056198 Ha
C     5.20709   0.07497  -0.30917
O     3.94396   0.21972   0.36445
C     3.08135  -0.78882   0.23678
O     3.29088  -1.81745  -0.38239
C     1.86662  -0.58340   1.03239
N     0.77303  -0.24016   0.60868
C    -0.43019   0.02667   0.24213
C    -1.24988  -1.09980  -0.26112
C    -2.65006  -1.10352  -0.11739
C    -3.40219  -2.19264  -0.56050
C    -2.77352  -3.29390  -1.15002
C    -1.38125  -3.30259  -1.28872
C    -0.62422  -2.21679  -0.84995
C    -0.90866   1.42369   0.34584
C    -0.37020   2.28077   1.32441
C    -0.79377   3.60593   1.41669
C    -1.75808   4.10066   0.53141
C    -2.29109   3.25951  -0.45017
C    -1.87201   1.93131  -0.54567
H     5.77218   0.98631  -0.08329
H     5.74233  -0.80855   0.06704
H     5.05604  -0.01932  -1.39406
H    -3.15159  -0.26172   0.36098
H    -4.48750  -2.18261  -0.43626
H    -3.36579  -4.14296  -1.49873
H    -0.88123  -4.15831  -1.74820
H     0.46150  -2.22850  -0.96757
H     0.38162   1.90037   2.01925
H    -0.37111   4.25598   2.18629
H    -2.08986   5.13884   0.60459
H    -3.03546   3.64061  -1.15311
H    -2.28250   1.29195  -1.32794
