51
Generated by autodE on: 2022-06-07. E = -1528.403832 Ha
C     0.00623  -2.35765   3.74447
N    -0.46611  -1.34519   2.81731
C    -0.15030  -1.38775   1.52252
O     0.53671  -2.28508   1.02222
C    -0.59230  -0.18544   0.63382
C    -1.61855   0.71908   1.27986
C    -2.91014   0.22449   1.52358
C    -3.87454   1.04101   2.11481
C    -3.55830   2.35688   2.47046
C    -2.27341   2.84950   2.23154
C    -1.30388   2.03457   1.63838
O     0.58629   0.55971   0.34897
C     1.35692  -0.04031  -0.67140
C     2.09877   1.07101  -1.46450
O     2.94648   0.75070  -2.29928
N     1.76027   2.31968  -1.14416
C     2.30063   3.47280  -1.83680
C     2.49813  -0.84533  -0.01002
O     2.92134  -0.55622   1.08630
O     3.00609  -1.76959  -0.80126
C     4.08059  -2.56529  -0.27314
C     0.32731  -0.82116  -1.57953
C     0.65618  -2.18440  -1.95652
N     0.81164  -3.26298  -2.35357
C    -0.10531   0.03437  -2.85483
C    -1.17351  -0.74581  -3.59763
C    -2.28080  -0.63080  -2.85516
C    -1.87011   0.21352  -1.65936
O    -0.85565   1.05824  -2.20260
C    -1.01899  -0.73585  -0.75056
F    -1.67656  -1.93518  -0.60026
H    -0.38837  -2.13479   4.74256
H    -0.33406  -3.35857   3.43843
H     1.10656  -2.36793   3.78535
H    -1.03190  -0.57703   3.16414
H    -3.16250  -0.80054   1.24405
H    -4.87734   0.64834   2.29677
H    -4.31372   2.99562   2.93377
H    -2.01884   3.87516   2.50800
H    -0.30143   2.42148   1.45723
H     0.96845   2.43394  -0.51767
H     2.24884   4.34960  -1.17860
H     1.73612   3.68854  -2.75935
H     3.34800   3.28538  -2.10661
H     4.94729  -1.92935  -0.04515
H     3.74748  -3.08368   0.63682
H     4.32963  -3.28859  -1.05733
H     0.73313   0.42968  -3.43245
H    -1.00554  -1.32642  -4.50342
H    -3.25529  -1.09682  -2.99282
H    -2.64172   0.78465  -1.13757
