37
Generated by autodE on: 2022-07-27. E = -1029.216314 Ha
O     2.50541   0.52479  -2.92080
C     1.48357   0.71308  -2.23750
O     0.07064   0.40662  -0.38517
C     1.17549  -0.05764  -1.02824
C    -1.60733   2.23224   0.71896
C    -2.58820   3.12000   1.14354
C    -0.69980  -0.06265   0.53622
C    -0.65807  -1.53645   0.86055
O    -0.62962  -2.33580  -0.07809
N    -0.74290  -1.88265   2.14946
C    -0.65617  -3.27243   2.55853
C    -1.72014   0.84992   1.00892
C    -2.84299   0.39244   1.73710
C    -3.81795   1.29296   2.15851
C    -3.69557   2.65553   1.86659
N     0.57324   1.65933  -2.59121
C     0.77738   2.48827  -3.75926
C     2.04891  -0.95310  -0.31657
O     1.89277  -1.25357   0.86835
O     3.08310  -1.42243  -1.03905
C     4.02206  -2.24260  -0.33633
H    -0.73723   2.59544   0.17102
H    -2.48845   4.18404   0.91917
H    -0.68907  -1.15303   2.85410
H    -1.41441  -3.87589   2.03889
H    -0.82732  -3.33551   3.63966
H     0.33747  -3.68885   2.32483
H    -2.96317  -0.66790   1.95452
H    -4.68390   0.92711   2.71388
H    -4.46147   3.35753   2.20343
H    -0.26861   1.77791  -2.04079
H    -0.05739   3.19573  -3.84015
H     1.71695   3.06053  -3.69268
H     0.81877   1.88826  -4.68359
H     4.78317  -2.52593  -1.07321
H     3.53233  -3.14252   0.06456
H     4.48890  -1.68736   0.49086
