14
Generated by autodE on: 2022-06-07. E = -499.075712 Ha
N     3.24466  -0.34034   0.40843
C     2.10352  -0.25475   0.18229
C     0.72850  -0.17588  -0.09173
C    -0.04219   0.89520  -0.35400
F     0.28877   2.16240  -0.43017
C    -1.49099   0.39329  -0.46342
C    -1.91352  -0.03277   0.96110
C    -1.18261  -1.12031   1.22057
C    -0.31886  -1.33589  -0.04057
O    -1.22634  -0.88528  -1.06147
H    -2.17629   1.01489  -1.04866
H    -2.61953   0.50815   1.58928
H    -1.12745  -1.72504   2.12468
H     0.07354  -2.33820  -0.23593
