51
Generated by autodE on: 2022-06-07. E = -1528.294731 Ha. Imaginary frequency = -242.0 cm-1
C    -0.01347  -2.84798   3.61983
N    -0.25946  -1.58471   2.94882
C     0.00657  -1.43361   1.64313
O     0.44567  -2.34595   0.93968
C    -0.25346  -0.04531   1.08733
C    -1.36613   0.79808   1.51025
C    -2.57405   0.22190   1.96175
C    -3.66699   1.03031   2.26800
C    -3.58028   2.41967   2.13152
C    -2.38727   2.99937   1.68342
C    -1.28916   2.20130   1.37492
O     0.70935   0.59649   0.46535
C     1.78133   0.17615  -0.20278
C     2.36647   1.18365  -1.11572
O     3.46518   0.99816  -1.66016
N     1.63632   2.30897  -1.30539
C     2.01213   3.26338  -2.32875
C     2.64739  -0.85969   0.40408
O     2.76306  -0.99768   1.61051
O     3.30589  -1.58249  -0.49377
C     4.15627  -2.62124   0.01185
C    -0.06953  -0.99011  -1.78014
C     0.67397  -2.15121  -2.06566
N     1.27598  -3.10853  -2.34906
C    -0.24905   0.20259  -2.76843
C    -1.40610  -0.17878  -3.71206
C    -2.50775  -0.13292  -2.95555
C    -2.00894   0.28515  -1.55424
O    -0.91333   1.13935  -1.90039
C    -1.21509  -0.91505  -1.01808
F    -1.86305  -1.92759  -0.45210
H    -0.31772  -2.75589   4.66896
H    -0.58722  -3.65961   3.14707
H     1.05482  -3.11177   3.57446
H    -0.59547  -0.79287   3.48788
H    -2.67072  -0.86072   2.03964
H    -4.59677   0.56956   2.60826
H    -4.43906   3.04935   2.37407
H    -2.31083   4.08388   1.57896
H    -0.35951   2.65775   1.03574
H     0.65361   2.26606  -1.04703
H     1.36976   4.14895  -2.24337
H     1.90248   2.84459  -3.34502
H     3.05910   3.57268  -2.20209
H     4.95948  -2.19770   0.63174
H     3.56681  -3.33292   0.60726
H     4.57660  -3.11912  -0.86915
H     0.66000   0.61307  -3.21532
H    -1.28730  -0.46497  -4.75605
H    -3.54116  -0.36931  -3.20456
H    -2.71946   0.75748  -0.86979
