9
Generated by autodE on: 2022-05-29. E = -280.381050 Ha
C    -2.63071   0.57746   0.08979
N    -1.62421  -0.34974   0.61980
N    -0.51762  -0.32757   0.13095
C     0.56531  -0.47844  -0.38503
C     1.84360   0.02846  -0.27093
N     2.95561   0.39278  -0.25869
H    -3.62164   0.17140   0.32095
H    -2.51814   0.70800  -0.99701
H    -2.52598   1.55542   0.58492
