38
Generated by autodE on: 2022-05-29. E = -1047.052349 Ha. Imaginary frequency = -328.9 cm-1
C     3.05102   2.10021   1.50552
O     2.27692   1.36326   0.55212
C     1.09819   1.88796   0.19392
O     0.71369   2.97838   0.59339
C     0.33889   1.08007  -0.75913
C     0.34611  -0.22667  -1.13665
C     1.03560  -1.41132  -0.62789
C     1.20416  -2.53991  -1.45679
C     1.83394  -3.69054  -0.98028
C     2.29837  -3.74362   0.33712
C     2.12354  -2.63735   1.17607
C     1.49795  -1.48646   0.70268
C    -0.74398  -0.28770  -2.24021
O    -0.60533   1.01797  -2.83219
C    -0.77666   1.73398  -1.59222
C    -2.13162   1.15704  -1.10782
C    -1.79034   0.96118   1.15927
C    -2.13101   2.08795   1.88637
N    -2.36039   3.10131   2.42466
N    -1.89347  -0.25846   1.33095
N    -2.10980  -1.32435   0.76498
C    -1.53697  -2.56606   1.26983
C    -2.11587  -0.13212  -1.55408
H     3.33147   3.08348   1.10032
H     3.94831   1.49929   1.69398
H     2.48482   2.23971   2.43797
H     0.85391  -2.51541  -2.48918
H     1.96072  -4.55015  -1.64223
H     2.78705  -4.64596   0.71183
H     2.46444  -2.67761   2.21313
H     1.33688  -0.64727   1.37605
H    -0.65943  -1.08711  -2.98120
H    -0.71822   2.81819  -1.72261
H    -2.99895   1.76066  -0.84218
H    -2.35065  -3.20680   1.64487
H    -1.05816  -3.08852   0.43000
H    -0.80076  -2.39533   2.06535
H    -2.92589  -0.85083  -1.62149
