27
Generated by autodE on: 2022-06-15. E = -5667.439012 Ha
C     2.59367  -1.06385  -4.04833
N     2.34797  -0.91842  -2.62750
C     3.29773  -0.58433  -1.73846
O     4.47481  -0.35947  -2.03640
C     2.86966  -0.46499  -0.26513
C     1.48081  -0.79591   0.00193
C     0.27794  -0.63048   0.21349
C    -0.89576   0.16491   0.43218
Br   -2.45480  -0.53931  -0.59183
Br   -1.37399   0.11079   2.37590
C    -0.60944   1.61369   0.00017
C     0.69964   2.23206   0.53760
C     2.01616   2.02760  -0.26603
C     3.05441   1.00089   0.23533
H     2.45327  -2.10756  -4.37178
H     1.90907  -0.42569  -4.62726
H     3.62637  -0.76376  -4.26144
H     1.40395  -1.06759  -2.28371
H     3.56468  -1.11653   0.28745
H    -0.58413   1.61173  -1.10142
H    -1.47131   2.22663   0.30141
H     0.84706   1.93751   1.58979
H     0.50780   3.31548   0.56293
H     2.53507   2.99842  -0.25876
H     1.77856   1.83377  -1.32603
H     3.05950   0.98568   1.33625
H     4.06065   1.30955  -0.08566
