27
Generated by autodE on: 2022-07-27. E = -794.259503 Ha
C    -2.86224  -3.84513  -1.12429
N    -1.62065  -3.11453  -0.97921
C    -1.59371  -1.83125  -0.58518
O    -2.60685  -1.17152  -0.30217
N    -0.29028  -1.30645  -0.52409
N    -0.34154  -0.07269  -0.12879
C     0.66999   0.74670   0.06109
C     2.07865   0.35593  -0.29027
O     2.63930   0.93265  -1.22721
N     2.66182  -0.59670   0.45224
C     2.08482  -1.31653   1.57208
C     0.40292   2.12386   0.48993
O     1.28082   2.93802   0.71352
O    -0.90558   2.37357   0.63115
C    -1.27073   3.68079   1.09783
H    -3.49908  -3.40948  -1.91171
H    -3.43656  -3.84181  -0.18461
H    -2.63293  -4.88314  -1.39313
H    -0.73803  -3.56071  -1.20567
H    -1.30197   0.29366   0.05362
H     3.59695  -0.86231   0.14828
H     1.28820  -0.72235   2.03814
H     1.66755  -2.28758   1.26431
H     2.86228  -1.49085   2.32843
H    -2.36504   3.68508   1.15350
H    -0.92133   4.44939   0.39374
H    -0.83723   3.86712   2.09095
