27
Generated by autodE on: 2022-06-15. E = -794.264006 Ha
C     4.70700  -1.71369   1.00046
N     3.44861  -1.53213   0.31041
C     2.45736  -0.74659   0.75853
O     2.48242  -0.08508   1.80416
N     1.34568  -0.76036  -0.12416
N     0.42622   0.00520   0.33822
C    -0.78405   0.32353  -0.10973
C    -1.46561   1.28257   0.81917
O    -0.86088   1.65045   1.84276
N    -2.69682   1.68894   0.48502
C    -3.47764   2.60953   1.28373
C    -1.37935  -0.19077  -1.34894
O    -2.49918   0.12627  -1.73751
O    -0.60020  -1.03477  -2.01899
C    -1.13035  -1.56901  -3.24166
H     5.55089  -1.37992   0.37624
H     4.69589  -1.12324   1.92393
H     4.86540  -2.77271   1.25800
H     3.28932  -2.01531  -0.56857
H     0.64080   0.49100   1.24646
H    -3.07856   1.31078  -0.38269
H    -3.72195   3.51649   0.70854
H    -2.90319   2.89747   2.17151
H    -4.42149   2.14275   1.60680
H    -0.35359  -2.23343  -3.63678
H    -1.34025  -0.75943  -3.95527
H    -2.05338  -2.13330  -3.04604
