54
Generated by autodE on: 2022-06-15. E = -6461.659369 Ha. Imaginary frequency = -262.7 cm-1
C   -11.73270  -3.39057  -1.11447
N   -10.53201  -3.18215  -0.32899
C    -9.62385  -2.25183  -0.66393
O    -9.81951  -1.41347  -1.55335
C    -8.36433  -2.18084   0.19834
C    -7.93825  -3.43568   0.98528
C    -6.55717  -3.28769   1.64700
C    -6.28786  -1.97458   2.43059
C    -5.13890  -1.10322   1.89054
C    -5.46248  -0.17492   0.70495
Br   -3.71502   0.61172   0.10448
Br   -6.57495   1.38288   1.36765
C    -6.20987  -0.82425  -0.35241
C    -7.21152  -1.55524  -0.46515
N    -7.01729  -2.25894  -2.60628
C    -8.09383  -3.00509  -3.10119
O    -8.43010  -4.02364  -2.48500
N    -8.66413  -2.62625  -4.26581
C    -9.85483  -3.28789  -4.76258
N    -6.87850  -1.02146  -3.02569
C    -5.77319  -0.33249  -2.72668
C    -4.40464  -0.84636  -3.13805
O    -3.87454  -0.20492  -4.05390
N    -3.82967  -1.95463  -2.64724
C    -4.13366  -2.79841  -1.50420
C    -5.95561   1.14951  -2.66114
O    -5.07365   1.97767  -2.67550
O    -7.25536   1.45198  -2.51918
C    -7.58763   2.83827  -2.36629
H   -12.44001  -4.00141  -0.53922
H   -11.50673  -3.90667  -2.06297
H   -12.20433  -2.42717  -1.35035
H   -10.26340  -3.90489   0.32924
H    -8.64376  -1.41174   0.94575
H    -8.70369  -3.63352   1.75315
H    -7.91703  -4.30232   0.30660
H    -5.78484  -3.40770   0.87271
H    -6.42853  -4.14435   2.32650
H    -6.00561  -2.23275   3.46219
H    -7.20143  -1.36675   2.53135
H    -4.32161  -1.76292   1.55933
H    -4.72655  -0.47374   2.69176
H    -8.35192  -1.78467  -4.73752
H   -10.74206  -3.02375  -4.16296
H    -9.72951  -4.37936  -4.72972
H   -10.02536  -2.98236  -5.80241
H    -7.73068  -0.45180  -3.14574
H    -2.93184  -2.12690  -3.09549
H    -5.20361  -3.00081  -1.44518
H    -3.78600  -2.34442  -0.56430
H    -3.59959  -3.74782  -1.64258
H    -8.67628   2.87461  -2.24801
H    -7.27826   3.40930  -3.25331
H    -7.09367   3.24612  -1.47310
