20
Generated by autodE on: 2022-06-19. E = -552.863868 Ha
C    -2.94828  -0.28083  -0.06658
C    -1.74286   0.59232  -0.34010
O    -1.88356   1.73659  -0.79863
C    -0.45941   0.02215  -0.04102
C    -0.17311  -1.25702   0.48699
O    -0.80619  -2.23732   0.83589
O     1.26708  -1.28393   0.59388
C     1.75638  -0.12760   0.16399
C     3.21381   0.11729   0.15779
N     0.78866   0.67314  -0.22088
C     0.98414   2.01616  -0.75913
H    -3.85589   0.27740  -0.33158
H    -2.98883  -0.57546   0.99365
H    -2.90014  -1.21193  -0.65262
H     3.72250  -0.75281   0.58942
H     3.45959   1.01371   0.74732
H     3.57467   0.27385  -0.87098
H     0.47948   2.74775  -0.11766
H     2.05732   2.23066  -0.79563
H     0.55928   2.07238  -1.76773
