36
Generated by autodE on: 2022-10-07. E = -1103.593463 Ha
C     1.34779   2.92230   1.05494
O     1.10381   1.64629   0.45502
C     1.85072   1.32012  -0.60563
O     2.65409   2.08122  -1.10933
C     1.49299  -0.04589  -1.16543
C     1.44148  -1.16737  -0.12066
C     2.48414  -1.11094   1.00217
O     3.39630  -0.24556   0.90736
O     2.34711  -1.94847   1.93113
C    -0.00803  -1.12306   0.39168
C    -0.60411  -2.53421   0.63144
O    -1.13696  -2.74036   1.75343
O    -0.52137  -3.36445  -0.31087
N    -0.72456  -0.36800  -0.65365
C    -1.75803   0.49671  -0.31913
C    -2.51709   0.27536   0.85364
C    -3.56511   1.13445   1.18837
C    -3.89546   2.22463   0.37617
C    -3.15373   2.43752  -0.79188
C    -2.10287   1.59050  -1.14355
N     0.13208   0.00474  -1.72707
C    -0.05671  -0.89219  -2.86823
H     0.62503   3.01548   1.87390
H     1.20031   3.73117   0.32494
H     2.37418   2.96510   1.44858
H     2.21283  -0.24655  -1.96603
H     1.58005  -2.12283  -0.64884
H    -0.06534  -0.56522   1.33767
H    -2.29555  -0.58306   1.48792
H    -4.13427   0.94097   2.10180
H    -4.71805   2.89126   0.64415
H    -3.39406   3.28133  -1.44470
H    -1.53024   1.76661  -2.05222
H     0.62940  -0.59736  -3.67536
H    -1.08677  -0.78369  -3.23799
H     0.11089  -1.95389  -2.61317
