26
Generated by autodE on: 2022-10-13. E = -648.482501 Ha
C     3.01669   2.14834   1.60902
O     2.21526   1.19736   0.90108
C     2.85500   0.45094  -0.01768
O     4.06323   0.56361  -0.22224
C     2.05529  -0.48451  -0.77539
N     0.73239  -0.72075  -0.70309
C     0.22585  -1.67660  -1.73262
N    -0.02745  -0.22509   0.21797
C    -1.41625  -0.28544   0.10595
C    -2.13397  -0.55532   1.29072
C    -3.52736  -0.55944   1.29370
C    -4.23884  -0.27070   0.12287
C    -3.53651   0.03135  -1.04851
C    -2.14118   0.02931  -1.06431
H     2.33733   2.65562   2.30474
H     3.46246   2.87939   0.91790
H     3.82059   1.64595   2.16739
H     2.59632  -1.05709  -1.52300
H    -0.02348  -1.13682  -2.65303
H    -0.65779  -2.18942  -1.34223
H     1.02031  -2.40101  -1.93592
H    -1.57201  -0.76950   2.20204
H    -4.06316  -0.78624   2.21870
H    -5.33104  -0.26836   0.12700
H    -4.08001   0.28182  -1.96296
H    -1.61280   0.30318  -1.97772
