10
Generated by autodE on: 2022-10-07. E = -455.051687 Ha
O    -2.80603   0.29433   0.93439
C    -1.94622  -0.26863   0.20020
O    -2.17288  -1.19751  -0.62361
C    -0.52485   0.23723   0.34269
C     0.52470  -0.23681  -0.34317
C     1.94605   0.26909  -0.20069
O     2.17303   1.19712   0.62403
O     2.80612  -0.29463  -0.93404
H    -0.36918   1.04789   1.06309
H     0.36904  -1.04746  -1.06359
