19
Generated by autodE on: 2022-05-28. E = -995.131159 Ha
C    -3.58869   0.30753   1.31235
O    -2.20653  -0.06022   1.22536
C    -1.60115   0.14249   0.04158
O    -2.16931   0.60988  -0.92957
C    -0.19949  -0.26585   0.09349
C     0.79296  -0.04493  -0.78969
Cl    0.79230   0.76346  -2.29148
C     2.08420  -0.57086  -0.11981
C     2.39138   0.39537   1.04726
C     1.42135   0.16893   1.93720
C     0.53339  -0.91998   1.29396
O     1.53073  -1.68666   0.58969
H    -3.90098   0.07170   2.33628
H    -4.18734  -0.26732   0.59055
H    -3.71585   1.38205   1.11460
H     2.90161  -0.84954  -0.79232
H     3.20363   1.12072   1.05904
H     1.21818   0.65757   2.88931
H    -0.07933  -1.53922   1.95521
