8
Generated by autodE on: 2022-05-28. E = -188.144531 Ha
C    -1.67153  -0.50453   0.18999
C    -0.49583   0.38913   0.46070
N     0.65386   0.18156  -0.08623
N     1.67242  -0.01324  -0.57863
H    -2.50292   0.05563  -0.27170
H    -2.05500  -0.95184   1.12301
H    -1.39467  -1.32308  -0.49023
H    -0.54776   1.25554   1.12455
