36
Generated by autodE on: 2022-06-19. E = -1120.252738 Ha
C     2.77056   1.19085  -2.21984
O     2.07217   0.11441  -1.56829
C     1.47877   0.38967  -0.41896
O     1.51159   1.47343   0.12589
C     0.67197  -0.81651   0.11550
C     1.66937  -1.93093   0.52246
C     1.12037  -3.27307   0.89909
O     2.85157  -1.65913   0.57955
C    -0.20829  -0.39358   1.31956
C     0.47638   0.48129   2.35096
O     1.48161   0.08298   2.91852
C    -0.14728   1.77221   2.71137
C    -1.20002   2.28823   2.04996
C    -1.81553   1.61727   0.88967
O    -2.59078   2.19929   0.14823
C    -1.50616   0.14752   0.68820
C    -1.44587  -0.31823  -0.81032
C    -1.19068   0.80609  -1.76416
N    -0.87115   1.58821  -2.55770
C    -2.71141  -0.95859  -1.22238
N    -3.70517  -1.46689  -1.53151
N    -0.34999  -1.28103  -0.82148
C     0.01584  -1.86586  -2.10620
H     3.18804   0.76334  -3.13789
H     3.57251   1.56899  -1.57089
H     2.06763   2.00135  -2.45787
H     0.24075  -3.54939   0.30517
H     1.91243  -4.02744   0.80743
H     0.80941  -3.22612   1.95697
H    -0.46217  -1.31243   1.86372
H     0.32612   2.30978   3.53679
H    -1.61312   3.26738   2.30467
H    -2.36022  -0.36387   1.15632
H     0.85029  -2.56371  -1.96066
H     0.31632  -1.11871  -2.85875
H    -0.84016  -2.43770  -2.49410
