12
Generated by autodE on: 2022-06-19. E = -381.636095 Ha
O     1.92354  -1.84669   0.03066
C     1.03885  -0.99690   0.01679
C    -0.39363  -1.38061   0.01450
C    -1.36381  -0.45000  -0.00164
C    -1.03885   0.99690  -0.01693
O    -1.92354   1.84669  -0.03060
C     0.39363   1.38061  -0.01448
C     1.36381   0.45000   0.00166
H    -0.60862  -2.45174   0.02639
H    -2.42518  -0.70905  -0.00369
H     0.60862   2.45174  -0.02630
H     2.42517   0.70905   0.00379
