36
Generated by autodE on: 2022-06-19. E = -1120.192646 Ha. Imaginary frequency = -341.1 cm-1
C     3.20829   1.52237  -1.31986
O     2.29969   0.40807  -1.23891
C     1.70546   0.20752  -0.06573
O     1.93288   0.84879   0.93354
C     0.78739  -1.00378  -0.14900
C     1.38230  -2.26013   0.46863
C     2.66768  -2.10660   1.22620
O     0.79107  -3.32262   0.40717
C    -0.82164  -0.65245   1.28503
C    -0.21046   0.11387   2.40235
O     0.42449  -0.44529   3.29013
C    -0.45836   1.57686   2.44181
C    -1.39013   2.15785   1.66484
C    -2.20624   1.37055   0.71331
O    -3.15210   1.87675   0.11477
C    -1.83233  -0.04610   0.50727
C    -0.82133   0.02713  -1.51821
C    -0.32784   1.37121  -1.42409
N    -0.02720   2.49219  -1.35867
C    -1.89710  -0.08866  -2.45596
N    -2.81115  -0.12471  -3.17327
N    -0.02875  -1.07576  -1.25262
C    -0.53169  -2.35960  -1.77560
H     3.58138   1.52720  -2.34951
H     2.67243   2.45611  -1.09838
H     4.03356   1.38652  -0.60760
H     3.44740  -1.65162   0.59544
H     2.50765  -1.44274   2.08963
H     2.99232  -3.09418   1.57545
H    -0.89774  -1.72503   1.46874
H     0.12992   2.14424   3.16662
H    -1.60502   3.22782   1.71470
H    -2.61480  -0.66858   0.06985
H     0.28604  -3.08002  -1.82357
H    -0.91068  -2.18689  -2.78820
H    -1.33633  -2.74952  -1.13592
