39
Generated by autodE on: 2022-06-17. E = -843.949790 Ha
C     5.16897  -0.24043  -1.40402
C     4.30977  -0.21012  -0.36532
C     4.78764  -0.13237   1.06029
C     2.86588  -0.25421  -0.62015
C     1.90396  -0.22246   0.31995
C     0.44331  -0.25182  -0.00388
C    -0.37620  -1.23457   0.80668
C     0.15127  -2.51865   1.19309
N     0.61474  -3.54302   1.48488
N    -1.56572  -0.88849   1.12069
C    -1.81293   0.45237   0.55117
C    -2.69310   1.26230   1.49713
C    -2.51183   0.22801  -0.79864
O    -2.33258  -0.74094  -1.50790
O    -3.30308   1.24426  -1.13178
C    -3.92558   1.18598  -2.42471
C    -0.37194   1.06089   0.26381
C     0.15574   1.78880   1.50605
C    -0.30826   2.00674  -0.93512
H     6.25133  -0.20893  -1.25053
H     4.80821  -0.29710  -2.43556
H     4.43094  -0.99702   1.64442
H     4.39591   0.76859   1.56114
H     5.88522  -0.10821   1.11164
H     2.56666  -0.31599  -1.67308
H     2.17002  -0.16516   1.37883
H     0.31950  -0.53376  -1.06299
H    -3.69741   0.81860   1.55430
H    -2.26221   1.26623   2.50632
H    -2.79026   2.29973   1.15199
H    -4.57096   0.29944  -2.49904
H    -4.52257   2.10070  -2.51245
H    -3.16097   1.15141  -3.21414
H     1.18968   2.11899   1.33055
H    -0.44549   2.68381   1.71701
H     0.15107   1.14893   2.40093
H    -0.94528   2.88960  -0.77634
H     0.72716   2.35517  -1.07082
H    -0.61523   1.51693  -1.87135
