23
Generated by autodE on: 2022-06-17. E = -351.521384 Ha
C     3.61048  -0.17160   1.11015
C     2.56594  -0.19503   0.25329
C     2.77000  -0.40842  -1.22489
C     1.20582  -0.00984   0.75529
C     0.07754  -0.00956   0.00172
C    -1.24931   0.18032   0.55127
C    -2.42124   0.19757  -0.13281
C    -2.53787   0.01767  -1.61976
C    -3.72622   0.40759   0.58173
H     4.63823  -0.30693   0.76189
H     3.45891  -0.01571   2.18274
H     3.83501  -0.53375  -1.46594
H     2.38102   0.44376  -1.80666
H     2.22772  -1.30210  -1.57597
H     1.11129   0.14121   1.83743
H     0.16313  -0.15946  -1.07796
H    -1.29566   0.32499   1.63745
H    -3.18856  -0.84427  -1.85060
H    -1.57456  -0.13679  -2.12264
H    -3.02544   0.89850  -2.07380
H    -4.24883   1.29812   0.18839
H    -3.59143   0.53397   1.66602
H    -4.40764  -0.44528   0.41110
