67
Generated by autodE on: 2022-06-13. E = -1660.706236 Ha. Imaginary frequency = -117.1 cm-1
C     4.81381   0.27467  -6.21491
N     4.18265   1.05439  -5.17220
C     4.04637   2.39536  -5.21770
O     4.34832   3.07534  -6.20977
C     3.50805   3.01662  -3.96261
C     3.67732   2.29099  -2.67709
C     4.93497   2.05976  -2.09741
C     5.04884   1.32679  -0.91634
C     3.90864   0.80169  -0.29907
C     2.65323   1.00511  -0.87959
C     2.53792   1.73874  -2.06038
C     5.25265   4.94376  -3.79463
C     4.63607   5.91414  -3.33926
C     4.69510   7.24058  -2.68986
C     3.40262   8.03064  -2.50567
O     2.67495   7.95393  -1.53888
O     3.21065   8.89472  -3.50552
C     2.14396   9.84703  -3.35612
C     5.43863   7.16239  -1.32848
C     6.57161   6.13769  -1.27000
C     7.59618   6.17426  -2.42895
C     7.72370   4.85872  -3.19764
C     6.61951   4.60780  -4.30415
C     6.87170   5.51625  -5.44395
N     7.06873   6.26384  -6.30802
C     6.87152   3.22947  -4.77728
N     7.21441   2.16525  -5.07905
C     2.21131   4.84481  -3.09110
C     2.70133   4.68785  -1.76536
N     3.01018   4.66845  -0.63898
C     1.08094   5.80205  -3.21969
C     0.98311   6.71846  -4.28396
C    -0.10274   7.58908  -4.37312
C    -1.09528   7.58614  -3.38836
C    -0.98863   6.70789  -2.30560
C     0.08763   5.82434  -2.22222
N     2.54495   3.95958  -4.08449
C     1.89420   4.13645  -5.40093
H     5.08353   0.93963  -7.04278
H     4.12814  -0.50092  -6.59079
H     5.72565  -0.21567  -5.84098
H     3.91629   0.57952  -4.31533
H     5.83018   2.46483  -2.56427
H     6.03471   1.16929  -0.47308
H     3.99929   0.23245   0.62886
H     1.75768   0.58982  -0.41171
H     1.55409   1.89796  -2.50659
H     5.30124   7.83932  -3.38942
H     1.22921   9.36140  -2.99928
H     1.98385  10.28416  -4.34820
H     2.45138  10.62666  -2.64316
H     4.70538   6.92075  -0.54696
H     5.81692   8.17572  -1.11671
H     7.09681   6.28779  -0.31372
H     6.12899   5.13185  -1.20676
H     7.38152   6.99520  -3.13239
H     8.59617   6.39428  -2.02612
H     8.69158   4.79479  -3.71589
H     7.66689   4.00741  -2.50395
H     1.77277   6.76970  -5.03206
H    -0.15997   8.29108  -5.20772
H    -1.94060   8.27448  -3.45756
H    -1.75243   6.70307  -1.52458
H     0.15693   5.13500  -1.37839
H     0.85993   4.44904  -5.23681
H     2.42316   4.88419  -6.00067
H     1.88699   3.17877  -5.92508
