47
Generated by autodE on: 2022-10-26. E = -1094.785785 Ha
C     4.09670   2.97170   0.70761
O     3.35501   1.80409   0.37069
C     2.10382   2.00563  -0.14910
O     1.70343   3.15868  -0.37916
C     1.38210   0.80012  -0.37634
C     1.70564  -0.50722   0.21238
C     1.43407  -1.69455  -0.50542
C     1.66651  -2.94988   0.05360
C     2.18531  -3.06447   1.34941
C     2.46236  -1.90092   2.07396
C     2.22046  -0.64274   1.51899
N     0.16624   0.89704  -1.09659
C     0.21033   1.53634  -2.42182
C    -0.94422   0.33703  -0.62268
C    -1.05332   0.08472   0.82792
C    -0.75553   1.10957   1.74655
C    -0.86614   0.87512   3.11380
C    -1.25289  -0.38816   3.58493
C    -1.54635  -1.40897   2.67876
C    -1.45832  -1.17152   1.30391
C    -2.03357  -0.11303  -1.49708
C    -1.77009  -0.77228  -2.71496
C    -2.81995  -1.23904  -3.50489
C    -4.14518  -1.05177  -3.09787
C    -4.41730  -0.40741  -1.88524
C    -3.37214   0.04742  -1.08384
H     3.55851   3.59158   1.44179
H     5.04008   2.61929   1.14428
H     4.30805   3.58406  -0.18291
H     1.02367  -1.62636  -1.51582
H     1.44571  -3.84798  -0.52913
H     2.36657  -4.04809   1.78885
H     2.85400  -1.97151   3.09216
H     2.41021   0.25157   2.11247
H     0.79933   2.45358  -2.32201
H    -0.80045   1.79061  -2.75745
H     0.69758   0.86950  -3.14519
H    -0.43573   2.08593   1.37779
H    -0.64785   1.67913   3.82027
H    -1.32607  -0.57134   4.65941
H    -1.84635  -2.39519   3.03979
H    -1.68102  -1.96959   0.59399
H    -0.73994  -0.94503  -3.02766
H    -2.60170  -1.75938  -4.44012
H    -4.96566  -1.41539  -3.72071
H    -5.45037  -0.26290  -1.56146
H    -3.58542   0.54468  -0.13615
