23
Generated by autodE on: 2022-05-28. E = -330.610187 Ha
C    -1.25385  -1.65529   0.35517
C    -1.13523  -0.16724   0.38440
C    -2.33296   0.66961   0.73154
N    -0.04192   0.40920  -0.18523
C    -0.20766   1.75267  -0.76755
C     1.18281  -0.18403  -0.20767
C     2.23234   0.20964  -1.20826
C     1.56479  -1.07969   0.92319
H    -0.81175  -2.21403   1.20685
H    -2.31682  -1.94629   0.31015
H    -0.74156  -2.05058  -0.54532
H    -2.99911   0.10130   1.39836
H    -2.94653   0.96486  -0.14676
H    -2.07698   1.60485   1.25818
H    -0.48320   2.46353   0.02324
H    -0.99980   1.75212  -1.52920
H     0.72944   2.09128  -1.21544
H     1.81334   0.53468  -2.17300
H     2.91115   1.01650  -0.85702
H     2.88055  -0.65645  -1.42355
H     2.65617  -1.03321   1.08168
H     1.31016  -2.15598   0.82363
H     1.05857  -0.74528   1.85031
