13
Generated by autodE on: 2022-05-28. E = -767.141595 Ha
Cl    1.12065   2.01112   0.18185
C     0.09010   0.66082  -0.10268
C    -1.23176   0.53719   0.03803
C    -1.47995  -0.96470  -0.23946
C    -0.86812  -1.76321   0.93793
C     0.45327  -1.62496   0.80014
C     0.62463  -0.74730  -0.46290
O    -0.48040  -1.21151  -1.25461
H    -1.97341   1.26434   0.36217
H    -2.48442  -1.24686  -0.57287
H    -1.44008  -2.26126   1.72019
H     1.26602  -1.97625   1.43462
H     1.57975  -0.78940  -0.99674
