36
Generated by autodE on: 2022-05-28. E = -1097.756191 Ha. Imaginary frequency = -64.1 cm-1
C    -2.24845  -0.53547   1.60218
N    -1.91139  -0.49858   0.16295
C    -1.46600  -1.69124  -0.33132
C    -1.08744  -1.90204  -1.76817
C    -1.67415  -2.94418   0.47743
C     1.13121  -0.82825   0.38150
C     1.87718  -0.88449  -0.96819
C     3.32506  -0.39858  -0.71399
C     3.21660   0.91237  -0.47152
C     1.69913   1.20526  -0.57837
O     1.33966   0.28977  -1.62608
C     1.02649   0.49589   0.61315
Cl    0.75453   1.30920   2.12252
C    -1.96213   0.71982  -0.43930
C    -2.09848   0.88737  -1.92908
C    -2.18289   1.98382   0.34584
H    -2.66422   0.41788   1.92539
H    -3.00414  -1.30940   1.77935
H    -1.35634  -0.76072   2.20009
H    -0.39701  -2.75788  -1.82684
H    -0.57723  -1.04369  -2.21155
H    -1.94661  -2.15869  -2.42222
H    -1.17985  -3.78135  -0.03573
H    -2.74028  -3.23339   0.59419
H    -1.25092  -2.90122   1.49459
H     1.01743  -1.66084   1.07047
H     1.75234  -1.78476  -1.57721
H     4.20410  -1.04205  -0.68177
H     3.98007   1.63687  -0.18975
H     1.38634   2.23350  -0.79091
H    -2.51184   0.00335  -2.42670
H    -1.15344   1.15125  -2.44091
H    -2.79660   1.71955  -2.12683
H    -3.25221   2.18924   0.56824
H    -1.83354   2.83267  -0.26389
H    -1.62998   2.03579   1.29304
