18
Generated by autodE on: 2022-06-18. E = -235.968079 Ha
C     1.20253   1.50357  -0.42182
C     0.65567   0.16781   0.02109
C     1.74907  -0.74794   0.51678
C    -0.65562  -0.16782  -0.02128
C    -1.20377  -1.49962   0.43182
C    -1.74785   0.74400  -0.52669
H     1.92840   1.36968  -1.24411
H     1.76362   1.97924   0.40244
H     0.43933   2.21442  -0.76026
H     2.51878  -0.88139  -0.26444
H     2.26953  -0.29474   1.37976
H     1.40330  -1.74391   0.81854
H    -1.97799  -1.35098   1.20578
H    -0.45003  -2.18304   0.84055
H    -1.70832  -2.01417  -0.40582
H    -2.30838   0.25277  -1.34215
H    -2.48589   0.94059   0.27187
H    -1.39264   1.71156  -0.90109
