37
Generated by autodE on: 2022-06-18. E = -900.715910 Ha. Imaginary frequency = -354.4 cm-1
C    -3.21678   0.10279   0.39836
C    -2.13619   0.12338  -0.63608
C    -2.43136  -0.61122  -1.90787
C    -0.67550  -1.88411   0.15754
C    -1.17744  -3.05128  -0.42349
N    -1.63982  -4.01049  -0.90314
O     0.35816  -1.18689  -0.43975
C     0.45330  -0.04266   0.27001
C     1.67817   0.75084   0.14093
C     2.02389   1.67427   1.14164
C     3.17409   2.45053   0.99980
C     3.98177   2.31082  -0.13353
C     3.64063   1.38574  -1.12681
C     2.49158   0.60783  -0.99593
O    -0.04255  -0.25137   1.52182
C    -0.87113  -1.39232   1.47529
O    -1.55411  -1.72274   2.42154
C    -1.10119   1.09318  -0.60219
C    -1.22743   2.23396   0.38955
C    -0.48151   1.49833  -1.92668
H    -2.87186   0.37881   1.40211
H    -3.98011   0.85070   0.10816
H    -3.71317  -0.87633   0.44356
H    -3.09149  -1.47253  -1.74134
H    -1.52286  -0.94388  -2.42811
H    -2.95069   0.08264  -2.59641
H     1.39684   1.77514   2.02765
H     3.44269   3.16544   1.78029
H     4.88189   2.92021  -0.24112
H     4.27437   1.26934  -2.00847
H     2.22442  -0.11440  -1.76781
H    -0.31400   2.84470   0.39878
H    -2.06145   2.89209   0.09067
H    -1.42585   1.89306   1.41325
H     0.33999   2.21066  -1.77357
H    -0.09389   0.64374  -2.49664
H    -1.24120   1.99514  -2.55443
