26
Generated by autodE on: 2022-05-29. E = -743.630334 Ha
C     2.60822  -2.90934   0.46390
N     1.60140  -1.93712   0.09330
C     1.87996  -0.62510   0.06945
O     3.00586  -0.16178   0.31545
C     0.78068   0.31097  -0.28038
C    -0.56964   0.25507  -0.30157
C    -1.49604  -0.84457  -0.01520
O    -1.20323  -2.03227   0.03535
O    -2.73661  -0.39580   0.18456
C    -3.74488  -1.37470   0.47843
C    -1.01538   1.71953  -0.56268
C    -0.66583   2.52570   0.70769
C     0.66891   2.57619   0.72285
C     1.10565   1.80231  -0.53991
O     0.03959   2.13454  -1.44248
H     3.50130  -2.81061  -0.17234
H     2.92921  -2.78446   1.51176
H     2.19340  -3.91707   0.33960
H     0.62494  -2.22235  -0.02262
H    -4.67761  -0.81498   0.61001
H    -3.49189  -1.91924   1.39942
H    -3.83921  -2.08660  -0.35412
H    -2.00848   1.85575  -0.99992
H    -1.39106   2.89485   1.43161
H     1.34924   2.99452   1.46332
H     2.09632   2.01196  -0.95268
