66
Generated by autodE on: 2022-06-13. E = -1720.950957 Ha
C    -9.21182 -16.84459  14.23723
N    -8.46782 -17.60663  13.25420
C    -7.12601 -17.61078  13.16167
O    -6.40513 -16.91005  13.88140
C    -6.58390 -18.53736  12.07468
C    -6.80764 -20.04891  12.40433
C    -7.29251 -20.86718  11.20868
C    -6.40933 -20.84100   9.95415
C    -6.47699 -19.53257   9.13645
C    -5.18193 -18.64840   9.13756
C    -5.49275 -17.20898   8.66406
O    -4.79402 -16.52987   7.94705
O    -6.59252 -16.74557   9.25869
C    -6.84811 -15.33696   9.14660
C    -4.24380 -19.42897   8.21135
O    -3.64420 -20.41604   8.58310
O    -4.26499 -19.01581   6.95078
C    -3.47446 -19.76372   6.01167
C    -4.55234 -18.41898  10.50192
C    -5.15395 -18.28393  11.70028
C    -4.06939 -17.70899  12.63527
C    -4.19702 -17.95960  14.13954
C    -3.81062 -16.87948  15.10515
O    -4.46436 -19.09290  14.50054
C    -3.93752 -16.25384  12.06440
O    -4.30324 -15.21356  12.50133
O    -3.32454 -16.37710  10.88287
C    -3.11153 -17.89411  10.70921
C    -2.02698 -18.10319   9.69513
C    -1.25144 -19.27084   9.74453
C    -0.26713 -19.50229   8.78527
C    -0.04977 -18.57223   7.76241
C    -0.81837 -17.40750   7.71164
C    -1.80156 -17.16954   8.67702
N    -2.84504 -18.32113  12.05882
C    -1.58169 -17.87486  12.65057
H    -9.81736 -17.50956  14.87247
H    -8.50471 -16.29667  14.87047
H    -9.88450 -16.12174  13.74974
H    -8.98812 -18.20278  12.61741
H    -7.20325 -18.29279  11.20570
H    -5.86807 -20.45963  12.79958
H    -7.54913 -20.13527  13.21233
H    -7.39018 -21.91382  11.54146
H    -8.30996 -20.53495  10.93491
H    -6.73316 -21.66401   9.29953
H    -5.36856 -21.07076  10.22587
H    -6.67724 -19.76067   8.07897
H    -7.32486 -18.92027   9.45684
H    -6.94773 -15.04235   8.09291
H    -7.78653 -15.15980   9.68396
H    -6.02772 -14.77463   9.61659
H    -3.61968 -19.27337   5.04256
H    -3.81625 -20.80743   5.96857
H    -2.41489 -19.73104   6.30119
H    -2.70971 -16.80522  15.11763
H    -4.15630 -17.15065  16.11117
H    -4.20338 -15.90344  14.80259
H    -1.43442 -20.01082  10.52352
H     0.32915 -20.41615   8.83223
H     0.71788 -18.75666   7.00734
H    -0.65513 -16.67540   6.91770
H    -2.40067 -16.26274   8.63222
H    -1.45553 -16.77756  12.66849
H    -0.74719 -18.30717  12.08759
H    -1.51822 -18.25561  13.67798
