27
Generated by autodE on: 2022-06-13. E = -744.686011 Ha
C     4.31263   0.57991   0.44298
C     3.20283  -0.38265   0.08221
O     3.46642  -1.53598  -0.28885
C     1.85894   0.12166   0.18737
C     1.45164   1.43590   0.52208
O     1.99477   2.47484   0.84867
O     0.02054   1.40798   0.39543
C    -0.36565   0.18646   0.02794
C    -1.78406  -0.08580  -0.15902
C    -2.70771   0.59911   0.65539
C    -4.07387   0.38112   0.49344
C    -4.53261  -0.50778  -0.48515
C    -3.62005  -1.17343  -1.30955
C    -2.24985  -0.96632  -1.15430
N     0.68043  -0.61094  -0.09193
C     0.63229  -2.05247  -0.33818
H     4.19924   0.94466   1.47553
H     5.27533   0.06365   0.33348
H     4.28995   1.46594  -0.21053
H    -2.34520   1.28928   1.41845
H    -4.78495   0.90607   1.13464
H    -5.60453  -0.67596  -0.61073
H    -3.97673  -1.85166  -2.08737
H    -1.55042  -1.46150  -1.82753
H     0.90356  -2.27089  -1.37880
H     1.34804  -2.54196   0.32741
H    -0.37873  -2.41501  -0.12943
