21
Generated by autodE on: 2022-06-17. E = -611.810151 Ha
C     3.64591   1.03946   0.42501
C     2.44386   0.19658   0.25332
O     1.19135   0.81449   0.17201
C     0.27538  -0.09759   0.01988
C    -1.12868   0.21090  -0.09622
C    -1.56606   1.55015  -0.05201
C    -2.92408   1.83271  -0.16484
C    -3.84957   0.79303  -0.32111
C    -3.41553  -0.53716  -0.36512
C    -2.05993  -0.83479  -0.25378
O     0.77739  -1.28994  -0.01161
C     2.27845  -1.16939   0.14305
O     2.94650  -2.19200   0.13813
H     4.52681   0.38272   0.46208
H     3.61581   1.62423   1.36051
H     3.78179   1.74676  -0.41124
H    -0.84003   2.35514   0.07016
H    -3.26566   2.86913  -0.13085
H    -4.91409   1.02125  -0.40880
H    -4.13900  -1.34579  -0.48667
H    -1.71272  -1.86840  -0.28663
