33
Generated by autodE on: 2022-06-17. E = -769.103032 Ha. Imaginary frequency = -367.5 cm-1
C    -0.28881   1.95362  -1.72379
C    -0.91482   1.61630  -0.39606
C    -2.22728   1.18015  -0.31357
C    -3.09369   1.38882   0.88912
C    -1.72109  -1.29865  -0.42043
C    -2.68050  -1.99116  -1.30445
O    -0.47470  -0.97433  -0.88045
C     0.12718  -0.27643   0.09099
C     1.55687  -0.00366   0.03409
C     2.20552   0.54192   1.15613
C     3.56521   0.84323   1.09327
C     4.28625   0.60895  -0.08339
C     3.64057   0.06887  -1.20106
C     2.28061  -0.23582  -1.14908
O    -0.46326  -0.56386   1.26904
C    -1.70944  -1.17831   0.98811
O    -2.49451  -1.45397   1.88496
H     0.81004   1.95006  -1.68305
H    -0.60906   1.24632  -2.50484
H    -0.59650   2.96338  -2.04756
H    -0.50030   2.12118   0.48431
H    -2.74434   0.93761  -1.24767
H    -3.84332   0.59414   1.01383
H    -3.64573   2.34108   0.78470
H    -2.49781   1.45387   1.81243
H    -3.65808  -2.02974  -0.80348
H    -2.36577  -3.02708  -1.52157
H    -2.79484  -1.46064  -2.26189
H     1.63981   0.72802   2.07052
H     4.06594   1.26451   1.96776
H     5.35129   0.84712  -0.12896
H     4.20043  -0.11827  -2.12004
H     1.77591  -0.65972  -2.01827
