65
Generated by autodE on: 2022-10-23. E = -1925.700929 Ha
C     7.76068  -1.77967   8.79288
O     7.21553  -2.96603   8.19898
C     7.14296  -2.99461   6.87373
O     7.51537  -2.07158   6.17875
C     6.65457  -4.38545   6.32532
O     6.93353  -5.31989   7.35652
C     8.29396  -5.61602   7.63228
C     7.44242  -4.60198   5.00086
C     6.99476  -5.69659   4.03356
C     7.03440  -7.14624   4.51551
C     6.16816  -7.52605   5.72213
C     4.68520  -7.05874   5.75350
C     4.11146  -7.55226   7.12368
F     4.28113  -8.87268   7.29929
F     2.79460  -7.31321   7.26154
F     4.72122  -6.94113   8.14744
C     3.95484  -7.83881   4.62090
F     4.36488  -7.43227   3.41166
F     2.61329  -7.70704   4.64284
F     4.19693  -9.15681   4.68992
C     4.39844  -5.53882   5.69200
C     5.14420  -4.45911   6.03204
C     4.27616  -3.17746   6.03082
C     4.66408  -2.20444   4.90212
C     4.31552  -2.54093   7.42601
C     4.19120  -3.36389   8.55856
C     4.18488  -2.81947   9.84195
C     4.29701  -1.43568  10.01913
C     4.41557  -0.60813   8.90096
C     4.42626  -1.15787   7.61418
N     2.90871  -3.68384   5.73425
C     1.78534  -3.34798   6.58600
C     2.99366  -5.07646   5.32235
C     2.71283  -4.99790   3.80292
C     1.26866  -5.09068   3.39981
O     3.59823  -4.78184   2.99180
H     8.82185  -1.67826   8.52203
H     7.20794  -0.89226   8.45911
H     7.65340  -1.91007   9.87533
H     8.72001  -6.31541   6.89427
H     8.31058  -6.09410   8.62169
H     8.92686  -4.71463   7.67126
H     8.50463  -4.72883   5.26030
H     7.38036  -3.64639   4.46478
H     7.66563  -5.62468   3.16122
H     5.99342  -5.45815   3.65024
H     6.77734  -7.79048   3.66092
H     8.07000  -7.41027   4.78856
H     6.16166  -8.61988   5.80473
H     6.61902  -7.14688   6.63562
H     3.90840  -1.40882   4.83584
H     4.66363  -2.74910   3.94973
H     5.64578  -1.74313   5.04522
H     4.11446  -4.44485   8.43404
H     4.09539  -3.47783  10.70938
H     4.29517  -1.00714  11.02414
H     4.50782   0.47335   9.02615
H     4.52650  -0.49306   6.75673
H     1.77381  -3.88643   7.55398
H     1.77561  -2.26973   6.79534
H     0.84849  -3.58531   6.05882
H     2.20809  -5.66951   5.80452
H     0.91069  -6.11435   3.59593
H     1.15161  -4.85245   2.33448
H     0.65210  -4.41388   4.01082
