29
Generated by autodE on: 2022-10-26. E = -596.541952 Ha
C    -1.13602  -2.05227  -3.89685
C    -0.57987  -1.42027  -2.63148
O     0.67621  -1.33232  -2.50795
C    -1.52098  -0.99863  -1.67836
N    -1.15922  -0.45063  -0.44280
C    -1.89652  -0.99059   0.71282
C    -0.23602   0.49335  -0.30910
C     0.19237   1.28281  -1.48927
C     0.38367   0.75975   1.00392
C     0.88980  -0.29776   1.78504
C     1.51052  -0.04161   3.00765
C     1.63295   1.27142   3.47360
C     1.14046   2.32971   2.70241
C     0.53118   2.07924   1.47280
H    -0.67832  -3.04457  -4.04287
H    -0.84505  -1.43566  -4.76425
H    -2.23052  -2.15581  -3.89047
H    -2.56930  -1.28135  -1.76358
H    -2.94869  -1.09085   0.41369
H    -1.82851  -0.31393   1.57016
H    -1.51443  -1.98412   0.98194
H     0.60966   2.24952  -1.18178
H    -0.65653   1.42098  -2.18011
H     0.95711   0.72270  -2.05813
H     0.81582  -1.32311   1.41928
H     1.90654  -0.87205   3.59660
H     2.11696   1.47039   4.43254
H     1.23216   3.35771   3.06027
H     0.14631   2.91152   0.88031
