36
Generated by autodE on: 2022-10-23. E = -1329.087568 Ha
C    -4.97204   1.53600   2.37661
O    -4.13043   1.41268   1.21701
C    -2.92259   0.89666   1.40572
O    -2.48818   0.53019   2.47646
C    -2.10493   0.88480   0.10220
O    -2.90644   0.62705  -1.03029
C    -3.48477  -0.66911  -1.08587
C    -0.96467  -0.04321   0.18855
C     0.15427  -0.45558  -0.01170
C     1.55351  -0.45405  -0.42780
C     2.46810  -0.52824   0.81967
F     2.21523  -1.61287   1.56418
F     3.76355  -0.56235   0.47907
F     2.28660   0.54212   1.60519
C     1.82733  -1.65968  -1.36043
F     0.95075  -1.66582  -2.37474
F     1.70512  -2.83168  -0.72250
F     3.05670  -1.60986  -1.88803
C     1.80514   0.87628  -1.22210
C     1.08272   2.14196  -0.71972
C    -0.38481   2.37721  -1.17437
C    -1.48373   2.29714  -0.09711
H    -4.49959   2.19280   3.12073
H    -5.15417   0.54695   2.82021
H    -5.91140   1.97397   2.02141
H    -4.14357  -0.86107  -0.22099
H    -2.70964  -1.45405  -1.12651
H    -4.08430  -0.71035  -2.00504
H     2.89112   1.04740  -1.23351
H     1.50461   0.69041  -2.26288
H     1.68479   2.97931  -1.10368
H     1.15263   2.21097   0.37521
H    -0.64440   1.70557  -2.00843
H    -0.44175   3.39482  -1.58916
H    -1.09209   2.64097   0.87259
H    -2.32991   2.94901  -0.36126
