64
Generated by autodE on: 2022-12-31. E = -2232.766372 Ha
C    21.70271 -37.64547   9.89213
N    22.44583 -36.41350  10.08872
C    23.70191 -36.28388   9.65046
O    24.26899 -37.18811   9.02623
C    24.45528 -34.97554  10.04404
C    23.36503 -33.88703  10.20856
O    22.77700 -33.74215  11.29038
N    23.04060 -33.19934   9.11367
C    22.03216 -32.16064   9.13418
C    25.12019 -35.39246  11.41364
C    25.57305 -34.34909  12.43790
C    26.54302 -33.26644  11.97455
C    25.86397 -32.19799  11.09626
C    26.37279 -32.21645   9.67144
Cl   25.27275 -30.91863   8.72466
O    27.67519 -31.82488   9.53547
C    28.13818 -30.62564  10.14896
C    26.26242 -33.49448   8.87817
C    25.51097 -34.60654   8.99469
C    25.88483 -35.55807   7.84845
C    24.69709 -35.73130   6.88511
O    23.71958 -35.01009   6.94607
O    24.90218 -36.61279   5.93070
C    23.88016 -36.72634   4.92217
C    26.64969 -36.79034   8.37077
O    27.34240 -36.70804   9.36501
O    26.60959 -37.84550   7.57957
C    27.36775 -38.99199   8.00033
O    26.85316 -34.84987   7.06054
C    27.18448 -33.61635   7.65339
C    28.62216 -33.67398   8.00250
N    29.75035 -33.83262   8.21621
C    26.87894 -32.51715   6.59594
O    25.92825 -32.61303   5.85960
O    27.75791 -31.53475   6.61600
C    27.50646 -30.41637   5.74452
H    22.15180 -38.48047  10.45362
H    21.68568 -37.91815   8.82706
H    20.67371 -37.49401  10.23916
H    22.06238 -35.69826  10.70163
H    23.46880 -33.46261   8.22788
H    21.02664 -32.57699   9.31117
H    22.24585 -31.42991   9.92811
H    22.03882 -31.64387   8.16709
H    25.96771 -36.03391  11.14163
H    24.39522 -36.03765  11.92919
H    26.05174 -34.92776  13.24514
H    24.69238 -33.86668  12.88605
H    26.96260 -32.77255  12.86355
H    27.39944 -33.71661  11.44620
H    24.77685 -32.31002  11.10505
H    26.04568 -31.18970  11.48881
H    29.13131 -30.43922   9.72149
H    28.22597 -30.73827  11.23967
H    27.46961 -29.78608   9.90670
H    22.92874 -37.02597   5.38312
H    24.23150 -37.49822   4.22894
H    23.75570 -35.76645   4.40187
H    27.21842 -39.75012   7.22351
H    26.99278 -39.35571   8.96765
H    28.43310 -38.73677   8.08825
H    27.44656 -30.75427   4.70113
H    28.35254 -29.73480   5.88240
H    26.56676 -29.92742   6.03718
