38
Generated by autodE on: 2022-12-31. E = -1302.600399 Ha
C    -4.04982  -1.66506  -2.36425
N    -2.82868  -0.90200  -2.19683
C    -2.15126  -0.90544  -1.04365
O    -2.49525  -1.55556  -0.05285
C    -0.82901  -0.09527  -1.02377
C    -0.96800   1.24739  -1.78108
O    -1.25875   1.24714  -2.98531
N    -0.76034   2.37069  -1.08934
C    -0.84611   3.67858  -1.71266
C    -0.34381   0.06685   0.33953
C     0.41629   0.15939   1.27930
C     1.72326   0.05857   1.92333
Cl    1.70368  -1.61916   2.84613
O     2.05333   1.04726   2.81172
C     1.08811   1.36285   3.81094
C     2.80352  -0.02594   0.83763
C     2.53786  -0.98810  -0.33334
C     1.73058  -0.46659  -1.55554
C     0.27982  -0.95349  -1.74060
H    -3.87798  -2.73344  -2.16103
H    -4.39928  -1.55279  -3.39775
H    -4.84132  -1.31447  -1.68217
H    -2.48790  -0.28789  -2.93639
H    -0.48213   2.30143  -0.11510
H    -0.71072   4.44648  -0.94191
H    -1.82735   3.81927  -2.19043
H    -0.06932   3.80500  -2.48339
H     0.93506   0.50528   4.48499
H     0.12438   1.64358   3.35405
H     1.48843   2.21293   4.37735
H     3.73961  -0.29343   1.35005
H     2.92230   1.00392   0.46168
H     3.53074  -1.28152  -0.70565
H     2.08489  -1.91525   0.05375
H     1.76366   0.63550  -1.58767
H     2.26688  -0.79807  -2.45771
H     0.02296  -0.95610  -2.80902
H     0.18165  -1.98709  -1.37508
