26
Generated by autodE on: 2022-12-31. E = -930.037650 Ha
C     4.00360   1.68938  -0.22952
O     2.69937   1.08648  -0.17963
C     2.56427  -0.08663  -0.78623
O     3.44841  -0.68795  -1.36691
C     1.19230  -0.62558  -0.67953
C     0.88695  -1.82669  -1.36078
N     0.71579  -2.77925  -2.01011
O     0.32958   0.13157  -0.06473
C    -0.91597   0.11207   0.30133
C    -1.39087   1.37473   0.91291
O    -2.49154   1.51158   1.40982
O    -0.46627   2.33309   0.85014
C    -0.81741   3.59657   1.43528
C    -1.67366  -1.15691   0.29638
O    -1.10298  -2.23218   0.34155
O    -2.98696  -0.99479   0.27064
C    -3.78300  -2.19188   0.34550
H     4.74384   1.03586   0.25365
H     3.91529   2.63555   0.31563
H     4.29857   1.87360  -1.27235
H     0.05458   4.24442   1.29220
H    -1.69667   4.02094   0.92955
H    -1.03289   3.47584   2.50673
H    -3.57519  -2.72740   1.28265
H    -3.56362  -2.84543  -0.51064
H    -4.82560  -1.85754   0.31712
