23
Generated by autodE on: 2022-06-18. E = -351.521384 Ha
C     2.60924   1.93110  -1.93981
C     1.56087   1.10162  -1.74304
C     0.86391   0.43166  -2.89960
C     1.08190   0.83949  -0.38728
C     0.04383   0.03028  -0.05791
C    -0.39130  -0.19492   1.30542
C    -1.41470  -0.98567   1.71652
C    -1.74596  -1.11744   3.17621
C    -2.29319  -1.78453   0.79608
H     3.11292   2.41607  -1.09789
H     2.98808   2.14474  -2.94318
H     1.32166   0.71385  -3.85817
H    -0.20405   0.70445  -2.93197
H     0.90482  -0.66632  -2.80617
H     1.62184   1.35101   0.41868
H    -0.49900  -0.48322  -0.85607
H     0.17681   0.33786   2.07762
H    -1.07864  -0.51557   3.81041
H    -1.67818  -2.17190   3.49928
H    -2.78803  -0.80588   3.37081
H    -3.34977  -1.49058   0.92607
H    -2.24091  -2.85710   1.05403
H    -2.03627  -1.67556  -0.26540
