56
Generated by autodE on: 2022-06-10. E = -9032.047993 Ha
C     4.89880 -14.11385  -6.73053
O     4.92097 -13.22594  -5.59986
C     4.41400 -13.68399  -4.46620
O     3.96504 -14.80503  -4.33931
C     4.35400 -12.60149  -3.35543
C     5.75135 -11.95885  -3.12236
O     6.74191 -12.14267  -3.79263
O     5.70474 -11.14972  -2.07014
C     6.93164 -10.52339  -1.67180
C     3.80973 -13.21204  -2.05916
C     2.61524 -12.66621  -1.72943
C     1.82447 -12.90285  -0.46084
Br    2.34077 -11.44832   0.85876
Br   -0.13966 -12.70210  -0.74791
C     2.00592 -14.20202   0.32278
C     1.67109 -15.51443  -0.38131
C     2.58910 -15.89405  -1.54043
C     4.08031 -15.70088  -1.26230
C     4.66748 -14.28084  -1.42014
F     5.80286 -14.40681  -2.20417
Br    5.46565 -13.59121   0.31367
C     2.19527 -11.62024  -2.79155
C     1.98287 -10.22368  -2.18656
C     0.98581 -12.08689  -3.63289
C     0.95483 -13.38899  -4.15466
C    -0.09295 -13.81548  -4.97241
C    -1.13508 -12.94077  -5.29465
C    -1.10828 -11.63700  -4.79398
C    -0.05741 -11.21548  -3.97390
N     3.39895 -11.55561  -3.64203
C     3.31671 -10.94973  -4.95172
H     3.86305 -14.38855  -6.97504
H     5.48012 -15.02054  -6.51252
H     5.35297 -13.55695  -7.55746
H     7.69289 -11.28525  -1.45157
H     7.29683  -9.85621  -2.46564
H     6.69645  -9.94902  -0.76888
H     1.38149 -14.11067   1.22126
H     3.03936 -14.22696   0.68952
H     0.62347 -15.50853  -0.71967
H     1.74290 -16.29222   0.39670
H     2.43949 -16.96156  -1.76445
H     2.31569 -15.35865  -2.45678
H     4.34247 -16.10074  -0.27292
H     4.64970 -16.28637  -1.99677
H     1.09549 -10.17070  -1.54465
H     1.86567  -9.48662  -2.99261
H     2.86763  -9.94890  -1.60133
H     1.75502 -14.08873  -3.92361
H    -0.09348 -14.83798  -5.35795
H    -1.95798 -13.27140  -5.93290
H    -1.91208 -10.93853  -5.03972
H    -0.07203 -10.19527  -3.59290
H     2.84612 -11.59165  -5.72029
H     2.72989 -10.02267  -4.88428
H     4.32266 -10.67854  -5.30304
