36
Generated by autodE on: 2022-06-10. E = -899.796719 Ha
C     2.56444  -1.99065  -1.08528
O     1.30074  -1.34812  -1.21872
C     0.34854  -1.67618  -0.29156
O     0.53801  -2.60106   0.49983
C    -0.81133  -0.84397  -0.37398
C    -1.96393  -1.04016   0.44464
O    -2.19431  -1.97675   1.20996
O    -2.86103  -0.00960   0.31214
C    -4.07638  -0.12976   1.04813
N    -0.79064   0.27939  -1.27044
C    -1.69373   0.22788  -2.43135
C     0.10000   1.23230  -1.16526
C     0.28377   2.20781  -2.27673
C     0.93312   1.35119   0.04807
C     0.34142   1.35918   1.32405
C     1.13871   1.49363   2.45864
C     2.53026   1.59205   2.33492
C     3.12140   1.58294   1.06861
C     2.32562   1.48066  -0.07434
H     3.01926  -1.76837  -0.10742
H     2.47380  -3.08170  -1.19780
H     3.19812  -1.58739  -1.88526
H    -3.88308  -0.16565   2.13104
H    -4.63145  -1.03433   0.75573
H    -4.66839   0.76229   0.80734
H    -2.47603  -0.50727  -2.22613
H    -1.12594  -0.08682  -3.32010
H    -2.14747   1.20917  -2.61690
H     1.15428   2.84715  -2.09733
H    -0.60754   2.85437  -2.34826
H     0.39099   1.69255  -3.24360
H    -0.74197   1.28095   1.41875
H     0.67281   1.51712   3.44611
H     3.15262   1.68198   3.22816
H     4.20595   1.66114   0.96729
H     2.78783   1.47083  -1.06317
