36
Generated by autodE on: 2022-07-27. E = -899.796080 Ha
C     1.62846  -3.96274  -0.96394
O     1.14550  -2.64541  -0.71215
C     2.09644  -1.68073  -0.49748
O     3.29280  -1.97155  -0.48081
C     1.50980  -0.39425  -0.29441
C     2.26967   0.76897   0.04099
O     3.48757   0.83793   0.21037
O     1.48508   1.88756   0.16102
C     2.15106   3.09322   0.52739
N     0.08548  -0.25528  -0.43986
C    -0.41312  -0.26879  -1.82362
C    -0.67891  -0.03879   0.59914
C    -0.14075  -0.17503   1.97747
C    -2.07356   0.42090   0.43907
C    -2.34453   1.58612  -0.30029
C    -3.65340   2.05650  -0.40242
C    -4.69967   1.36133   0.21300
C    -4.43310   0.20275   0.95012
C    -3.12301  -0.25863   1.08053
H     2.19362  -4.35113  -0.10278
H     2.27630  -3.98781  -1.85373
H     0.74127  -4.58575  -1.13468
H     1.37280   3.86427   0.58976
H     2.65122   2.99126   1.50266
H     2.89905   3.38079  -0.22728
H    -1.48976  -0.46664  -1.85326
H    -0.19006   0.69504  -2.30127
H     0.12221  -1.06219  -2.35677
H     0.21648   0.81433   2.31176
H     0.70366  -0.87485   2.01650
H    -0.94200  -0.47898   2.66379
H    -1.52555   2.13294  -0.77006
H    -3.85708   2.97004  -0.96515
H    -5.72507   1.72696   0.12298
H    -5.24854  -0.34055   1.43221
H    -2.91317  -1.15880   1.66155
