20
Generated by autodE on: 2022-06-10. E = -8132.180050 Ha
F    -2.36144  -2.22485   0.76716
C    -1.51227  -1.86104  -0.24672
Br   -0.82455  -3.55943  -1.04558
C    -0.42087  -1.06053   0.27285
C     0.17552  -0.02743   0.48782
C     0.42586   1.38732   0.46193
Br    1.80267   1.75840  -0.93389
Br    1.12330   2.02433   2.20655
C    -0.89111   2.11108   0.12251
C    -1.67596   1.54383  -1.07952
C    -2.67024   0.37477  -0.83323
C    -2.26719  -1.04321  -1.29793
H    -1.51951   2.05999   1.02580
H    -0.65104   3.17109  -0.04448
H    -0.97927   1.28610  -1.89411
H    -2.26506   2.39169  -1.45897
H    -3.58716   0.61244  -1.39232
H    -2.97348   0.34401   0.22617
H    -3.16532  -1.62727  -1.55121
H    -1.64523  -0.98242  -2.20245
