56
Generated by autodE on: 2022-06-10. E = -9031.954551 Ha. Imaginary frequency = -245.3 cm-1
C     4.38784 -15.52233  -5.50061
O     4.04847 -14.43347  -4.63853
C     4.95268 -13.45744  -4.50310
O     6.03129 -13.48297  -5.06401
C     4.45687 -12.37699  -3.57684
C     5.48960 -11.34697  -3.28951
O     6.67112 -11.56927  -3.10866
O     4.98706 -10.09590  -3.29160
C     5.88576  -9.04678  -2.92179
C     3.94075 -13.61027  -1.92347
C     2.68932 -13.72407  -1.80027
C     1.61482 -14.48742  -1.21934
Br    0.24165 -13.23559  -0.40586
Br    0.67186 -15.50389  -2.70664
C     1.95855 -15.50007  -0.12242
C     2.80592 -16.71632  -0.52089
C     4.15126 -16.46940  -1.21546
C     5.02050 -15.40985  -0.51112
C     5.18266 -14.13332  -1.32815
F     6.14466 -14.34650  -2.28254
Br    5.93121 -12.71093  -0.07737
C     2.31234 -11.48757  -2.94182
C     2.80214 -10.85910  -1.67221
C     0.89015 -11.23284  -3.27285
C     0.11068 -12.20385  -3.92601
C    -1.24489 -11.98907  -4.16272
C    -1.84705 -10.79236  -3.76272
C    -1.08346  -9.81633  -3.11534
C     0.27008 -10.03759  -2.86144
N     3.15327 -11.90773  -3.89951
C     2.73252 -11.99724  -5.31391
H     5.28367 -16.03980  -5.12785
H     4.57073 -15.16603  -6.52512
H     3.52505 -16.19816  -5.48204
H     5.29937  -8.12078  -2.95190
H     6.72589  -8.98499  -3.62891
H     6.27835  -9.21177  -1.90741
H     1.01967 -15.86779   0.31551
H     2.46378 -14.91980   0.66609
H     2.20006 -17.38666  -1.14908
H     2.99271 -17.26132   0.41994
H     4.69640 -17.42495  -1.24026
H     3.99300 -16.19024  -2.26868
H     4.59687 -15.14984   0.46667
H     6.03860 -15.78031  -0.32377
H     2.06914 -11.01593  -0.87278
H     2.89850  -9.77482  -1.85141
H     3.77679 -11.22068  -1.34197
H     0.55786 -13.15409  -4.20715
H    -1.83586 -12.76594  -4.65281
H    -2.90978 -10.62222  -3.95058
H    -1.54454  -8.87723  -2.80145
H     0.84815  -9.26553  -2.35405
H     1.99725 -11.21400  -5.52252
H     2.31276 -12.97616  -5.56687
H     3.61557 -11.81347  -5.93804
