52
Generated by autodE on: 2022-06-07. E = -1409.276242 Ha
C    -3.91480  -2.37425   1.88612
N    -3.21458  -1.43873   1.02702
C    -1.90800  -1.56542   0.76502
O    -1.19517  -2.43667   1.27268
C    -1.28503  -0.51355  -0.20050
C    -2.13279  -0.42846  -1.49048
O    -3.35350  -0.20985  -1.43554
N    -1.45082  -0.56723  -2.62714
C    -2.05174  -0.41424  -3.93558
N     0.10067  -0.83847  -0.49252
C     1.00990  -0.18211   0.45343
C     1.25671  -1.10887   1.66741
O     1.02857  -0.83822   2.82723
O     1.78760  -2.26520   1.26985
C     1.97590  -3.27199   2.27402
C     2.36696   0.13817  -0.17552
C     3.46236   0.43762   0.64918
C     4.69085   0.80139   0.09463
C     4.84017   0.87360  -1.29459
C     3.75118   0.58138  -2.11980
C     2.52075   0.21720  -1.56344
C     0.24780   1.08614   0.92075
C     0.59340   2.39745   0.14951
C    -0.16411   3.50457   0.86046
C    -1.44776   3.33587   0.49073
C    -2.60505   4.00906   0.94689
N    -3.57656   4.54574   1.30119
C    -1.44248   2.11185  -0.43791
O    -0.16561   2.24262  -1.05945
C    -1.23871   0.88098   0.50070
H    -3.38998  -2.47871   2.84674
H    -4.92748  -1.99661   2.07454
H    -3.98926  -3.37535   1.42880
H    -3.73513  -0.81494   0.40882
H    -0.44195  -0.65643  -2.51818
H    -1.46439  -0.97419  -4.67488
H    -2.08777   0.64416  -4.24384
H    -3.07836  -0.80393  -3.92200
H     0.25069  -1.84666  -0.50059
H     1.00890  -3.53986   2.72309
H     2.40886  -4.13686   1.75857
H     2.66002  -2.91256   3.05583
H     3.35591   0.39601   1.73609
H     5.53453   1.02979   0.75016
H     5.80126   1.15661  -1.73030
H     3.85635   0.63779  -3.20599
H     1.66992   0.00116  -2.20813
H     0.38117   1.21465   1.99827
H     1.65150   2.57423  -0.05749
H     0.24805   4.20489   1.58569
H    -2.25474   2.05111  -1.16588
H    -1.94368   0.91490   1.33645
