38
Generated by autodE on: 2022-06-07. E = -1009.394989 Ha
C    -4.98929  -1.66540  -0.75363
N    -3.78333  -1.16685  -0.12806
C    -2.73183  -0.75039  -0.85260
O    -2.73602  -0.72578  -2.10093
C    -1.52611  -0.29969  -0.11681
N    -0.51661  -0.02386  -0.95598
C     0.78836   0.25013  -0.88115
C     1.37173   0.52652  -2.19966
O     0.71332   0.56136  -3.23405
O     2.69465   0.71564  -2.16583
C     3.33902   0.98709  -3.41694
C     1.57893   0.15435   0.35700
C     1.46690  -0.98556   1.17530
C     2.18627  -1.07544   2.36576
C     3.02474  -0.02705   2.76236
C     3.14690   1.10648   1.95357
C     2.43319   1.19721   0.75676
C    -1.52466  -0.09068   1.34502
O    -2.18910  -0.82491   2.10369
N    -0.84288   0.96883   1.82239
C    -0.62310   1.15029   3.24397
H    -5.38380  -0.93983  -1.48093
H    -5.74733  -1.83504   0.02100
H    -4.81364  -2.61494  -1.28772
H    -3.63592  -1.25421   0.87748
H    -0.86097  -0.08065  -1.93646
H     3.20968   0.14203  -4.10870
H     4.40101   1.12638  -3.18417
H     2.92741   1.89866  -3.87408
H     0.80568  -1.80302   0.87993
H     2.09001  -1.96672   2.98983
H     3.58067  -0.09450   3.70022
H     3.79805   1.92920   2.25766
H     2.52142   2.08819   0.13359
H    -0.29115   1.53250   1.18659
H    -0.16348   0.25319   3.68893
H     0.05247   2.00180   3.38806
H    -1.56746   1.35052   3.77329
