38
Generated by autodE on: 2022-07-27. E = -1009.385918 Ha
C    -3.18774  -3.22127   1.01245
N    -2.93917  -1.93991   0.39071
C    -1.69427  -1.41661   0.34137
O    -0.73305  -1.96404   0.92528
C    -1.51737  -0.19733  -0.45591
N    -0.25158   0.31748  -0.58656
C     0.79489   0.27573   0.22533
C     0.56332   0.03060   1.68022
O    -0.36009   0.52053   2.30106
O     1.54007  -0.68422   2.23332
C     1.42500  -0.93985   3.64066
C     2.11310   0.61750  -0.30049
C     3.10280   1.18750   0.53135
C     4.33521   1.56522   0.00514
C     4.61194   1.38334  -1.35544
C     3.64483   0.81190  -2.18755
C     2.41009   0.42458  -1.66759
C    -2.55063   0.37535  -1.31266
O    -3.65449  -0.17730  -1.51882
N    -2.26230   1.56605  -1.91900
C    -3.23794   2.20405  -2.78233
H    -2.75914  -3.25049   2.02520
H    -2.75069  -4.05995   0.44165
H    -4.27159  -3.37957   1.08478
H    -3.61146  -1.53260  -0.26359
H    -0.06455   0.76051  -1.49298
H     2.30540  -1.53312   3.91219
H     1.41165   0.00363   4.20479
H     0.50448  -1.50513   3.84543
H     2.89779   1.35206   1.58956
H     5.08564   2.01200   0.66109
H     5.58177   1.67811  -1.76228
H     3.85821   0.64858  -3.24622
H     1.68713  -0.06507  -2.32388
H    -1.56038   2.16963  -1.50481
H    -3.56091   1.51429  -3.57484
H    -2.77606   3.08397  -3.24777
H    -4.13634   2.52718  -2.22854
