67
Generated by autodE on: 2022-07-04. E = -2147.498838 Ha
C    -7.12475   1.51435   2.50000
N    -7.00637   2.82455   1.88726
C    -6.85032   3.91508   2.65339
O    -7.00956   3.93713   3.87014
C    -6.60805   5.26912   1.90299
C    -6.34382   5.14747   0.38487
O    -5.52954   4.32737  -0.05872
N    -7.00830   6.00321  -0.39197
C    -6.79762   6.05043  -1.82686
N    -7.84657   5.97694   2.12572
C    -7.59549   7.01662   2.84221
C    -8.77438   7.88270   3.14557
C    -9.51870   7.71815   4.32108
C   -10.67512   8.47328   4.52947
C   -11.10331   9.38840   3.56310
C   -10.38132   9.53041   2.37412
C    -9.22694   8.77470   2.16172
C    -6.12512   7.17617   3.14517
C    -5.50263   6.10030   2.55863
C    -4.03350   5.76822   2.29186
C    -3.78897   4.24856   1.88617
C    -2.71577   3.94268   0.88167
O    -4.32612   3.37242   2.53055
C    -3.13869   5.71788   3.54615
O    -1.94789   5.95384   3.53438
O    -3.79418   5.24415   4.59487
C    -3.03827   5.00981   5.79310
C    -3.45561   6.70934   1.19685
C    -3.86102   8.17869   1.22342
C    -3.43971   8.98386   2.45003
C    -4.00377   8.56431   3.81171
C    -5.53623   8.35950   3.94785
C    -6.20258   9.72345   3.55552
F    -5.41330  10.76729   3.85251
F    -7.36113   9.95642   4.18873
F    -6.43568   9.77574   2.23448
C    -5.80392   8.13901   5.46863
F    -7.05421   7.73315   5.72040
F    -4.98782   7.21751   5.98906
F    -5.60532   9.27448   6.16289
H    -6.17849   1.20792   2.97732
H    -7.38807   0.78036   1.72812
H    -7.91103   1.52293   3.26681
H    -6.60858   2.86875   0.95192
H    -7.71036   6.59577   0.04194
H    -7.06836   5.09361  -2.29976
H    -5.74258   6.26131  -2.05907
H    -7.42260   6.84654  -2.24790
H    -9.19796   6.99236   5.06805
H   -11.24788   8.33996   5.45020
H   -12.00590   9.98072   3.73093
H   -10.72064  10.22854   1.60536
H    -8.66516   8.88058   1.23187
H    -2.92165   4.39931  -0.09295
H    -1.75751   4.34516   1.24557
H    -2.63978   2.85317   0.77804
H    -3.76157   4.66467   6.53959
H    -2.27720   4.23775   5.61074
H    -2.55263   5.93636   6.12831
H    -3.76537   6.30407   0.22578
H    -2.36142   6.62889   1.24500
H    -4.94283   8.27239   1.05728
H    -3.38973   8.64647   0.34403
H    -2.34279   8.93979   2.54960
H    -3.68352  10.04080   2.26790
H    -3.71850   9.33272   4.54149
H    -3.51842   7.66316   4.17703
