67
Generated by autodE on: 2022-07-04. E = -2147.391182 Ha. Imaginary frequency = -213.8 cm-1
C    -6.93575   1.18560   1.93803
N    -6.99403   2.53728   1.42550
C    -7.38597   3.56018   2.20611
O    -7.90817   3.41221   3.31894
C    -7.21192   4.93798   1.63839
C    -6.61760   5.22524   0.30683
O    -5.92949   4.37022  -0.28499
N    -6.84321   6.43939  -0.23185
C    -6.20520   6.84212  -1.47069
N    -7.97624   5.84818   2.20385
C    -8.17417   6.80052   2.90444
C    -9.23020   7.72633   3.22967
C    -9.68474   7.86276   4.55176
C   -10.69200   8.78313   4.83679
C   -11.22207   9.58669   3.82140
C   -10.75856   9.45642   2.50709
C    -9.76999   8.52354   2.20180
C    -5.80189   7.11911   3.35421
C    -5.24209   6.10747   2.90551
C    -3.94469   5.55163   2.45264
C    -3.95075   4.00745   2.23611
C    -2.99851   3.43319   1.23251
O    -4.66166   3.31916   2.93829
C    -2.90720   5.67240   3.60645
O    -1.74359   5.96751   3.44131
O    -3.43481   5.35590   4.78043
C    -2.57483   5.43173   5.92874
C    -3.44912   6.35616   1.21703
C    -3.86402   7.83059   1.13376
C    -3.43281   8.82761   2.22316
C    -3.93855   8.70546   3.67237
C    -5.46234   8.45875   3.91596
C    -6.28322   9.62203   3.28573
F    -5.60680  10.78060   3.33158
F    -7.45062   9.84325   3.90818
F    -6.55997   9.37568   1.99507
C    -5.69786   8.45219   5.44812
F    -6.92548   8.02947   5.77747
F    -4.82936   7.63987   6.06657
F    -5.53955   9.68060   5.97180
H    -6.13642   1.07029   2.68994
H    -6.73869   0.49515   1.10785
H    -7.88969   0.90778   2.40868
H    -6.44258   2.79987   0.60629
H    -7.30815   7.15482   0.31645
H    -6.45176   6.14051  -2.28143
H    -5.10854   6.87991  -1.37375
H    -6.56980   7.83997  -1.74296
H    -9.24868   7.24947   5.33996
H   -11.05775   8.88249   5.86097
H   -11.99984  10.31726   4.05448
H   -11.17456  10.08120   1.71377
H    -9.40248   8.40959   1.18018
H    -3.34757   3.67749   0.21792
H    -1.99813   3.87584   1.35050
H    -2.95361   2.34322   1.35084
H    -3.20276   5.17920   6.79008
H    -1.74842   4.71334   5.83226
H    -2.17104   6.44829   6.03395
H    -3.83911   5.86455   0.31746
H    -2.35533   6.26570   1.18362
H    -4.94947   7.88782   0.99255
H    -3.43003   8.20597   0.19240
H    -2.33259   8.82257   2.29691
H    -3.70091   9.82869   1.85078
H    -3.65636   9.62664   4.20224
H    -3.41881   7.89752   4.19388
