44
Generated by autodE on: 2022-10-21. E = -1108.686898 Ha. Imaginary frequency = -261.7 cm-1
C     4.77422   2.17305   0.19167
N     3.52137   1.48671   0.43182
C     2.33203   2.06496   0.17780
O     2.18381   3.19981  -0.28997
C     1.18889   1.16388   0.43363
N     0.10262   1.32246   0.95701
C    -1.06359   0.82713   1.29003
C    -2.25311   1.08611   0.49872
C    -2.19785   1.82176  -0.70584
C    -3.34203   1.99156  -1.48305
C    -4.56473   1.44001  -1.07939
C    -4.63206   0.71754   0.11828
C    -3.49205   0.54292   0.90170
C    -0.02884  -1.58501   0.33402
O    -0.30726  -2.46274   1.34917
C    -1.64560  -2.50675   1.82287
C    -0.77674  -1.64306  -1.01899
C    -0.18059  -2.85015  -1.78376
C     1.05983  -2.46821  -2.11295
C     1.19921  -1.03719  -1.54271
O    -0.14375  -0.55601  -1.71185
C     1.23788  -1.16094  -0.00989
O     2.45216  -1.42132   0.56634
C     2.47383  -1.63300   1.97824
H     5.01336   2.22559  -0.88426
H     4.72438   3.20067   0.57860
H     5.58210   1.63795   0.70606
H     3.51758   0.48119   0.59962
H    -1.15326   0.40696   2.29435
H    -1.25013   2.26236  -1.02206
H    -3.28200   2.56362  -2.41230
H    -5.45904   1.57605  -1.69171
H    -5.58194   0.28645   0.44408
H    -3.54700  -0.02960   1.83012
H    -1.71940  -3.38272   2.48176
H    -1.89351  -1.60111   2.39888
H    -2.37231  -2.61566   1.00147
H    -1.86674  -1.53430  -1.00708
H    -0.67900  -3.80583  -1.94543
H     1.84864  -3.02525  -2.61756
H     1.94249  -0.37587  -2.00177
H     2.00381  -2.58844   2.24787
H     1.95575  -0.81223   2.50247
H     3.53078  -1.64398   2.27604
