18
Generated by autodE on: 2022-06-17. E = -235.968069 Ha
C     1.19268  -1.32842  -0.83589
C     0.65825  -0.12256  -0.10102
C     1.77129   0.77659   0.38092
C    -0.65824   0.12251   0.10111
C    -1.77127  -0.77660  -0.38090
C    -1.19270   1.32846   0.83583
H     0.41952  -2.01162  -1.20719
H     1.86910  -1.90775  -0.18194
H     1.80514  -1.01115  -1.69901
H     2.45112   0.22017   1.05106
H     1.43092   1.67091   0.91632
H     2.39165   1.10902  -0.47075
H    -2.45089  -0.22025  -1.05131
H    -1.43090  -1.67107  -0.91606
H    -2.39186  -1.10880   0.47069
H    -1.86766   1.90868   0.18113
H    -0.41950   2.01083   1.20856
H    -1.80671   1.01132   1.69788
