18
Generated by autodE on: 2022-06-17. E = -385.218325 Ha
C     3.19788   0.03496  -0.23608
C     1.77257   0.36173  -0.05521
O     0.91668  -0.58024  -0.19754
C    -0.45098  -0.59472  -0.09626
C    -1.03921  -1.94767  -0.34839
C    -1.15942   0.57794   0.21526
C    -2.67037   0.44527   0.30405
O    -0.61566   1.70260   0.41808
H     3.76153   0.28251   0.68179
H     3.63001   0.66020  -1.03846
H     3.33780  -1.02721  -0.48004
H     1.39521   1.35520   0.19252
H    -1.59190  -2.33803   0.52438
H    -0.23535  -2.66125  -0.57977
H    -1.74322  -1.94951  -1.19896
H    -3.10155   0.10818  -0.65298
H    -2.96695  -0.29264   1.06736
H    -3.09872   1.42280   0.56484
