36
Generated by autodE on: 2022-06-17. E = -621.195067 Ha. Imaginary frequency = -290.4 cm-1
C     2.61491   0.74416   1.27455
C     2.26736  -0.00815   0.00640
O     3.00155  -0.96888  -0.34642
C     1.12667   0.36027  -0.75018
C     0.91249  -0.05138  -2.16667
O     0.37501   1.37951  -0.24598
C    -0.86770   1.54567  -0.61451
C    -1.57199   2.72216  -0.05503
C    -1.78474  -0.42505   0.32008
C    -2.78633  -0.65965  -0.79135
C    -2.36854   0.22774   1.55929
C    -0.66656  -1.24188   0.46146
C    -0.35879  -2.38613  -0.46315
C     0.04096  -1.32116   1.78917
H     3.58869   1.23884   1.12065
H     2.74712   0.02647   2.09869
H     1.87702   1.50024   1.56500
H     0.95191   0.83605  -2.82746
H     1.71908  -0.73631  -2.45564
H    -0.04543  -0.55394  -2.36284
H    -1.16136   1.16044  -1.59184
H    -2.65921   2.59343  -0.14302
H    -1.30244   2.89110   0.99712
H    -1.30319   3.62764  -0.63095
H    -2.31404  -0.94188  -1.74197
H    -3.48648  -1.47071  -0.51696
H    -3.39536   0.24005  -0.97218
H    -2.79330  -0.54176   2.23052
H    -1.62461   0.78542   2.14512
H    -3.18371   0.91867   1.30453
H    -0.78444  -3.31544  -0.03713
H    -0.78119  -2.27312  -1.46826
H     0.72713  -2.54612  -0.55314
H    -0.55759  -1.93110   2.49351
H     0.17954  -0.34062   2.26295
H     1.02278  -1.80590   1.69386
