48
Generated by autodE on: 2022-05-31. E = -1280.674586 Ha
C     1.91307  -2.91824  -0.02982
C     2.55999  -1.62352   0.37370
O     3.76928  -1.50655   0.52373
C     1.64712  -0.47786   0.59798
C     1.92584   0.83973   0.66569
C     3.23224   1.55366   0.51760
F     3.03533   2.88741   0.46718
F     4.06677   1.31906   1.54376
F     3.88064   1.21708  -0.61252
C     0.57375   1.54310   0.69955
O    -0.22071   0.58668   1.40414
C     0.11980  -0.53888   0.58797
C    -0.29539  -0.07634  -0.84385
C     0.01830   1.44572  -0.75754
C    -1.32906   2.15104  -1.00762
C    -1.55169   3.43263  -0.21421
N    -2.34044   1.12655  -0.74144
C    -3.66958   1.46818  -1.20884
C    -1.81161  -0.17616  -1.19346
C    -1.94598  -0.35959  -2.72010
C    -2.46614  -1.33718  -0.44278
C    -2.29563  -2.65975  -0.88493
C    -2.80976  -3.73510  -0.15499
C    -3.51295  -3.50991   1.03240
C    -3.68879  -2.19859   1.48256
C    -3.16590  -1.12586   0.75428
H     1.24282  -2.76482  -0.89110
H     1.28129  -3.28258   0.79763
H     2.67860  -3.66712  -0.26885
H     0.54342   2.52778   1.17304
H    -0.34054  -1.45678   0.95963
H     0.29568  -0.61208  -1.59509
H     0.77408   1.78646  -1.47524
H    -1.34504   2.42841  -2.08472
H    -1.64037   3.22698   0.86345
H    -0.71185   4.12751  -0.37015
H    -2.46896   3.94587  -0.53895
H    -3.69848   1.76570  -2.27830
H    -4.07809   2.30617  -0.62378
H    -4.35069   0.61537  -1.07670
H    -1.39653  -1.24496  -3.06630
H    -2.99774  -0.47388  -3.01917
H    -1.52720   0.51037  -3.24811
H    -1.74103  -2.86318  -1.80200
H    -2.65862  -4.75496  -0.51758
H    -3.91811  -4.34961   1.60221
H    -4.23319  -2.00648   2.41075
H    -3.28530  -0.10667   1.11894
