27
Generated by autodE on: 2022-07-27. E = -483.120671 Ha
C     0.74782   4.01793  -0.78155
C     0.94449   2.56817  -1.06792
N     0.24364   1.59056  -0.47712
C    -0.73361   2.02207   0.54311
C     0.27340   0.27126  -0.87680
C     0.96982   0.00496  -2.17213
C    -0.09295  -0.81503   0.01277
C    -0.54313  -2.05886  -0.51488
C    -0.88146  -3.12895   0.30851
C    -0.79034  -3.02192   1.70384
C    -0.33234  -1.81759   2.24980
C     0.02052  -0.74526   1.43053
H     0.86299   4.27625   0.28694
H    -0.24925   4.39352  -1.08587
H     1.49556   4.59639  -1.34251
H     1.67709   2.26428  -1.81047
H    -0.22301   2.38945   1.44265
H    -1.33922   2.83588   0.12548
H    -1.39491   1.19402   0.80313
H     0.82432  -1.03142  -2.49934
H     2.06722   0.16791  -2.10821
H     0.61189   0.68112  -2.97305
H    -0.64931  -2.17329  -1.59557
H    -1.23318  -4.05986  -0.14520
H    -1.05960  -3.86202   2.34793
H    -0.22461  -1.71555   3.33348
H     0.42679   0.15248   1.89753
