48
Generated by autodE on: 2022-05-31. E = -1280.564079 Ha. Imaginary frequency = -89.2 cm-1
C     2.38533  -2.83653   0.83314
C     2.84914  -1.43499   1.11731
O     3.96754  -1.18849   1.55640
C     1.87949  -0.35633   0.84428
C     2.08662   0.97042   0.71383
C     3.35099   1.76031   0.78557
F     3.13784   3.03302   0.38899
F     3.85324   1.82088   2.03241
F     4.32013   1.26781  -0.00900
C     0.72856   1.55227   0.25749
O    -0.14818   0.68508   0.99135
C     0.38652  -0.54049   0.46035
C     0.27966  -0.27780  -1.05079
C     0.51107   1.05253  -1.18512
C    -1.87918   2.05990  -1.60571
C    -1.89646   3.44500  -1.05747
N    -2.49602   1.01985  -1.01792
C    -3.20793   1.31480   0.23731
C    -2.42569  -0.25937  -1.52179
C    -2.12738  -0.37024  -2.99061
C    -2.92419  -1.42260  -0.79204
C    -3.52609  -2.50144  -1.49490
C    -3.95845  -3.65650  -0.84500
C    -3.81542  -3.79571   0.54006
C    -3.22236  -2.75063   1.25776
C    -2.78263  -1.59592   0.61252
H     1.98463  -2.90713  -0.19135
H     1.55843  -3.09612   1.51532
H     3.21217  -3.54531   0.96845
H     0.54920   2.61000   0.47237
H    -0.11716  -1.42149   0.86722
H     0.29428  -1.06076  -1.80465
H     0.79830   1.61865  -2.06739
H    -1.54196   1.91550  -2.62437
H    -1.62386   3.49218   0.00948
H    -1.16949   4.05286  -1.61565
H    -2.88060   3.94381  -1.16047
H    -3.73897   2.26624   0.12488
H    -2.50569   1.38882   1.07563
H    -3.94536   0.53512   0.43846
H    -2.03382  -1.41905  -3.29389
H    -2.92086   0.09785  -3.60788
H    -1.18420   0.12099  -3.27042
H    -3.67628  -2.42456  -2.57234
H    -4.42352  -4.45460  -1.43005
H    -4.15426  -4.70088   1.04899
H    -3.08319  -2.83955   2.33860
H    -2.29205  -0.83019   1.20818
