20
Generated by autodE on: 2022-05-30. E = -586.070344 Ha
C     4.35306   0.14336  -0.14822
N     2.90714   0.22142  -0.13986
C     2.11288  -0.80886   0.19851
O     2.49811  -1.93421   0.53647
C     0.64708  -0.56190   0.15887
O     0.25803   0.60443  -0.18381
N    -0.94940   1.19453  -0.33375
C    -2.04611   0.38022  -0.06643
O    -2.02041  -0.81092   0.28584
N    -3.19541   1.08204  -0.24723
C    -4.51202   0.51507  -0.06675
H     4.78825   0.88925   0.53492
H     4.65652  -0.85816   0.17785
H     4.75040   0.32523  -1.15916
H     2.46491   1.09888  -0.39925
H    -0.05926  -1.34949   0.41265
H    -3.10984   2.04923  -0.54151
H    -5.09509   0.54496  -1.00196
H    -5.07975   1.05574   0.70816
H    -4.40770  -0.53116   0.24471
