20
Generated by autodE on: 2022-07-27. E = -586.081244 Ha
C    -2.27300  -1.91771   1.95222
N    -1.60998  -1.08668   0.96936
C    -2.28481  -0.57673  -0.07200
O    -3.49106  -0.75602  -0.29135
C    -1.52799   0.26390  -1.03420
O    -0.29772   0.58767  -1.00329
N     0.55888   0.18884  -0.03614
C     1.80944   0.73422  -0.33704
O     2.07028   1.45399  -1.30754
N     2.72611   0.37557   0.59454
C     4.11694   0.75320   0.46855
H    -1.53567  -2.25129   2.69157
H    -3.07244  -1.36126   2.46780
H    -2.73130  -2.79972   1.47721
H    -0.61391  -0.85275   1.03254
H    -2.06505   0.67775  -1.89104
H     2.44854  -0.27395   1.32255
H     4.61102   0.24570  -0.37822
H     4.64432   0.48268   1.39177
H     4.21582   1.83827   0.31282
