10
Generated by autodE on: 2022-05-30. E = -2878.922472 Ha
C    -4.26122   0.45155  -0.43645
O    -2.86656   0.54970  -0.09832
C    -2.05375  -0.33824  -0.67076
O    -2.40895  -1.20458  -1.44419
C    -0.67789  -0.14817  -0.25600
C     0.48960  -0.03848   0.05897
Br    2.20820   0.12557   0.52426
H    -4.76032   1.25224   0.12050
H    -4.40242   0.59152  -1.51777
H    -4.65825  -0.52895  -0.13717
