30
Generated by autodE on: 2022-05-30. E = -3465.004659 Ha. Imaginary frequency = -248.4 cm-1
C    -1.70586  -3.27463   1.43242
N    -1.02912  -2.46168   0.44177
C    -1.71347  -1.84163  -0.52621
O    -2.93979  -1.91482  -0.68347
C    -0.95845  -1.01538  -1.51887
O     0.31549  -0.88897  -1.65621
N     1.10534  -1.05961  -0.57727
C     2.41686  -0.69685  -0.94913
O     2.73671  -0.18027  -2.02008
N     3.28259  -0.97925   0.04880
C     4.65460  -0.51745   0.01067
C     0.04431   0.89258   0.48265
Br    1.38902   1.43756   1.55269
C    -1.07377   0.86144  -0.04122
C    -2.49085   1.11685  -0.24457
O    -3.32106   0.94774   0.62529
O    -2.76264   1.52970  -1.48199
C    -4.15228   1.73008  -1.79469
H    -0.95607  -3.72497   2.09337
H    -2.39805  -2.66580   2.03692
H    -2.28906  -4.07529   0.95262
H    -0.03270  -2.24543   0.51239
H    -1.50917  -0.71968  -2.41438
H     2.91431  -1.37806   0.90604
H     5.14562  -0.83522  -0.92107
H     5.19803  -0.94755   0.86071
H     4.71789   0.58274   0.07016
H    -4.58905   2.49620  -1.13894
H    -4.69881   0.78338  -1.67692
H    -4.17860   2.06031  -2.83896
