30
Generated by autodE on: 2022-05-28. E = -3245.383635 Ha
C     3.30833  -0.91952   1.71632
C     2.58116  -0.66518   0.43179
O     2.82059  -1.26357  -0.60052
C     1.49948   0.41436   0.42459
O     1.34567   1.00142   1.69943
C     0.13046   1.72621   1.68110
C    -0.87685   0.84973   0.88352
C    -1.78780   1.71059   0.14280
N    -2.52922   2.42664  -0.39109
C    -1.63662  -0.19771   1.76041
C    -2.64204  -0.96257   0.87783
C    -1.72548  -1.86794   0.00445
C    -0.30234  -1.50091   0.47440
C    -0.55123  -1.26638   1.98119
C     0.07801  -0.07896   0.00668
Br   -0.09810   0.15169  -1.94633
H     2.59797  -1.29630   2.47004
H     4.10599  -1.65497   1.55102
H     3.72207   0.01991   2.11434
H     1.82692   1.17908  -0.30353
H     0.27029   2.69808   1.17754
H    -0.19593   1.89440   2.71542
H    -2.06959   0.26621   2.65545
H    -3.27812  -0.29268   0.28215
H    -3.30643  -1.56234   1.51578
H    -1.86591  -1.71218  -1.07222
H    -1.90348  -2.93246   0.21183
H     0.45832  -2.24336   0.20784
H     0.32093  -0.91496   2.54158
H    -0.95400  -2.16579   2.46875
