12
Generated by autodE on: 2022-05-28. E = -306.527986 Ha
C    -1.57161   1.57758   0.02023
O    -1.53922   0.31258  -0.15506
C    -0.61740  -0.65929  -0.17760
C     0.78863  -0.54211   0.02434
C     1.42230   0.79968   0.31291
O     1.49451  -1.57127  -0.04000
H    -0.67367   2.16357   0.21572
H    -2.56795   2.01855  -0.04110
H    -1.06926  -1.62999  -0.37742
H     1.25657   1.50541  -0.51865
H     1.00042   1.25496   1.22458
H     2.50236   0.65542   0.44954
