17
Generated by autodE on: 2022-05-30. E = -509.671701 Ha
C     3.09162  -1.08437  -0.16650
N     1.66500  -0.89526  -0.01311
C     1.05195   0.28327  -0.21133
O     1.61682   1.33356  -0.54213
C    -0.42827   0.26059  -0.00184
N    -1.00735   1.43018  -0.20513
N    -1.48546   2.43446  -0.38171
C    -1.27779  -0.86914   0.38456
C    -2.75668  -0.62506   0.52567
O    -0.78433  -1.98050   0.58600
H     3.30657  -1.85133  -0.92731
H     3.55266  -1.40246   0.78224
H     3.54956  -0.13903  -0.48015
H     1.06492  -1.67614   0.25850
H    -3.17972  -0.24125  -0.41638
H    -3.25204  -1.56618   0.79433
H    -2.94951   0.12755   1.30727
