31
Generated by autodE on: 2022-05-29. E = -3491.043870 Ha
C    -3.26862  -1.47495  -0.50310
C    -2.45166  -0.31156  -0.02572
O    -2.76508   0.37575   0.92661
C    -1.22022   0.04700  -0.88250
N    -0.88466   1.46478  -0.87848
C    -1.93310   2.45128  -1.07605
C     0.18647   1.75826   0.03132
C     0.93432   2.96070  -0.40472
N     1.51300   3.89902  -0.76003
C    -0.23411   2.01647   1.44539
N    -0.59575   2.25295   2.52056
C     1.07246   0.46827  -0.01534
F     1.67833   0.30024   1.19814
C     2.12235   0.37786  -1.17469
C     2.94876  -0.86099  -0.86280
C     2.15615  -1.89613  -1.16434
C     0.85521  -1.28372  -1.65739
O     1.29928  -0.06039  -2.25780
C     0.08087  -0.67412  -0.43936
Br   -0.18050  -1.98568   0.99608
H    -2.64366  -2.27358  -0.92682
H    -3.91606  -1.10399  -1.31803
H    -3.90082  -1.85928   0.30772
H    -1.45960  -0.25233  -1.91516
H    -2.60429   2.09092  -1.86823
H    -2.53199   2.64092  -0.16916
H    -1.49024   3.40013  -1.41417
H     2.64969   1.30776  -1.40711
H     3.93821  -0.85863  -0.40832
H     2.34029  -2.96102  -1.03153
H     0.22574  -1.86756  -2.33662
