18
Generated by autodE on: 2022-05-29. E = -510.598412 Ha
C     3.55795   0.12759  -0.18028
C     2.28047  -0.65058  -0.36199
O     2.27615  -1.81204  -0.76432
C     1.07186   0.10717  -0.01990
N    -0.17422  -0.33168  -0.09122
C    -0.46691  -1.71439  -0.53325
C    -1.25233   0.46720   0.23802
C    -2.58105   0.00317   0.15808
N    -3.70295  -0.32027   0.11353
C    -1.04261   1.79527   0.66626
N    -0.87435   2.89433   1.02266
H     4.41627  -0.49625  -0.45960
H     3.53830   1.03903  -0.80020
H     3.65614   0.45417   0.86818
H     1.20277   1.13488   0.31937
H    -0.09679  -1.84484  -1.55542
H     0.05040  -2.41508   0.12945
H    -1.54537  -1.88348  -0.49678
