18
Generated by autodE on: 2022-07-26. E = -510.596785 Ha
C    -2.35067  -2.56729  -0.11309
C    -1.49481  -1.36069   0.15957
O    -1.44306  -0.82284   1.26384
C    -0.79911  -0.82043  -1.01379
N     0.03417   0.21012  -1.01660
C     0.26143   0.90876  -2.30308
C     0.73762   0.69532   0.06347
C     1.32701   1.97788  -0.00414
N     1.82299   3.03494  -0.01869
C     1.06593  -0.10616   1.17634
N     1.42921  -0.74267   2.08493
H    -1.71261  -3.40280  -0.44703
H    -2.89352  -2.85310   0.79671
H    -3.06284  -2.36064  -0.92803
H    -1.10025  -1.18200  -1.99590
H    -0.30445   0.40012  -3.08847
H     1.33399   0.90758  -2.53266
H    -0.09664   1.94231  -2.20632
