31
Generated by autodE on: 2022-05-29. E = -3490.958860 Ha. Imaginary frequency = -302.1 cm-1
C    -3.22132  -1.42000  -0.10609
C    -2.51057  -0.14365   0.25541
O    -2.69192   0.42346   1.32485
C    -1.68846   0.43577  -0.82372
N    -1.11751   1.65534  -0.80294
C    -1.00823   2.39055  -2.07907
C    -0.31246   2.10272   0.22461
C     0.50108   3.24921  -0.01415
N     1.22012   4.15202  -0.17407
C    -0.46324   1.82670   1.61569
N    -0.39320   1.71928   2.77362
C     1.20592   0.19414   0.05559
F     1.76657   0.28007   1.25909
C     2.03830   0.50118  -1.19433
C     2.94943  -0.73075  -1.38333
C     2.12566  -1.71618  -1.75762
C     0.71843  -1.08252  -1.79098
O     1.03578   0.25908  -2.19367
C     0.30954  -0.80036  -0.32253
Br   -0.05348  -2.23367   0.86777
H    -2.64380  -2.03901  -0.80562
H    -4.16625  -1.14454  -0.60733
H    -3.46244  -1.98462   0.80377
H    -1.96863   0.10270  -1.82415
H     0.03876   2.49715  -2.37972
H    -1.55273   1.83703  -2.84881
H    -1.46605   3.38105  -1.95197
H     2.48711   1.49635  -1.27451
H     4.01994  -0.75271  -1.18403
H     2.34461  -2.76418  -1.95766
H    -0.03636  -1.54029  -2.43752
