23
Generated by autodE on: 2022-05-30. E = -1270.739605 Ha
C     1.45714   1.07379  -3.51071
C     1.49741   0.07418  -2.35170
C     1.06894   0.61406  -1.06649
C     0.54249   0.70885   0.02369
C    -0.27885   0.21220   1.10076
Cl   -1.95727   0.94894   0.97628
Cl    0.38949   0.66587   2.73957
C    -0.37774  -1.31916   0.99630
C    -0.74379  -1.86794  -0.39769
C     0.40035  -2.13376  -1.41844
C     0.57892  -1.15564  -2.59944
H     2.14047   1.91774  -3.33285
H     1.75882   0.57682  -4.44528
H     0.44023   1.47425  -3.64573
H     2.53352  -0.28934  -2.23073
H    -1.11552  -1.64703   1.74364
H     0.60125  -1.71626   1.30772
H    -1.51777  -1.22695  -0.85118
H    -1.23935  -2.83188  -0.20659
H     1.35953  -2.24778  -0.88387
H     0.19829  -3.11934  -1.86568
H    -0.41035  -0.78708  -2.92096
H     1.00496  -1.69929  -3.45834
