41
Generated by autodE on: 2022-05-30. E = -1855.666428 Ha. Imaginary frequency = -415.5 cm-1
C    -3.25756   2.77951   0.32728
N    -2.16858   1.91905   0.75285
C    -0.90172   2.35616   0.73010
O    -0.56516   3.51919   0.53221
C     0.16918   1.31615   1.01326
O     1.44182   1.73805   0.71560
C     2.27967   0.84260   1.37731
O     3.47350   0.81042   1.19519
N     1.49631   0.06577   2.21071
C     1.07699  -1.11995   0.33048
C     0.22623  -0.36124  -0.21062
C    -0.54504  -0.33976  -1.46805
Cl   -0.53441   1.36077  -2.16376
Cl   -2.29892  -0.77224  -1.10496
C    -0.01563  -1.26230  -2.57385
C    -0.22913  -2.77420  -2.42827
C     0.27136  -3.47985  -1.16230
C     1.73988  -3.19846  -0.78573
C     1.89856  -2.32773   0.48741
C     1.53756  -3.10592   1.76201
N     0.27782   0.64044   2.19446
C    -0.79935  -0.06337   2.86246
H    -4.21038   2.29422   0.57139
H    -3.20330   3.74696   0.84408
H    -3.21371   2.96010  -0.76021
H    -2.33450   0.91656   0.73057
H    -0.49525  -0.94700  -3.51133
H     1.05457  -1.02242  -2.66686
H     0.27159  -3.22018  -3.30421
H    -1.30208  -2.99064  -2.54910
H    -0.38882  -3.22190  -0.31861
H     0.12986  -4.56045  -1.31920
H     2.26150  -2.70736  -1.62215
H     2.27875  -4.13970  -0.59711
H     2.95136  -2.00735   0.56513
H     2.19038  -3.98736   1.85071
H     0.49278  -3.45079   1.73364
H     1.66722  -2.47765   2.65250
H    -0.42887  -0.40150   3.83643
H    -1.10618  -0.93340   2.25885
H    -1.64851   0.61263   3.00598
