26
Generated by autodE on: 2022-05-25. E = -851.980359 Ha
C     1.57116  -2.50446  -2.65344
O     1.09323  -1.85086  -1.46286
C     0.44064  -0.70916  -1.63630
O     0.25130  -0.16913  -2.70342
C    -0.02613  -0.13670  -0.33559
C    -1.27914  -0.40811   0.29300
C    -2.30710  -1.36128  -0.20887
C    -3.56306  -1.52542   0.58785
O    -2.07530  -1.96406  -1.24558
N    -1.42848   0.29480   1.40657
N    -0.29637   1.02175   1.51948
C    -0.15478   1.85015   2.57541
N    -0.13675   2.52792   3.51768
C     0.59612   0.78992   0.47394
C     1.91143   1.47270   0.41223
C     2.80678   1.14083  -0.74035
O     2.20435   2.26365   1.29490
H     2.26698  -1.84678  -3.19291
H     0.72384  -2.76436  -3.30347
H     2.08490  -3.40969  -2.31199
H    -3.31674  -1.85791   1.60887
H    -4.07499  -0.55444   0.68211
H    -4.22057  -2.25509   0.09961
H     3.01306   0.05865  -0.75649
H     2.30583   1.39467  -1.68787
H     3.74521   1.70111  -0.65012
