11
Generated by autodE on: 2022-05-25. E = -393.762421 Ha
C    -3.14052  -0.05074  -0.14987
C    -1.90327   0.75235   0.08239
O    -1.85066   1.93678   0.34820
C    -0.64330   0.00639  -0.02987
N     0.38401  -0.53771  -0.10272
N     1.41081  -1.27069  -0.21675
C     2.60195  -0.70957  -0.04174
N     3.70666  -0.34643   0.08650
H    -4.02202   0.59121  -0.02383
H    -3.11743  -0.47625  -1.16685
H    -3.17218  -0.89505   0.55846
