15
Generated by autodE on: 2022-05-25. E = -458.066919 Ha
C    -3.52900  -0.74994   0.85788
O    -2.15701  -0.31232   0.85898
C    -1.46784  -0.52282  -0.25786
O    -1.90176  -1.04691  -1.26260
C    -0.10164  -0.04656  -0.14194
C     1.05383   0.32830  -0.10805
C     2.44030   0.78544  -0.05991
C     3.44258  -0.20952   0.43879
O     2.71429   1.92016  -0.41474
H    -3.58116  -1.83509   0.69098
H    -3.92306  -0.49484   1.84766
H    -4.09356  -0.22721   0.07291
H     3.41744  -1.10954  -0.19754
H     3.17132  -0.52724   1.45909
H     4.44589   0.23627   0.43132
