23
Generated by autodE on: 2022-06-02. E = -1270.739135 Ha
C     1.13954  -3.53066  -0.59087
C    -0.16409  -2.72416  -0.68025
C    -0.19690  -1.62905   0.28246
C    -0.12845  -0.51273   0.75586
C     0.00159   0.92059   0.65323
Cl   -1.66003   1.69322   0.78654
Cl    1.02848   1.61392   1.99567
C     0.62911   1.27745  -0.70486
C    -0.01175   0.59737  -1.93168
C     0.51233  -0.80256  -2.36248
C    -0.36239  -2.04134  -2.06722
H     2.01514  -2.89213  -0.78357
H     1.12773  -4.33916  -1.33752
H     1.25809  -3.98147   0.40586
H    -1.00997  -3.41015  -0.51012
H     1.69299   1.00041  -0.63911
H     0.58261   2.37204  -0.80403
H     0.17126   1.28533  -2.77106
H    -1.10699   0.57432  -1.80683
H     0.63268  -0.76987  -3.45636
H     1.53011  -0.95611  -1.96512
H    -0.16484  -2.81268  -2.82954
H    -1.42371  -1.76254  -2.17106
