25
Generated by autodE on: 2022-07-27. E = -701.690358 Ha
C     3.58715   0.66425  -1.51565
N     2.32646   0.39685  -0.85492
C     2.27982   0.00108   0.43552
O     3.29698  -0.16108   1.13113
C     0.94627  -0.23623   1.00330
C     0.81282  -0.66777   2.33506
N     0.77284  -1.03141   3.44598
O    -0.07299  -0.04254   0.16386
C    -1.35421  -0.09902   0.20932
C    -2.07014  -0.44366   1.45378
C    -1.93750   0.23665  -1.12772
O    -1.20762   0.59143  -2.06228
N    -3.27260   0.12818  -1.24389
C    -3.93558   0.41728  -2.50029
H     4.13837   1.48073  -1.02130
H     3.38625   0.95566  -2.55375
H     4.23739  -0.22537  -1.51906
H     1.45808   0.51668  -1.36634
H    -1.83032  -1.47537   1.76447
H    -3.15594  -0.35343   1.34731
H    -1.74747   0.22761   2.26758
H    -3.83052  -0.20783  -0.46723
H    -3.58982  -0.25967  -3.29803
H    -5.01615   0.29008  -2.36734
H    -3.73209   1.45026  -2.82263
