48
Generated by autodE on: 2022-06-02. E = -1972.429648 Ha. Imaginary frequency = -136.1 cm-1
C    -3.07624  -1.68874  -3.56632
N    -2.37689  -1.93394  -2.32080
C    -1.16149  -1.40847  -2.09764
O    -0.49549  -0.83726  -2.96761
C    -0.60957  -1.58857  -0.70925
C    -1.38459  -2.08512   0.45385
O     0.67705  -1.56465  -0.75596
C     1.65937  -1.55312   0.14229
C     1.52759  -2.04236   1.45987
N     1.47860  -2.42662   2.56166
C     3.00849  -1.38942  -0.43795
O     4.02206  -1.60990   0.24335
N     3.05552  -0.98575  -1.72267
C     4.31778  -0.76044  -2.39668
C     0.68302   0.94236   0.75665
C    -0.43204   0.87047   0.23653
C    -1.72380   1.54537   0.31128
Cl   -1.47126   3.31092  -0.17911
Cl   -3.00018   0.90117  -0.82961
C    -2.29646   1.50905   1.73723
C    -1.33093   1.96009   2.84843
C    -0.34142   0.88181   3.36230
C     1.15940   1.14732   3.17223
C     1.62206   1.51448   1.73433
C     3.11530   1.28098   1.52645
H    -4.00200  -2.27606  -3.57749
H    -3.32732  -0.61979  -3.67586
H    -2.45438  -1.98228  -4.42444
H    -2.89893  -2.33251  -1.54806
H    -0.94885  -1.76409   1.40552
H    -2.41765  -1.71942   0.40594
H    -1.40271  -3.19117   0.43728
H     2.18467  -0.81123  -2.21436
H     4.94543  -1.66523  -2.38266
H     4.88884   0.05395  -1.92137
H     4.11695  -0.48699  -3.43953
H    -2.62111   0.47315   1.92288
H    -3.19974   2.13648   1.73141
H    -1.96431   2.28809   3.68628
H    -0.79673   2.86507   2.51751
H    -0.50470   0.73471   4.44177
H    -0.58842  -0.08573   2.89876
H     1.48808   1.96862   3.83062
H     1.70536   0.24684   3.49473
H     1.43670   2.59704   1.59393
H     3.68198   1.90711   2.23254
H     3.42447   1.54887   0.50531
H     3.38845   0.23418   1.70718
