26
Generated by autodE on: 2022-10-06. E = -726.990826 Ha
C    -1.69838   2.48891  -0.18438
C    -0.87500   1.31174   0.30571
O     0.45269   1.75024   0.64542
C     1.46442   0.93699   0.00711
C     2.00893   1.69428  -1.20845
C     2.57699   0.70572   1.02527
C     0.71700  -0.35122  -0.43638
C     0.76892  -1.45240   0.64126
O     1.63472  -2.35544   0.48646
O    -0.01642  -1.36025   1.62655
C    -0.69670   0.18091  -0.71515
C    -1.80513  -0.88608  -0.74341
O    -1.50855  -1.99572  -1.26288
O    -2.94129  -0.56843  -0.29494
H    -1.74983   3.28170   0.57914
H    -2.72252   2.15317  -0.40557
H    -1.26113   2.91602  -1.10167
H    -1.33772   0.90017   1.21777
H     2.85324   1.15209  -1.66200
H     2.36186   2.69154  -0.90140
H     1.23213   1.82793  -1.97640
H     3.07397   1.65716   1.27208
H     3.33041   0.01089   0.62708
H     2.16381   0.28159   1.95137
H     1.18744  -0.75729  -1.34094
H    -0.69749   0.62707  -1.72601
