16
Generated by autodE on: 2022-10-06. E = -271.805674 Ha
C     2.64805   0.04124   0.27541
C     1.23011   0.34479   0.62223
O     0.32110  -0.29094  -0.13369
C    -0.95671  -0.06342  -0.25221
C    -1.73631  -1.06487  -1.02774
C    -1.54317   1.03135   0.54399
H     2.79911  -1.03986   0.11189
H     3.01493   0.55844  -0.63947
H     3.31330   0.34851   1.09865
H     0.93748   1.32601   1.00619
H    -2.38517  -1.68207  -0.37381
H    -2.40513  -0.57768  -1.75882
H    -1.05911  -1.74137  -1.56946
H    -1.07769   2.00948   0.30510
H    -2.62751   1.10416   0.38860
H    -1.34091   0.86782   1.62658
