16
Generated by autodE on: 2022-10-13. E = -271.801369 Ha
C    -0.91852   0.24655  -2.01972
C    -1.36175   0.57516  -0.62916
O    -0.72834   0.00372   0.42694
C     0.52957  -0.25622   0.61398
C     1.56020   0.33463  -0.27346
C     0.86867  -0.85879   1.93419
H    -0.70916  -0.84113  -2.13205
H    -1.74020   0.49554  -2.70910
H    -0.01872   0.77203  -2.38417
H    -2.43757   0.52199  -0.43420
H     2.55063   0.25305   0.19531
H     1.31221   1.40778  -0.42092
H     1.62028  -0.10614  -1.28226
H     1.49963  -1.75641   1.81191
H     1.44741  -0.15353   2.56207
H    -0.04442  -1.14481   2.47505
