26
Generated by autodE on: 2022-10-06. E = -726.854833 Ha. Imaginary frequency = -41.7 cm-1
C    -0.86919   2.80606  -1.24750
C    -0.99928   2.42499   0.19145
O    -0.07562   1.70097   0.83526
C     1.18987   1.45914   0.69947
C     2.03522   2.17373  -0.29654
C     1.78864   0.64165   1.79417
C    -0.52254  -0.88061  -1.47772
C     0.90803  -1.21232  -1.13206
O     1.79090  -0.73163  -1.90166
O     1.13557  -1.93321  -0.11983
C    -1.59350  -1.06234  -0.68690
C    -1.63348  -1.64633   0.71272
O    -1.83253  -2.88275   0.81066
O    -1.55215  -0.82471   1.66652
H    -0.05240   3.51276  -1.46919
H    -1.80945   3.29115  -1.55345
H    -0.72483   1.92976  -1.91342
H    -1.98481   2.14369   0.57250
H     3.07056   1.81485  -0.21947
H     2.03473   3.26378  -0.09408
H     1.70553   2.03082  -1.33551
H     2.39331   1.25903   2.48917
H     2.45817  -0.13075   1.38195
H     0.99696   0.13835   2.36607
H    -0.65903  -0.41549  -2.46029
H    -2.57475  -0.74124  -1.06253
