26
Generated by autodE on: 2022-05-26. E = -1451.726996 Ha
C     4.43750  -0.51555   0.77960
O     3.17678   0.08580   0.41585
C     2.21893  -0.73314   0.03503
O     2.28538  -1.93787  -0.04454
C     0.94375  -0.00716  -0.32417
O     0.96229   1.42349  -0.14633
N    -0.31669   1.70489  -0.69093
O    -0.20799   1.06871  -1.99769
C     0.56445  -0.05305  -1.82013
O     0.88727  -0.79430  -2.69445
C    -1.19821   0.83384   0.17159
Cl   -1.62982   1.83421   1.56806
C    -2.40067   0.11928  -0.51147
C    -3.14736  -0.59593   0.61147
C    -2.38206  -1.64047   0.95017
C    -1.17337  -1.57905   0.02743
O    -1.71985  -0.97341  -1.15151
C    -0.29261  -0.40095   0.51539
F     0.06223  -0.50380   1.82790
H     5.08882   0.31523   1.07051
H     4.85674  -1.05371  -0.08157
H     4.29299  -1.20799   1.62013
H    -2.96486   0.72953  -1.22307
H    -4.07412  -0.24653   1.06324
H    -2.52536  -2.36681   1.74853
H    -0.62759  -2.49999  -0.19970
