48
Generated by autodE on: 2022-06-04. E = -1852.750089 Ha
C     2.00608  -1.68485  -3.73228
N     1.42281  -0.84600  -2.70012
C     2.10975   0.15859  -2.14146
O     3.26116   0.43356  -2.49659
C     1.31849   1.02417  -1.10809
C     2.20566   1.81570  -0.10276
O     1.74626   2.08875   1.01228
N     3.40113   2.22624  -0.52747
C     4.28359   2.99724   0.32640
C     0.54910   2.03618  -2.01117
C    -0.10457   3.24917  -1.35614
C    -1.16454   2.93808  -0.30028
C    -2.16373   1.85130  -0.72884
C    -2.06338   0.57139   0.06828
F    -3.02920  -0.30250  -0.37690
Cl   -2.48984   0.95568   1.82157
C    -0.76292  -0.17344   0.11901
C     0.49760   0.07620  -0.27379
N     1.34555  -1.03777   0.27494
O     1.36765  -0.80142   1.76112
C     0.11636  -1.12452   2.19738
O    -0.21688  -1.10128   3.34475
C    -0.64172  -1.50824   0.90209
C    -1.84336  -2.43575   1.03401
O    -2.64017  -2.30461   1.95763
N    -1.92090  -3.37224   0.08146
C    -3.02014  -4.31975   0.04702
O     0.46507  -2.12203   0.21849
H     2.26822  -1.09242  -4.62268
H     1.27508  -2.45124  -4.01562
H     2.91948  -2.17856  -3.36692
H     0.46904  -1.02900  -2.40383
H     3.73041   1.81393  -1.40451
H     3.77780   3.90356   0.69153
H     4.61058   2.41558   1.20411
H     5.16774   3.29244  -0.25175
H    -0.19065   1.46075  -2.58570
H     1.28643   2.40107  -2.74052
H     0.66483   3.90076  -0.91323
H    -0.56259   3.82855  -2.17521
H    -1.71203   3.86158  -0.06299
H    -0.66744   2.63714   0.63170
H    -3.20311   2.18723  -0.61236
H    -2.04433   1.57044  -1.78614
H    -1.22092  -3.39169  -0.65401
H    -2.84725  -5.03168  -0.76824
H    -3.97958  -3.80570  -0.12257
H    -3.08975  -4.87112   0.99669
