14
Generated by autodE on: 2022-06-04. E = -565.378836 Ha
C     3.49176   0.52841   0.11777
N     2.06080   0.72246   0.25691
C     1.18948  -0.20519  -0.17149
O     1.51069  -1.25969  -0.72841
C    -0.24189   0.07594   0.04503
O    -0.67265   1.17640   0.66966
N    -1.97653   1.23188   0.77470
O    -2.43647   0.14581   0.20615
C    -1.37253  -0.69935  -0.31543
O    -1.61687  -1.73711  -0.86846
H     4.00214   1.45989   0.38916
H     3.85408  -0.28056   0.77294
H     3.74859   0.26764  -0.91952
H     1.71736   1.55321   0.72955
