16
Generated by autodE on: 2022-06-05. E = -2920.439890 Ha
C    -2.35043  -0.63851  -0.84401
C    -0.86853  -0.65197  -0.82502
C     0.03416  -0.21184   0.05990
Br   -0.23434   0.65426   1.70610
C     1.42101  -0.36499  -0.60723
C     1.47453   0.65935  -1.76686
C     0.59002   0.20547  -2.65982
C     0.01615  -1.08420  -2.02836
O     1.18562  -1.57745  -1.34188
H    -2.75585  -1.64764  -1.02850
H    -2.76457  -0.25781   0.10060
H    -2.71300   0.00323  -1.66697
H     2.28962  -0.43542   0.05616
H     2.07579   1.56779  -1.77512
H     0.26550   0.64027  -3.60457
H    -0.41635  -1.83201  -2.70265
