36
Generated by autodE on: 2022-06-05. E = -804.657146 Ha
C     3.55461  -1.61173   0.76037
N     2.84978  -0.35162   0.61567
C     1.79007  -0.06544   1.36934
O     1.36472  -0.73022   2.32121
C     1.10471   1.26792   1.14387
C     1.53934   2.40526   1.99926
N     0.05926   1.31977   0.37555
C    -0.81817   2.49990   0.37308
C    -0.16470   0.32871  -0.64460
C     0.84054   0.22650  -1.62074
C     0.68733  -0.75627  -2.76580
O     1.92205   0.90631  -1.58884
C    -1.47177  -0.33763  -0.57251
C    -2.26353  -0.63108  -1.70407
C    -3.50016  -1.26608  -1.57263
C    -3.99786  -1.60373  -0.30956
C    -3.23872  -1.29751   0.82528
C    -1.99506  -0.67891   0.69625
H     3.79122  -1.79519   1.81771
H     2.95381  -2.45975   0.39063
H     4.49002  -1.56729   0.18855
H     2.87149   0.15374  -0.28659
H     1.49682   3.35640   1.44916
H     0.86935   2.48954   2.87294
H     2.56009   2.23752   2.36505
H    -1.76788   2.22077  -0.09426
H    -0.34613   3.29815  -0.21951
H    -0.99956   2.85406   1.39516
H     0.02030  -1.59736  -2.53783
H     1.68816  -1.14129  -3.01212
H     0.30132  -0.24522  -3.66365
H    -1.92089  -0.33594  -2.69578
H    -4.08978  -1.48151  -2.46752
H    -4.96948  -2.09322  -0.21027
H    -3.61265  -1.55327   1.82007
H    -1.39868  -0.47536   1.58853
