36
Generated by autodE on: 2022-07-27. E = -804.655460 Ha
C    -4.01606   2.63629  -1.33704
N    -2.94232   1.66987  -1.19399
C    -2.83044   0.89433  -0.10623
O    -3.63053   0.89156   0.83330
C    -1.66951  -0.06923  -0.12390
C    -2.00362  -1.50430  -0.22046
N    -0.43987   0.38048  -0.03091
C    -0.17850   1.79915   0.27915
C     0.67491  -0.42749  -0.37764
C     0.61930  -1.05200  -1.65430
C     1.73747  -1.98457  -2.08829
O    -0.33186  -0.87826  -2.46508
C     1.77531  -0.45948   0.59440
C     1.47936  -0.46879   1.97757
C     2.49125  -0.48805   2.93765
C     3.83515  -0.51040   2.54895
C     4.14852  -0.49305   1.18552
C     3.13803  -0.45448   0.22330
H    -3.99995   3.03554  -2.35798
H    -4.99027   2.15982  -1.15237
H    -3.90112   3.46987  -0.62530
H    -2.23098   1.59890  -1.91656
H    -1.20403  -2.11762   0.22264
H    -2.96834  -1.69015   0.27197
H    -2.08134  -1.79067  -1.28477
H    -0.96887   2.20622   0.92117
H    -0.10961   2.37077  -0.65669
H     0.77812   1.86790   0.80637
H     1.29036  -2.76135  -2.72618
H     2.47790  -1.44348  -2.70027
H     2.26680  -2.45894  -1.25184
H     0.43471  -0.47001   2.29833
H     2.22758  -0.49690   3.99842
H     4.62885  -0.53252   3.29932
H     5.19362  -0.48964   0.86521
H     3.41097  -0.39307  -0.83007
