29
Generated by autodE on: 2022-05-28. E = -1569.952629 Ha
C     2.52866  -2.10485  -1.35278
C     2.08237  -1.46787  -0.08126
O     2.24415  -1.94505   1.02047
C     1.37186  -0.07455  -0.16539
C     2.18689   0.82258   0.66945
N     2.89840   1.53072   1.24973
N     1.37542   0.51240  -1.51371
C     0.20454   0.92574  -1.80326
C    -0.88595   0.69810  -0.79237
Cl   -1.48112   2.32419  -0.27712
C    -1.99210  -0.23739  -1.31824
C    -3.01926  -0.50311  -0.19902
C    -2.26326  -1.47539   0.75006
C    -0.84449  -1.54134   0.14424
C    -1.20670  -1.56267  -1.35811
C    -0.14511  -0.16061   0.30901
Cl   -0.28805   0.45745   1.99444
H     3.27918  -1.45836  -1.83516
H     1.68711  -2.19105  -2.05632
H     2.95668  -3.09231  -1.13963
H    -0.01041   1.41562  -2.75971
H    -2.41467   0.11818  -2.26604
H    -3.32473   0.42634   0.29992
H    -3.92102  -0.96653  -0.62247
H    -2.26895  -1.15310   1.79700
H    -2.69549  -2.48498   0.70832
H    -0.24522  -2.37392   0.52587
H    -0.35415  -1.56213  -2.04798
H    -1.84843  -2.42022  -1.60222
