12
Generated by autodE on: 2022-05-28. E = -377.751429 Ha
C    -2.49117  -0.85204   0.04872
N    -1.47092  -0.31920  -0.06513
C    -0.21326   0.16654  -0.11853
C     0.00221   1.42360  -0.71739
N     0.20932   2.46431  -1.20754
C     0.82931  -0.66809   0.46281
C     2.23460  -0.12208   0.40395
O     0.56239  -1.75878   0.97241
H    -3.46103  -1.33130   0.14159
H     2.92329  -0.84239   0.86366
H     2.29734   0.84037   0.93641
H     2.53517   0.06240  -0.63968
