17
Generated by autodE on: 2022-05-28. E = -1192.119830 Ha
Cl    1.62597  -1.59672   0.34045
C     0.32043  -0.63339  -0.25367
C     0.19211   0.70322  -0.19204
Cl    1.29626   1.83875   0.49843
C    -1.23384   1.04385  -0.59011
C    -2.13138   0.55064   0.59135
C    -1.98277  -0.99742   0.51958
C    -1.01824  -1.20085  -0.69396
C    -1.48949  -0.06770  -1.63026
H    -1.39553   2.08347  -0.89876
H    -3.17290   0.86313   0.42554
H    -1.79953   0.97277   1.55048
H    -2.94739  -1.48546   0.31656
H    -1.56859  -1.43504   1.43891
H    -0.98194  -2.21958  -1.09776
H    -0.86784   0.03366  -2.53113
H    -2.55009  -0.15669  -1.90975
