29
Generated by autodE on: 2022-05-28. E = -1569.864022 Ha. Imaginary frequency = -364.7 cm-1
C     2.16322  -2.22200  -1.38245
C     2.43135  -1.27810  -0.24011
O     2.92735  -1.68014   0.81716
C     2.10976   0.13619  -0.38533
C     2.54840   1.04120   0.61146
N     2.90479   1.77921   1.44123
N     1.47695   0.65247  -1.45727
C     0.42553   0.94054  -1.94548
C    -1.16579   0.59644  -0.50459
Cl   -1.50647   2.29505  -0.21427
C    -2.11643  -0.26454  -1.33918
C    -3.31578  -0.61347  -0.40768
C    -2.68362  -1.57760   0.63640
C    -1.17732  -1.63097   0.20256
C    -1.33614  -1.59081  -1.33159
C    -0.66580  -0.23641   0.48401
Cl   -0.24148   0.25507   2.08457
H     1.84652  -1.72244  -2.30564
H     1.39061  -2.94414  -1.07590
H     3.08594  -2.79096  -1.57410
H     0.01793   1.37067  -2.86403
H    -2.38293   0.16225  -2.31350
H    -3.74684   0.28996   0.04606
H    -4.10488  -1.10999  -0.99037
H    -2.79313  -1.22846   1.67217
H    -3.11311  -2.58780   0.56910
H    -0.59275  -2.44727   0.64262
H    -0.38875  -1.54700  -1.87956
H    -1.93610  -2.43203  -1.70660
