18
Generated by autodE on: 2022-06-20. E = -235.968071 Ha
C     1.53091   1.00866  -0.72431
C     0.66775  -0.05878  -0.09567
C     1.47603  -1.27321   0.29369
C    -0.66777   0.05876   0.09556
C    -1.53090  -1.00870   0.72425
C    -1.47603   1.27326  -0.29358
H     2.04205   0.61089  -1.61945
H     0.98701   1.91265  -1.02318
H     2.33321   1.31250  -0.02808
H     2.27926  -0.98972   0.99741
H     1.98487  -1.69543  -0.59151
H     0.89157  -2.07605   0.75866
H    -2.33273  -1.31314   0.02774
H    -0.98682  -1.91234   1.02385
H    -2.04259  -0.61071   1.61898
H    -2.28007   0.98978  -0.99634
H    -0.89176   2.07572  -0.75945
H    -1.98382   1.69600   0.59200
