45
Generated by autodE on: 2022-06-20. E = -923.323243 Ha. Imaginary frequency = -363.4 cm-1
C     0.95026  -2.06218  -1.29864
C     0.62312  -1.90329   0.17424
C     1.72777  -2.35243   1.11338
C     1.08218   0.28672   0.32680
C     2.45667   0.60486   0.01647
C     2.82936   0.84939  -1.31913
C     4.16367   1.11699  -1.62390
C     5.13071   1.13160  -0.61256
C     4.75963   0.87960   0.71296
C     3.42956   0.60968   1.03370
N     0.07238   0.87351   0.65236
C    -1.24831   0.67652   0.85854
C    -1.68636   0.65321   2.20188
N    -2.05884   0.59708   3.30913
C    -2.19339   0.86948  -0.23891
C    -3.58335   0.77846  -0.01568
C    -4.48112   0.88399  -1.07712
C    -4.01919   1.09074  -2.38235
C    -2.64247   1.19314  -2.61145
C    -1.73679   1.08544  -1.55607
C    -0.70507  -2.00530   0.59252
C    -1.03215  -2.36463   2.01647
C    -1.81486  -2.20897  -0.40012
H     0.81680  -3.11540  -1.60828
H     1.99622  -1.79438  -1.50599
H     0.30783  -1.44894  -1.94586
H     1.63104  -1.93139   2.12387
H     1.70959  -3.45331   1.21648
H     2.71934  -2.07889   0.72610
H     2.07092   0.83254  -2.10351
H     4.44987   1.31497  -2.65920
H     6.17482   1.33811  -0.85775
H     5.51216   0.89193   1.50459
H     3.13471   0.40709   2.06442
H    -3.95861   0.61257   0.99649
H    -5.55344   0.80496  -0.88203
H    -4.72532   1.17568  -3.21126
H    -2.26735   1.36022  -3.62415
H    -0.66667   1.17082  -1.75257
H    -0.88273  -3.45033   2.17871
H    -0.39768  -1.84564   2.74857
H    -2.08065  -2.14189   2.26026
H    -2.79625  -1.96294   0.02982
H    -1.84929  -3.27362  -0.70600
H    -1.69046  -1.62001  -1.31809
