45
Generated by autodE on: 2022-06-19. E = -980.587115 Ha
C     4.88206  -0.82381   1.06942
C     3.73290  -1.08641   0.41452
C     3.41839  -2.45996  -0.11787
C     2.74262  -0.02107   0.22257
C     1.56989  -0.16251  -0.42129
C     0.57713   0.94057  -0.58113
C     0.31477   1.39704  -2.05763
C     1.28167   2.49738  -2.47519
C     0.34817   0.23545  -3.05146
N    -1.04991   1.94512  -1.99236
O    -1.75180   1.04218  -1.13946
C    -0.86541   0.62881  -0.06157
C    -1.25864   1.59032   1.07482
O    -0.78415   2.70034   1.21526
O    -2.26568   1.12497   1.80749
C    -2.80546   2.00610   2.80581
C    -1.11618  -0.82623   0.27242
C    -0.54089  -1.37167   1.43063
C    -0.68453  -2.72872   1.72049
C    -1.41098  -3.55831   0.85759
C    -1.99367  -3.01728  -0.29050
C    -1.84590  -1.65666  -0.58375
H     5.63546  -1.59915   1.23476
H     5.09622   0.17706   1.45681
H     4.23034  -3.16787   0.10032
H     3.26123  -2.43739  -1.20907
H     2.48643  -2.84948   0.32560
H     2.99111   0.95282   0.66049
H     1.30675  -1.12752  -0.85779
H     0.93622   1.82055  -0.03441
H     1.08273   2.82644  -3.50660
H     2.31433   2.12131  -2.42678
H     1.20254   3.36811  -1.80498
H     1.36578  -0.17071  -3.14106
H     0.02910   0.59083  -4.04274
H    -0.31934  -0.58205  -2.74517
H    -1.00146   2.82497  -1.46351
H    -3.21312   2.91177   2.33415
H    -3.60304   1.44347   3.30395
H    -2.02659   2.28687   3.52881
H     0.03164  -0.73195   2.10581
H    -0.22799  -3.14119   2.62327
H    -1.52369  -4.62128   1.08352
H    -2.56682  -3.65556  -0.96724
H    -2.29866  -1.23652  -1.48141
