23
Generated by autodE on: 2022-06-19. E = -351.521382 Ha
C     3.52820  -1.18810   0.66203
C     2.55056  -0.38795   0.18260
C     2.87208   0.85210  -0.61165
C     1.14890  -0.71973   0.43017
C     0.07880  -0.00257   0.00423
C    -1.29311  -0.37809   0.27944
C    -2.41480   0.27649  -0.11426
C    -2.41982   1.53725  -0.93130
C    -3.77629  -0.24150   0.25414
H     3.29127  -2.08791   1.23816
H     4.58482  -0.96381   0.49136
H     2.46118   1.75289  -0.12616
H     2.42453   0.80617  -1.61844
H     3.95764   0.98396  -0.72214
H     0.96833  -1.63119   1.01272
H     0.25036   0.90735  -0.57736
H    -1.42343  -1.29234   0.87116
H    -2.94787   2.34193  -0.38982
H    -2.98147   1.38096  -1.86934
H    -1.41698   1.90013  -1.19059
H    -4.37556  -0.44604  -0.65135
H    -3.72325  -1.16329   0.85181
H    -4.34083   0.51523   0.82820
