22
Generated by autodE on: 2022-07-27. E = -628.968725 Ha
C     0.91118   2.50719   2.35240
O     0.60471   1.41298   1.47481
C    -0.00902   1.71589   0.33101
O    -0.29200   2.86616   0.00962
C    -0.28056   0.55370  -0.51984
O    -0.73422   0.75104  -1.74071
N    -1.03099   1.83986  -2.41235
C    -0.04787  -0.85713  -0.19886
C    -0.12578  -1.34942   1.12060
C     0.06927  -2.70603   1.38006
C     0.34152  -3.59758   0.33808
C     0.41439  -3.12063  -0.97567
C     0.22310  -1.76724  -1.24419
H     1.59459   3.21319   1.85913
H     1.39285   2.05966   3.22889
H    -0.00864   3.03225   2.64729
H    -0.85554   2.62255  -1.75990
H    -0.35603  -0.67204   1.94063
H    -0.00048  -3.06972   2.40784
H     0.49622  -4.65844   0.54763
H     0.63087  -3.80741  -1.79722
H     0.29479  -1.40158  -2.26957
