22
Generated by autodE on: 2022-06-19. E = -628.972724 Ha
C     4.00373  -0.54520   0.36937
O     2.82790   0.22070   0.07345
C     1.65560  -0.39747   0.25899
O     1.56130  -1.55416   0.63085
C     0.49290   0.47989  -0.02217
O     0.85458   1.72070  -0.17957
N     0.04767   2.74134  -0.42442
C    -0.87910  -0.00643  -0.08234
C    -1.98200   0.82045   0.23459
C    -3.28012   0.31176   0.19673
C    -3.51325  -1.01303  -0.18129
C    -2.43175  -1.83696  -0.51550
C    -1.13063  -1.34727  -0.46257
H     4.00788  -0.85486   1.42462
H     4.05461  -1.43691  -0.27225
H     4.85269   0.11738   0.16537
H     0.73745   3.50027  -0.51499
H    -1.81271   1.85669   0.51339
H    -4.11796   0.96226   0.45778
H    -4.53324  -1.40200  -0.22269
H    -2.60478  -2.87056  -0.82345
H    -0.30029  -1.99916  -0.72605
