45
Generated by autodE on: 2022-06-19. E = -980.501224 Ha. Imaginary frequency = -228.8 cm-1
C     3.21034  -1.42307   2.33674
C     2.72325  -1.30692   1.08078
C     2.74788  -2.46784   0.12036
C     2.14687  -0.04250   0.63630
C     1.60607   0.19230  -0.58899
C     1.02004   1.45220  -0.96898
C     0.61302   1.81135  -2.24610
C     0.46129   3.27265  -2.57935
C     0.77047   0.86512  -3.40746
N    -1.70610   1.55646  -2.12505
O    -1.77021   0.46152  -1.38011
C    -1.39969   0.33583  -0.11039
C    -1.29493   1.54084   0.71652
O    -1.75348   2.63626   0.39576
O    -0.63081   1.35135   1.86061
C    -0.40007   2.50851   2.67374
C    -1.22003  -1.05345   0.30374
C    -1.09042  -1.44705   1.65263
C    -0.87394  -2.78488   1.98635
C    -0.79442  -3.76396   0.99380
C    -0.93458  -3.39008  -0.34867
C    -1.13666  -2.05720  -0.69133
H     3.63896  -2.36178   2.69834
H     3.18494  -0.57939   3.03331
H     3.19935  -3.35723   0.58212
H     3.32204  -2.21918  -0.78771
H     1.72985  -2.72754  -0.20886
H     2.14612   0.77120   1.37033
H     1.59529  -0.61299  -1.32745
H     1.04727   2.24304  -0.21297
H    -0.32040   3.43974  -3.33586
H     1.40765   3.65674  -3.00164
H     0.22604   3.86875  -1.68489
H     1.82668   0.83242  -3.73060
H     0.16779   1.19164  -4.26610
H     0.47302  -0.16113  -3.14863
H    -1.69019   2.34556  -1.46305
H    -1.35238   2.95439   2.99396
H     0.16485   2.15364   3.54315
H     0.18550   3.25553   2.11835
H    -1.15882  -0.70607   2.44429
H    -0.76954  -3.06122   3.03803
H    -0.62127  -4.80890   1.26035
H    -0.86756  -4.14321  -1.13711
H    -1.21793  -1.77914  -1.74174
