44
Generated by autodE on: 2022-06-19. E = -959.522748 Ha
C     3.84969   3.19840   0.17503
C     3.09292   2.19497   0.66326
C     2.96236   1.94263   2.14213
C     2.35397   1.32804  -0.26065
C     1.57417   0.29557   0.10449
C     0.78318  -0.51407  -0.87012
C     0.99048  -2.05152  -0.80415
C     1.38960  -2.59990   0.57427
C     1.96151  -2.54480  -1.87544
N    -0.33692  -2.61289  -1.09180
O    -0.51784   1.42398  -2.37573
C    -1.35133   0.67333  -1.83490
O    -2.58806   0.64135  -1.97994
C    -0.75736  -0.33987  -0.74940
C    -1.24764   0.09309   0.62628
C    -1.65111  -0.81819   1.61014
C    -2.00955  -0.37072   2.88618
C    -1.95665   0.98952   3.19644
C    -1.54894   1.90400   2.21923
C    -1.20123   1.46036   0.94319
N    -1.20985  -1.73867  -1.04529
C    -2.61345  -2.10326  -1.26499
H     4.40596   3.86855   0.83648
H     3.92902   3.37399  -0.90220
H     1.90894   2.01666   2.46116
H     3.29929   0.92570   2.40351
H     3.55389   2.66360   2.72371
H     2.43725   1.57479  -1.32488
H     1.45867   0.04544   1.16054
H     1.03837  -0.18700  -1.88453
H     1.36652  -3.69881   0.56736
H     2.41623  -2.27396   0.79258
H     0.72525  -2.23272   1.36703
H     2.93917  -2.07406  -1.69484
H     1.61809  -2.25929  -2.88037
H     2.08154  -3.63684  -1.83055
H    -1.68431  -1.88878   1.40291
H    -2.32581  -1.09534   3.63981
H    -2.23213   1.33717   4.19466
H    -1.50167   2.97064   2.45001
H    -0.87347   2.17906   0.19078
H    -2.86837  -1.85549  -2.30278
H    -3.24453  -1.51027  -0.59792
H    -2.71210  -3.17762  -1.07976
