23
Generated by autodE on: 2022-06-19. E = -351.521384 Ha
C     3.75397   0.35816  -0.27698
C     2.57683  -0.21047   0.06477
C     2.52639  -1.52487   0.80092
C     1.31975   0.45139  -0.27849
C     0.07720  -0.01301   0.00652
C    -1.13834   0.68575  -0.35812
C    -2.41319   0.29018  -0.11347
C    -3.57742   1.13057  -0.55645
C    -2.78641  -0.97882   0.59892
H     3.78739   1.31261  -0.81142
H     4.70910  -0.11500  -0.03263
H     3.53671  -1.91195   0.99456
H     2.00478  -1.41938   1.76674
H     1.96978  -2.28238   0.22443
H     1.41112   1.40473  -0.81289
H    -0.02265  -0.96264   0.53915
H    -0.99699   1.63519  -0.88865
H    -4.20485   1.41627   0.30703
H    -3.25650   2.04768  -1.07189
H    -4.23613   0.55998  -1.23570
H    -1.92343  -1.58292   0.90708
H    -3.43056  -1.60311  -0.04523
H    -3.38469  -0.74988   1.49862
