21
Generated by autodE on: 2022-06-19. E = -607.944640 Ha
C     1.83976   1.30699   1.58700
N     1.73638   0.20076   0.63760
N     2.82452  -0.47717   0.40331
O     2.45715  -1.44224  -0.47366
C     1.08766  -1.36292  -0.78192
O     0.56909  -2.15949  -1.54507
C     0.63695  -0.23711  -0.02655
C    -0.71971   0.30205   0.02300
C    -0.99705   1.67258   0.19698
C    -2.31585   2.12872   0.22065
C    -3.37898   1.23516   0.06059
C    -3.11348  -0.12503  -0.12863
C    -1.79923  -0.58997  -0.14799
H     2.75342   1.15316   2.17099
H     0.96072   1.29663   2.24114
H     1.89692   2.25748   1.04264
H    -0.18673   2.39469   0.28828
H    -2.51152   3.19504   0.35484
H    -4.40923   1.59774   0.07726
H    -3.93634  -0.83200  -0.25725
H    -1.59985  -1.65214  -0.29215
