64
Generated by autodE on: 2022-06-30. E = -1607.592735 Ha
C     3.91444   1.11605  -2.92727
N     2.80582   1.00573  -1.99910
C     2.76579   0.05365  -1.06316
O     3.67275  -0.76783  -0.89980
C     1.51566   0.05573  -0.14507
C     2.02561   0.08724   1.32465
O     1.73378  -0.79405   2.13481
N     2.80850   1.13367   1.61822
C     3.18776   1.43174   2.98615
O     0.81597   1.26424  -0.40650
C    -0.57892   1.16141  -0.22015
C    -1.26506   2.12133  -1.23163
C    -0.41988   3.23025  -1.78897
O    -2.44673   2.01008  -1.48216
C    -0.89804   1.76460   1.17893
O    -0.05339   1.93266   2.02838
O    -2.16756   2.11635   1.30913
C    -2.57663   2.62484   2.58946
C    -0.95869  -0.39192  -0.34441
C    -1.93646  -0.73396   0.78187
C    -3.31338  -0.77171   0.51839
C    -4.24542  -0.93070   1.54922
C    -3.81912  -1.05100   2.87248
C    -2.44887  -1.01005   3.15038
C    -1.52221  -0.85304   2.11955
C    -1.51138  -0.73151  -1.76543
C    -1.74886  -2.25753  -1.88569
C    -0.32767  -2.82535  -2.13391
C     0.56373  -1.58651  -1.92175
C    -0.27874  -0.53483  -2.65606
C     0.49528  -1.10245  -0.41222
C     0.70890  -2.37893   0.42436
C     2.06304  -3.04287   0.39606
O    -0.23486  -2.98565   0.90307
H     4.86909   1.20650  -2.38699
H     3.76818   2.00809  -3.54787
H     3.97523   0.23162  -3.58131
H     2.02291   1.64717  -2.05762
H     2.84087   1.89241   0.94357
H     3.55869   0.52368   3.47998
H     3.98362   2.18697   2.98284
H     2.32969   1.81644   3.56274
H    -1.07244   3.97395  -2.26352
H     0.18867   3.69199  -0.99745
H     0.27689   2.83070  -2.54280
H    -2.04661   3.56147   2.81255
H    -3.65447   2.80269   2.50947
H    -2.36747   1.88241   3.37159
H    -3.68145  -0.65570  -0.49968
H    -5.31149  -0.95372   1.31030
H    -4.54514  -1.17096   3.68010
H    -2.09498  -1.09943   4.18037
H    -0.46328  -0.81166   2.36298
H    -2.38499  -0.13821  -2.03527
H    -2.42303  -2.46251  -2.72958
H    -2.20983  -2.67861  -0.98411
H    -0.20658  -3.15548  -3.17575
H    -0.08442  -3.68217  -1.49536
H     1.59546  -1.73208  -2.26047
H    -0.46660  -0.81945  -3.70141
H     0.14016   0.47637  -2.65195
H     2.06325  -3.73627  -0.46287
H     2.17483  -3.64277   1.30924
H     2.90017  -2.35348   0.26663
