32
Generated by autodE on: 2022-06-30. E = -656.749318 Ha
C    -2.23779   2.34074   1.61726
C    -1.01136   1.84724   0.88374
O     0.06322   2.43407   1.02328
C    -1.19124   0.66486   0.02643
C    -0.25538  -0.23571  -0.42123
C     1.20963  -0.26460  -0.33691
C     1.86357  -1.49857  -0.12581
C     3.25499  -1.57135  -0.06443
C     4.02839  -0.41974  -0.24517
C     3.39606   0.80395  -0.48667
C     2.00345   0.88428  -0.52729
C    -1.03470  -1.42349  -0.97416
C    -1.67114  -2.14925   0.25790
C    -2.73763  -1.13230   0.74773
C    -2.56386   0.05100  -0.25535
C    -2.26807  -0.71186  -1.55809
H    -2.97252   2.73041   0.89352
H    -1.95238   3.14299   2.31021
H    -2.73245   1.52519   2.16679
H     1.27526  -2.40730   0.00992
H     3.73868  -2.53374   0.11886
H     5.11877  -0.47781  -0.20651
H     3.99235   1.70546  -0.64723
H     1.51894   1.83891  -0.71752
H    -0.46187  -2.08043  -1.63921
H    -0.91952  -2.38957   1.02234
H    -2.13164  -3.09251  -0.07100
H    -3.75410  -1.54699   0.67308
H    -2.58072  -0.81151   1.78707
H    -3.40143   0.75736  -0.27022
H    -3.06971  -1.40751  -1.84999
H    -2.02427  -0.04862  -2.40120
