32
Generated by autodE on: 2022-07-27. E = -950.768302 Ha
C     3.34429   0.32102  -3.11809
N     2.20055   0.21401  -2.23586
C     2.26822  -0.30058  -0.99567
O     3.31834  -0.73290  -0.48702
C     1.00377  -0.30124  -0.20995
O    -0.00732   0.25744  -0.81312
C    -1.22861   0.57045  -0.42784
C    -2.09921   1.05153  -1.50066
C    -1.54615   1.03124  -2.90429
O    -3.23529   1.45566  -1.25318
C    -1.51479   0.74896   1.01552
O    -0.69598   1.22966   1.77906
O    -2.75455   0.42165   1.35350
C    -3.12047   0.63760   2.72691
C     0.78117  -1.13467   1.00033
O    -0.36892  -1.50227   1.28971
N     1.87545  -1.49045   1.68775
C     1.80132  -2.42686   2.78975
H     3.17898  -0.25371  -4.04264
H     3.52841   1.37180  -3.39145
H     4.22981  -0.07409  -2.60799
H     1.30373   0.54840  -2.57280
H    -0.68589   1.71705  -2.98002
H    -1.19125   0.02689  -3.18036
H    -2.33160   1.35634  -3.59783
H    -3.02765   1.70152   2.98706
H    -4.16347   0.31333   2.81358
H    -2.47622   0.03829   3.38592
H     2.76942  -1.27573   1.23701
H     1.65370  -3.46302   2.44022
H     2.73526  -2.37896   3.36322
H     0.96008  -2.16779   3.44777
