64
Generated by autodE on: 2022-06-30. E = -1607.512036 Ha. Imaginary frequency = -257.1 cm-1
C     3.94918   1.21052  -2.74312
N     2.85939   1.34028  -1.79550
C     2.85900   0.66386  -0.63981
O     3.82190  -0.04691  -0.29770
C     1.63899   0.79854   0.22627
C     1.69850   0.60301   1.71270
O     0.71293   0.83394   2.42378
N     2.85046   0.11602   2.20006
C     2.96399  -0.29502   3.58414
O     0.72476   1.58205  -0.32522
C    -0.58288   1.72245  -0.03598
C    -1.43741   2.17634  -1.15451
C    -0.83452   2.64125  -2.45630
O    -2.65829   2.18390  -0.99738
C    -0.92007   2.36645   1.27671
O    -0.23813   3.26753   1.72914
O    -2.08364   1.98738   1.77538
C    -2.50617   2.61659   2.99220
C    -0.95584  -0.76778  -0.24661
C    -2.07806  -0.82761   0.71061
C    -3.40025  -0.84385   0.20426
C    -4.50570  -0.89801   1.05234
C    -4.33169  -0.93384   2.43840
C    -3.03542  -0.90100   2.96008
C    -1.93036  -0.83715   2.11427
C    -1.28169  -0.84772  -1.74558
C    -1.45016  -2.37386  -2.04156
C     0.00341  -2.90900  -1.92903
C     0.81436  -1.61904  -1.58481
C     0.06499  -0.58924  -2.42613
C     0.40373  -1.24310  -0.15144
C     1.02624  -2.05485   0.93998
C     2.29344  -2.80205   0.59485
O     0.57535  -2.14160   2.07669
H     4.04958   0.16975  -3.08956
H     3.74283   1.85603  -3.60476
H     4.90497   1.51258  -2.28817
H     2.05894   1.91402  -2.03338
H     3.56800  -0.13221   1.51445
H     4.00887  -0.55813   3.78938
H     2.32698  -1.16935   3.79486
H     2.66203   0.51894   4.25972
H     0.23592   2.86755  -2.39895
H    -1.00117   1.88054  -3.23423
H    -1.38474   3.54378  -2.76045
H    -2.60601   3.70214   2.84997
H    -3.47683   2.17243   3.23782
H    -1.78079   2.41430   3.79305
H    -3.57953  -0.82191  -0.86833
H    -5.51035  -0.91430   0.62332
H    -5.19725  -0.97854   3.10376
H    -2.88005  -0.90331   4.04170
H    -0.93800  -0.76488   2.53705
H    -2.12520  -0.23575  -2.07511
H    -1.85180  -2.49915  -3.05751
H    -2.14290  -2.86086  -1.34296
H     0.35968  -3.32316  -2.88373
H     0.10946  -3.69159  -1.16585
H     1.89181  -1.70622  -1.75401
H     0.04641  -0.84667  -3.49480
H     0.44397   0.42509  -2.32004
H     2.69868  -3.24794   1.51206
H     2.09042  -3.60026  -0.13490
H     3.03115  -2.12331   0.14585
