13
Generated by autodE on: 2022-10-06. E = -486.300506 Ha
C     2.74670   0.77316  -0.35082
O     1.78103  -0.26358  -0.60928
C     0.78286  -0.36147   0.25123
O     0.62656   0.31481   1.24598
N    -0.01954  -1.47587  -0.07011
N    -1.28413  -1.36829  -0.01579
N    -2.11323  -0.36941   0.00249
C    -1.66979   0.86828  -0.16126
N    -1.44513   2.00053  -0.35423
H     2.25169   1.75438  -0.34175
H     3.47100   0.71558  -1.17058
H     3.24231   0.59581   0.61406
H    -1.77817  -2.27427  -0.01838
