10
Generated by autodE on: 2022-10-06. E = -455.046570 Ha
O     0.76002  -0.84187   1.11093
C     1.30257   0.27084   0.85974
O     2.38262   0.69085   1.36534
C     0.62605   1.19791  -0.12293
C    -0.47997   0.92108  -0.83416
C    -1.30173  -0.35457  -0.81592
O    -2.29188  -0.37194  -0.03978
O    -0.97693  -1.24814  -1.63951
H     1.11584   2.17047  -0.24936
H    -0.86362   1.69052  -1.51870
