44
Generated by autodE on: 2022-05-29. E = -884.550632 Ha
C     3.70011   0.38160  -2.89564
N     2.45537   0.66609  -2.21398
C     1.99556  -0.06720  -1.19151
O     2.55023  -1.08411  -0.75239
C     0.71805   0.42647  -0.56947
N     0.25502   1.58792  -0.80237
C    -0.95727   1.83979   0.00081
C    -2.04486   2.41944  -0.90925
C    -0.56477   2.92685   1.01487
C    -1.33591   0.43979   0.67243
C    -1.70709   0.57975   2.14936
C    -2.43821  -0.34133  -0.12789
C    -2.86323  -1.61901   0.62133
C    -1.59017  -2.50531   0.54050
C    -0.64802  -1.69109  -0.38272
C    -1.66661  -0.98484  -1.29711
C    -0.05600  -0.47225   0.38122
C     0.88030  -0.73325   1.56781
C     1.26194  -2.12917   1.98067
O     1.34124   0.22598   2.17247
H     3.87653  -0.70218  -2.90255
H     4.55928   0.86691  -2.40195
H     3.64341   0.74247  -3.93098
H     1.94111   1.51623  -2.42828
H    -2.27623   1.76453  -1.75917
H    -2.96950   2.58752  -0.33748
H    -1.71271   3.38863  -1.31078
H    -1.42947   3.23258   1.62056
H    -0.19955   3.81161   0.47253
H     0.23541   2.58016   1.68154
H    -2.67274   1.10021   2.25097
H    -0.95838   1.13905   2.71809
H    -1.80271  -0.40046   2.63423
H    -3.29124   0.29207  -0.39524
H    -3.70012  -2.08281   0.07791
H    -3.20597  -1.44389   1.64813
H    -1.80388  -3.48261   0.08301
H    -1.16067  -2.70125   1.52905
H     0.12133  -2.29150  -0.88368
H    -2.28589  -1.69576  -1.86428
H    -1.21733  -0.27768  -2.00523
H     1.23110  -2.84940   1.15558
H     0.55806  -2.46620   2.75994
H     2.26474  -2.10046   2.42852
