19
Generated by autodE on: 2022-05-29. E = -419.538697 Ha
C    -2.35471   0.92642  -0.89439
N    -2.33826  -0.34528  -0.19455
C    -1.33057  -0.76890   0.59535
O    -1.28818  -1.89250   1.11835
C    -0.29021   0.23194   0.92774
N     0.77333   0.31083   0.30259
C     1.88908   0.47700  -0.28782
C     2.01531   1.49125  -1.38810
C     3.08842  -0.33516   0.10672
H    -1.98423   1.72884  -0.23859
H    -1.73541   0.91528  -1.80680
H    -3.38700   1.16811  -1.17858
H    -3.06423  -1.02963  -0.39223
H     2.36251   1.00419  -2.31489
H     2.77049   2.24958  -1.11876
H     1.05794   1.99265  -1.58555
H     2.85787  -1.02009   0.93372
H     3.91297   0.33247   0.40984
H     3.44920  -0.92319  -0.75426
