49
Generated by autodE on: 2022-06-01. E = -1037.222305 Ha
C     1.20652   3.49201  -1.86014
O     0.51958   2.61413  -0.95138
C     1.20879   2.16867   0.09209
O     2.35341   2.47047   0.33510
C     0.31591   1.27630   1.00402
C    -0.56606   2.28100   1.62683
N    -1.17323   3.11593   2.15653
C     1.13752   0.64195   2.17806
C     1.84489  -0.69412   1.93217
C     2.95180  -0.75488   0.86122
C     2.55060  -1.34198  -0.49643
C     1.51836  -0.54122  -1.31037
C     0.12589  -0.54437  -0.74626
C    -0.43679   0.22594   0.19808
C    -1.91401  -0.11473   0.39322
C    -2.32776  -0.30849   1.85769
C    -2.78612   0.96729  -0.27905
N    -1.99388  -1.42043  -0.31088
C    -3.28167  -1.84706  -0.81427
C    -0.91065  -1.52957  -1.26203
C    -0.32709  -2.94161  -1.38392
C    -0.38796  -3.83718  -0.18183
O     0.19698  -3.28616  -2.43210
H     2.07678   2.97952  -2.29408
H     1.53400   4.40047  -1.33529
H     0.48055   3.74047  -2.64195
H     0.43088   0.49220   3.00678
H     1.85897   1.40390   2.50767
H     2.29105  -0.95092   2.90650
H     1.09617  -1.47841   1.73672
H     3.39121   0.24485   0.71824
H     3.76585  -1.38764   1.25056
H     2.17988  -2.36976  -0.34798
H     3.45861  -1.43353  -1.11530
H     1.46876  -0.97417  -2.32090
H     1.88926   0.48500  -1.44579
H    -3.34720  -0.72260   1.89929
H    -2.33831   0.63821   2.41485
H    -1.64942  -1.01091   2.36368
H    -3.85547   0.73410  -0.16396
H    -2.61491   1.95409   0.17123
H    -2.55545   1.03862  -1.35270
H    -4.04647  -1.77756  -0.02667
H    -3.22496  -2.90375  -1.12178
H    -3.63495  -1.26782  -1.69202
H    -1.19096  -1.24043  -2.30078
H     0.21795  -4.73633  -0.35447
H    -0.03998  -3.30090   0.71367
H    -1.43403  -4.12613   0.00770
