22
Generated by autodE on: 2022-07-26. E = -404.710406 Ha
C     1.08247  -2.19241   0.80894
C     0.65310  -1.69841  -0.56816
O     0.94423  -2.43341  -1.55942
C     0.00610  -0.46599  -0.74503
N    -0.44682   0.40619   0.26742
C    -1.14717  -0.15506   1.43991
C    -0.38327   1.71720   0.13881
C    -1.06684   2.60856   1.12328
C     0.34430   2.29834  -1.02114
H     2.05700  -2.69003   0.69142
H     1.17667  -1.40667   1.57029
H     0.37524  -2.95283   1.18152
H    -0.11833  -0.10179  -1.76434
H    -0.61906   0.09909   2.36809
H    -1.22176  -1.23786   1.33161
H    -2.16405   0.25736   1.48586
H    -2.15224   2.40928   1.15855
H    -0.91655   3.66012   0.85272
H    -0.68448   2.45274   2.14592
H    -0.26441   2.23750  -1.94266
H     0.57770   3.35548  -0.84106
H     1.26813   1.72992  -1.22151
