22
Generated by autodE on: 2022-06-01. E = -404.714178 Ha
C     3.14995   0.40019  -0.04605
C     1.86285  -0.40687   0.07740
O     1.99522  -1.64890   0.29665
C     0.68622   0.34833  -0.06844
N    -0.64280  -0.09819  -0.01229
C    -0.90302  -1.54533   0.12655
C    -1.67698   0.71833  -0.09661
C    -1.45019   2.18592  -0.22770
C    -3.06744   0.17045  -0.06665
H     3.73685   0.28353   0.88060
H     2.99150   1.47128  -0.23537
H     3.76066  -0.02119  -0.86228
H     0.79287   1.41160  -0.24584
H    -1.52283  -1.72518   1.01409
H    -1.43912  -1.90770  -0.76073
H     0.05830  -2.05383   0.22695
H    -2.40429   2.72531  -0.23806
H    -0.83266   2.56928   0.60409
H    -0.90251   2.42388  -1.15783
H    -3.79496   0.98184  -0.18525
H    -3.28129  -0.34866   0.88404
H    -3.23490  -0.56718  -0.86978
