27
Generated by autodE on: 2022-06-01. E = -632.403641 Ha
C     0.69117  -3.55105  -0.89615
O     0.95282  -2.23507  -0.37330
C     0.39311  -1.21464  -1.00709
O    -0.31068  -1.30363  -1.98374
C     0.75871   0.13171  -0.31837
C     2.21999   0.29484  -0.41592
N     3.36622   0.44511  -0.50974
C     0.30184   0.11140   1.07635
C    -0.45382   0.38553   1.98427
C    -1.54987   1.00133   2.71789
C    -2.55868   1.52319   1.66246
C    -1.94408   2.28675   0.46930
C    -1.46612   1.45931  -0.75937
C     0.04869   1.33439  -1.02268
H    -0.38741  -3.75988  -0.86809
H     1.23325  -4.24484  -0.24437
H     1.05821  -3.62698  -1.92922
H    -1.15988   1.83886   3.32095
H    -2.04015   0.30453   3.41570
H    -3.27042   2.18040   2.18722
H    -3.14318   0.66999   1.27959
H    -2.72463   2.97391   0.10731
H    -1.12591   2.93575   0.82736
H    -1.87394   1.94521  -1.65908
H    -1.92443   0.45795  -0.73996
H     0.23659   1.22227  -2.10009
H     0.56093   2.25118  -0.69523
