52
Generated by autodE on: 2022-06-23. E = -1188.626580 Ha. Imaginary frequency = -224.8 cm-1
C    -3.66159   3.93245  -0.23814
C    -2.40059   3.51452  -0.48413
C    -1.57624   4.10262  -1.59985
C    -1.81508   2.46414   0.34324
C    -0.56889   1.94988   0.18784
C    -0.03750   0.89589   1.02066
C    -1.08388  -1.14357   0.20810
C    -1.69641  -0.48561  -0.98103
O    -2.90168  -0.19223  -1.00016
N    -0.87826  -0.23610  -2.02021
C    -1.36598   0.41675  -3.21574
C    -1.85223  -1.58001   1.39564
O    -1.47643  -2.47692   2.13540
O    -2.94115  -0.84828   1.63666
C    -3.67693  -1.17256   2.82455
O     0.04447  -1.85469   0.14748
N     1.08532  -1.31936  -0.52263
C     2.18797  -2.15591  -0.42052
C     2.25825  -3.28831   0.42221
C     3.43433  -4.03143   0.48059
C     4.55204  -3.66515  -0.28148
C     4.48236  -2.54626  -1.11984
C     3.30922  -1.79889  -1.19986
C     1.30146   0.47715   0.99286
C     1.79539  -0.34456   2.14534
C     2.33615   1.18558   0.16878
H    -4.25229   3.49702   0.57348
H    -4.13234   4.71368  -0.84129
H    -0.65076   4.55864  -1.21097
H    -2.13832   4.87280  -2.14630
H    -1.26740   3.32403  -2.31618
H    -2.45114   2.06378   1.13993
H     0.06310   2.32220  -0.62006
H    -0.61685   0.64280   1.91070
H     0.11504  -0.43791  -1.88587
H    -2.00649   1.27247  -2.95619
H    -1.96012  -0.26668  -3.84623
H    -0.50940   0.77473  -3.80067
H    -4.52448  -0.47811   2.84933
H    -4.03641  -2.21070   2.78527
H    -3.04760  -1.03730   3.71618
H     1.39106  -3.57104   1.01792
H     3.48235  -4.90782   1.13140
H     5.46984  -4.25456  -0.22721
H     5.34564  -2.26073  -1.72526
H     3.23708  -0.93849  -1.86658
H     2.68334  -0.93778   1.88327
H     1.01113  -1.01355   2.52989
H     2.09125   0.32929   2.97009
H     1.97003   1.46315  -0.82836
H     2.64210   2.11332   0.68530
H     3.23737   0.56773   0.05271
