50
Generated by autodE on: 2022-10-23. E = -1663.422456 Ha
C    -4.24344  -1.00198   1.23262
N    -3.16582  -0.28166   0.58980
C    -2.67758  -0.62763  -0.60820
O    -3.16882  -1.52457  -1.30690
C    -1.40477   0.12528  -1.05834
C    -1.48329   0.35271  -2.57546
C    -0.15030  -0.73205  -0.71848
C    -0.32298  -1.85657   0.34763
O    -0.28261  -1.12227   1.58078
C     1.01411  -0.55512   1.37436
C     1.85446  -1.78490   1.03888
O     3.16177  -1.75305   1.30619
C     3.99199  -2.79783   0.78816
C     1.00101  -2.61227   0.40177
Cl    1.23323  -4.08614  -0.47873
C     0.84607   0.20772   0.02194
C     0.17343   1.60993   0.05085
C     0.36974   2.21433   1.45713
C    -0.71897   2.03842   2.47246
O     1.43137   2.75335   1.72242
C     0.85633   2.49761  -1.03889
O     1.44997   1.98999  -1.99791
N     0.69445   3.82542  -0.94091
C     1.16754   4.72600  -1.97540
N    -1.23036   1.35634  -0.26983
C    -2.06701   2.48744  -0.63771
H    -5.05680  -1.19168   0.51749
H    -4.63428  -0.40292   2.06515
H    -3.90380  -1.97488   1.62836
H    -2.63195   0.42029   1.09590
H    -1.56826  -0.61463  -3.08724
H    -0.57434   0.85844  -2.92707
H    -2.35874   0.95815  -2.85018
H     0.26691  -1.15427  -1.63889
H    -1.22119  -2.47648   0.26806
H     1.36375   0.01541   2.24070
H     5.01393  -2.56584   1.11285
H     3.94835  -2.82043  -0.31082
H     3.68883  -3.77494   1.19277
H     1.81261   0.29383  -0.48057
H    -0.37307   2.40904   3.44587
H    -1.62110   2.58843   2.16410
H    -1.00235   0.97837   2.54392
H     0.20083   4.21865  -0.14785
H     0.94512   5.75736  -1.67583
H     0.67378   4.51984  -2.93871
H     2.25409   4.62392  -2.12222
H    -1.82361   2.92678  -1.62151
H    -3.11885   2.16888  -0.66139
H    -1.98172   3.28478   0.11475
