33
Generated by autodE on: 2022-10-23. E = -781.624381 Ha
C    -1.87571  -3.53158  -0.86715
N    -1.50427  -2.35546  -0.11599
C    -1.08772  -1.22349  -0.72653
O    -0.99699  -1.14575  -1.97501
C    -0.73853  -0.09677   0.13833
C    -0.94348  -0.03542   1.53856
C    -0.82654   1.28165   2.28424
O    -1.28646  -1.04547   2.21768
N    -0.31334   1.06683  -0.58785
C    -1.29711   1.75040  -1.44730
C     0.87708   1.56590  -0.44164
C     1.27090   2.86002  -1.05783
C     1.89111   0.92615   0.48671
O     2.18985   1.57713   1.49261
N     2.47931  -0.21919   0.12888
C     2.16814  -1.07260  -1.00209
H    -2.75916  -3.35672  -1.50543
H    -1.05725  -3.86766  -1.52535
H    -2.11201  -4.34334  -0.16696
H    -1.55826  -2.30547   0.90540
H    -1.73797   1.39368   2.89168
H     0.02750   1.23926   2.97663
H    -0.71320   2.16735   1.64729
H    -0.88415   1.91758  -2.44991
H    -2.19170   1.12730  -1.50997
H    -1.55212   2.71837  -0.99041
H     2.30001   3.12172  -0.78921
H     1.18638   2.79129  -2.15467
H     0.59251   3.66527  -0.72962
H     3.17332  -0.55618   0.79476
H     1.49359  -0.56594  -1.69945
H     3.09307  -1.33069  -1.53792
H     1.68531  -2.00257  -0.66718
