17
Generated by autodE on: 2022-10-23. E = -881.716874 Ha
C     2.56239  -1.26493  -0.17085
O     1.23713  -1.68860   0.16318
C     0.28554  -0.75872   0.27356
C     0.19370   0.57870   0.14519
Cl    1.32097   1.79994  -0.34223
C    -1.31709   0.87898   0.29055
C    -2.03378   0.29789  -0.95246
C    -1.93737  -1.02752  -0.81219
C    -1.17107  -1.22323   0.51683
O    -1.67084  -0.10972   1.27681
H     3.18048  -2.17126  -0.18501
H     2.94954  -0.56488   0.58489
H     2.58146  -0.78791  -1.16204
H    -1.57617   1.89708   0.60116
H    -2.45596   0.88631  -1.76638
H    -2.25443  -1.82930  -1.47782
H    -1.27867  -2.18094   1.03799
