38
Generated by autodE on: 2022-06-17. E = -602.363832 Ha
C     4.73845   0.09571  -0.79350
C     3.61958  -0.15833  -0.08453
C     3.66850  -0.87455   1.23960
C     2.31472   0.26777  -0.60337
C     1.13006   0.08031   0.00745
C    -0.18459   0.54067  -0.55534
C    -0.90201   1.48003   0.40469
C    -0.36971   2.85031   0.66577
N    -1.95149   1.00771   0.96138
C    -2.17146  -0.39012   0.52156
C    -1.72880  -1.30462   1.67396
C    -3.66637  -0.61741   0.28728
C    -1.28224  -0.55502  -0.77808
C    -2.05993  -0.15980  -2.04407
C    -0.72223  -1.96361  -0.98029
H     5.72480  -0.20998  -0.43320
H     4.69322   0.61715  -1.75462
H     3.24914  -0.24830   2.04459
H     4.69956  -1.14199   1.51061
H     3.06525  -1.79727   1.21389
H     2.32983   0.77845  -1.57382
H     1.09820  -0.42216   0.97827
H     0.02811   1.06839  -1.49917
H    -0.98362   3.38367   1.40429
H     0.66915   2.79196   1.03061
H    -0.34121   3.43167  -0.27135
H    -2.26675  -1.02238   2.59206
H    -1.96040  -2.35782   1.45685
H    -0.65236  -1.22189   1.87930
H    -4.09430   0.11970  -0.40577
H    -3.84889  -1.62351  -0.12094
H    -4.21142  -0.53610   1.24063
H    -2.87626  -0.86455  -2.26004
H    -1.37982  -0.16313  -2.91039
H    -2.49114   0.84978  -1.96189
H    -0.10999  -2.00228  -1.89549
H    -1.54152  -2.69143  -1.09657
H    -0.08854  -2.29707  -0.14825
