23
Generated by autodE on: 2022-06-17. E = -351.521383 Ha
C     3.38006  -0.92815   1.41821
C     2.36783  -0.89926   0.52362
C     2.46336  -1.62967  -0.79141
C     1.15094  -0.14716   0.82267
C     0.06998  -0.03518   0.01035
C    -1.11224   0.72709   0.35698
C    -2.22767   0.89467  -0.39761
C    -2.42720   0.29835  -1.76205
C    -3.37796   1.72172   0.10322
H     3.30764  -0.39616   2.37188
H     4.30189  -1.48207   1.21995
H     1.65405  -2.37163  -0.89379
H     3.42543  -2.15237  -0.88776
H     2.36068  -0.93372  -1.64060
H     1.13105   0.36481   1.79233
H     0.08289  -0.54203  -0.95842
H    -1.08800   1.21709   1.33789
H    -3.33044  -0.33697  -1.77310
H    -2.60605   1.09610  -2.50463
H    -1.57955  -0.30666  -2.10839
H    -3.18791   2.13687   1.10390
H    -3.58880   2.55786  -0.58766
H    -4.30385   1.12018   0.14445
