37
Generated by autodE on: 2022-10-21. E = -1563.044439 Ha
C     1.63698   2.51288  -3.21883
O     1.22051   1.98418  -1.94684
C     1.33029   0.67707  -1.78537
O     1.78192  -0.08458  -2.60942
C     0.79857   0.21451  -0.41723
C     1.85567  -0.70253   0.23369
O     2.19304  -1.76198  -0.23648
O     2.35115  -0.17649   1.34284
C     3.29313  -0.98120   2.07393
N     0.51062   1.35092   0.45525
C    -0.58107   1.14461   1.08719
C    -1.04068   2.08560   2.06954
N    -1.40182   2.83730   2.87676
C    -1.28609  -0.16741   0.76666
Cl   -0.65204  -1.33747   2.10317
O    -2.62453  -0.23865   0.67025
C    -3.45694   0.19210   1.75690
C    -0.60566  -0.52046  -0.60419
O    -1.19417   0.21372  -1.63830
C    -2.50477  -0.12928  -2.10680
O    -0.64592  -1.87743  -0.78715
C    -0.22950  -2.42123  -2.04717
H     2.70064   2.29645  -3.39018
H     1.03368   2.07216  -4.02499
H     1.46963   3.59401  -3.16122
H     4.16777  -1.20786   1.44875
H     3.58580  -0.38142   2.94260
H     2.81282  -1.91600   2.39626
H    -3.60233   1.28085   1.72368
H    -3.02394  -0.10840   2.72160
H    -4.42218  -0.30887   1.61519
H    -2.77855  -1.15640  -1.83495
H    -3.24777   0.56664  -1.69356
H    -2.48195  -0.03549  -3.20186
H     0.86395  -2.46209  -2.10612
H    -0.62012  -1.83679  -2.89098
H    -0.64579  -3.43605  -2.08491
