19
Generated by autodE on: 2022-10-21. E = -680.983306 Ha
C     3.55795  -1.11732   0.02077
O     2.13552  -0.93715  -0.00755
C     1.68922   0.32627   0.06415
O     2.41739   1.29635   0.14750
C     0.21929   0.37537   0.02902
N    -0.44321  -0.75583  -0.06021
C    -1.03419  -1.76636  -0.14002
C    -1.71758  -2.93517  -0.23427
N    -2.30671  -3.94328  -0.31558
C    -0.54341   1.63182   0.09047
O    -0.05328   2.74167   0.17139
O    -1.86439   1.40122   0.04559
C    -2.71834   2.55206   0.09814
H     4.02837  -0.60970  -0.83384
H     3.72510  -2.19869  -0.04284
H     3.97841  -0.72234   0.95695
H    -2.51958   3.21926  -0.75306
H    -3.74352   2.16774   0.04655
H    -2.56616   3.10275   1.03776
