18
Generated by autodE on: 2022-10-21. E = -881.980610 Ha
C     2.13918  -1.67361   0.02058
O     1.06974  -1.16454   0.82756
C     0.48994  -0.02353   0.39535
Cl    1.50531   1.42403   0.40464
C    -0.81678   0.07032   0.06994
O    -1.66872  -0.97526  -0.05454
C    -1.21275  -2.19300  -0.64823
O    -1.41736   1.27103  -0.07137
C    -2.10854   1.47319  -1.31107
H     2.44637  -2.62643   0.47005
H     1.80140  -1.83785  -1.01531
H     2.99038  -0.97473   0.02251
H    -2.11251  -2.73220  -0.97371
H    -0.57360  -1.98256  -1.52053
H    -0.65801  -2.80793   0.07411
H    -2.50249   2.49701  -1.28397
H    -1.41241   1.36729  -2.15963
H    -2.93985   0.76198  -1.42625
