45
Generated by autodE on: 2022-06-29. E = -4632.124355 Ha
C    -3.21770  -2.97669   1.98333
N    -2.88122  -1.60192   1.65331
C    -1.67935  -1.28131   1.17719
O    -0.75509  -2.08973   1.05635
C    -1.38928   0.22073   0.84723
Br   -3.03852   1.11327   0.06795
C    -1.11771   0.92491   2.17926
C    -0.80561   2.41945   2.15201
C     0.19535   2.88960   1.10416
C     1.62767   2.36194   1.18188
C     1.92084   0.87526   0.88240
Cl    3.67752   0.82010   0.36592
Cl    1.92118  -0.17361   2.38750
C     1.02592   0.27524  -0.19070
C    -0.32072   0.17707  -0.22610
C    -0.73650  -0.27619  -1.65454
C    -1.14966   0.92348  -2.44221
N    -1.34283   1.83976  -3.12589
C    -1.82715  -1.27944  -1.70964
N    -2.63484  -2.10357  -1.80555
N     0.47490  -0.86840  -2.17716
C     1.63182  -0.33545  -1.46042
C     2.34440   0.66419  -2.28430
N     2.80597   1.44821  -3.00266
C     2.57686  -1.54507  -1.13617
O     3.61401  -1.71311  -1.76921
N     2.08954  -2.34726  -0.18299
C     2.78900  -3.51874   0.30549
H    -4.21476  -2.99509   2.43847
H    -2.48854  -3.39340   2.69287
H    -3.22234  -3.60521   1.07838
H    -3.61399  -0.90002   1.66592
H    -0.30713   0.36897   2.66017
H    -2.00113   0.75512   2.81025
H    -0.44532   2.69162   3.15739
H    -1.74180   2.97771   1.99743
H    -0.20307   2.72623   0.09020
H     0.28737   3.98307   1.19831
H     2.20036   2.91329   0.42324
H     2.08504   2.59114   2.15562
H     0.55595  -0.83690  -3.19248
H     1.17725  -2.14045   0.23046
H     2.26602  -4.44509   0.01909
H     2.85783  -3.47883   1.40295
H     3.80082  -3.53812  -0.11681
