18
Generated by autodE on: 2022-07-27. E = -618.953924 Ha
C     3.76080  -1.52588   1.44250
N     2.77536  -0.63630   0.85767
C     1.48520  -0.95849   0.72149
O     0.96835  -2.02718   1.07323
C     0.59277   0.06729   0.08843
C     1.04779   1.32274  -0.36915
N     1.49949   2.33651  -0.72526
N    -0.66441  -0.34437   0.00451
C    -1.80569   0.19704  -0.45926
C    -1.86413   1.50084  -1.00780
N    -1.95892   2.56914  -1.46345
C    -2.99530  -0.57005  -0.38680
N    -3.98441  -1.18425  -0.33609
H     4.21493  -1.06724   2.33392
H     4.55886  -1.74669   0.71754
H     3.27048  -2.46199   1.73161
H     3.09224   0.27286   0.53113
H    -0.72743  -1.30387   0.40386
