27
Generated by autodE on: 2022-06-29. E = -4013.107674 Ha
C    -1.39405   3.59633  -2.37919
N    -0.97095   2.50914  -1.51647
C     0.32654   2.23420  -1.32267
O     1.24312   2.84450  -1.87037
C     0.62963   1.07505  -0.35515
Br    1.01832   1.98603   1.42018
C    -0.43276   0.12578  -0.12188
C    -0.97135  -0.94526   0.05884
C    -1.01794  -2.38359   0.18758
Cl   -2.17248  -2.90970   1.48937
Cl   -1.58950  -3.10042  -1.39528
C     0.40078  -2.88684   0.51152
C     1.52360  -2.33497  -0.39022
C     2.20278  -0.99438   0.01009
C     1.86888   0.27243  -0.79930
H    -0.95078   3.49313  -3.38101
H    -1.08960   4.57314  -1.96981
H    -2.48653   3.57335  -2.46835
H    -1.67537   1.96906  -1.02316
H     0.59635  -2.61501   1.56049
H     0.36794  -3.98494   0.45734
H     1.17092  -2.28956  -1.43356
H     2.30647  -3.10768  -0.38054
H     3.28669  -1.13954  -0.10873
H     2.05140  -0.79852   1.08453
H     1.68994   0.00181  -1.85407
H     2.71844   0.96882  -0.79630
