45
Generated by autodE on: 2022-06-29. E = -4632.050285 Ha. Imaginary frequency = -359.8 cm-1
C    -3.98453  -2.67514   1.52710
N    -3.37754  -1.35675   1.47950
C    -2.12205  -1.18542   1.05760
O    -1.36277  -2.11498   0.77659
C    -1.56750   0.26541   1.03189
Br   -2.92244   1.52800   0.22040
C    -1.30707   0.68939   2.49003
C    -0.62635   2.04335   2.72168
C     0.88851   2.01747   2.96900
C     1.83204   2.12601   1.77110
C     2.07151   0.89367   0.88830
Cl    3.44539   1.37991  -0.22922
Cl    2.67307  -0.50598   1.90306
C     0.89668   0.41894   0.13719
C    -0.35083   0.31132   0.21554
C    -0.91767  -0.51339  -1.82331
C    -0.86677   0.77244  -2.46214
N    -0.86687   1.82210  -2.95960
C    -2.20775  -1.14094  -1.86056
N    -3.25909  -1.63276  -1.89770
N     0.16735  -1.34071  -1.82621
C     1.43069  -0.89201  -1.67989
C     1.93708   0.08015  -2.59800
N     2.36989   0.80814  -3.39439
C     2.32977  -1.97345  -1.10627
O     1.78249  -2.96218  -0.61334
N     3.64812  -1.77679  -1.18680
C     4.60184  -2.64569  -0.52270
H    -4.95218  -2.60079   2.03750
H    -4.14346  -3.07255   0.51153
H    -3.33996  -3.37512   2.07726
H    -3.96724  -0.54270   1.61841
H    -2.27656   0.65735   3.00606
H    -0.69689  -0.11918   2.92658
H    -1.09058   2.47457   3.62089
H    -0.86678   2.73959   1.90160
H     1.13128   2.89463   3.58872
H     1.15757   1.13966   3.57818
H     2.82442   2.41997   2.14154
H     1.49148   2.92335   1.09147
H     0.03790  -2.23833  -1.33002
H     3.98458  -0.87601  -1.51480
H     4.77557  -2.31825   0.51550
H     5.55430  -2.62210  -1.06755
H     4.21734  -3.67265  -0.51044
