46
Generated by autodE on: 2022-06-05. E = -3960.695951 Ha
C    -1.10628   3.87414  -1.72974
N    -0.68648   2.85805  -0.78343
C    -1.52998   1.91703  -0.35567
O    -2.71600   1.87380  -0.69755
C    -0.93711   0.87027   0.64063
C    -1.81208   0.87514   1.93518
O    -1.28142   0.88394   3.04645
N    -3.13437   0.82355   1.75040
C    -4.04963   0.74538   2.87146
N     0.39345   1.32701   1.01736
C     1.28865   0.47953   0.70627
C     2.74197   0.75231   0.99061
O     3.52408  -0.10492   1.34100
O     3.04174   2.03280   0.82227
C     4.40028   2.41932   1.09963
C     0.82944  -0.80662   0.06838
Br    1.79738  -0.87080  -1.67443
C     1.07258  -2.06059   0.93615
C     0.48519  -3.31729   0.25783
C    -1.04313  -3.16800   0.49822
C    -1.16588  -1.74576   1.08652
C     0.04392  -1.78287   2.04681
C    -0.74668  -0.62911   0.05472
C    -1.42594  -0.82257  -1.31095
F    -1.04625  -1.94622  -1.94262
F    -2.76034  -0.89864  -1.16498
F    -1.16101   0.17333  -2.17572
H    -1.93105   4.47947  -1.32270
H    -1.45078   3.41327  -2.66859
H    -0.25386   4.52916  -1.94465
H     0.26233   2.86427  -0.42081
H    -3.47498   0.96038   0.79768
H    -3.79879  -0.11139   3.51560
H    -5.06918   0.61669   2.48818
H    -4.01432   1.65742   3.48961
H     4.45216   3.49468   0.89774
H     4.64489   2.21188   2.15088
H     5.09079   1.87061   0.44361
H     2.12005  -2.14220   1.24090
H     0.88767  -4.21748   0.74245
H     0.74647  -3.36968  -0.80721
H    -1.65686  -3.36095  -0.38608
H    -1.38021  -3.86300   1.28045
H    -2.14570  -1.54803   1.53049
H    -0.03402  -2.61843   2.75583
H     0.21975  -0.86260   2.61157
