20
Generated by autodE on: 2022-06-05. E = -3183.644360 Ha
F     1.44103  -2.20712   0.49854
C     1.50769  -1.09124  -0.26856
F     2.26013  -0.20254   0.39544
F     2.19648  -1.44314  -1.37742
C     0.15145  -0.59504  -0.61224
C    -0.53219   0.48211  -0.18326
Br   -0.01749   1.83425   1.02345
C    -1.95898   0.37422  -0.68927
C    -2.60318  -0.78691   0.13701
C    -1.83323  -2.04090  -0.36506
C    -0.83853  -1.44104  -1.40956
C    -1.70616  -0.33181  -2.03762
H    -2.52670   1.31147  -0.69421
H    -2.50177  -0.61940   1.21854
H    -3.67589  -0.84999  -0.09579
H    -1.30263  -2.57247   0.43626
H    -2.50728  -2.75522  -0.85992
H    -0.37800  -2.17216  -2.08484
H    -1.15437   0.29401  -2.75352
H    -2.62802  -0.71374  -2.50076
