46
Generated by autodE on: 2022-06-05. E = -3960.614211 Ha. Imaginary frequency = -323.7 cm-1
C    -1.18451   3.62101  -2.31374
N    -0.76843   2.97961  -1.08162
C    -1.63531   2.25293  -0.35509
O    -2.84716   2.21009  -0.61976
C    -1.06807   1.47207   0.78754
C    -1.87856   1.05839   1.97889
O    -1.32834   0.76986   3.05024
N    -3.20516   1.00350   1.79096
C    -4.09432   0.54338   2.83623
N     0.24119   1.47711   0.94354
C     1.27913   0.87603   0.80569
C     2.70495   1.19452   1.02276
O     3.30482   1.95778   0.29997
O     3.20289   0.49660   2.02914
C     4.60458   0.68424   2.31816
C     0.77792  -1.01638  -0.14983
Br    1.82156  -0.76527  -1.75138
C     1.27282  -2.02605   0.88539
C     0.89068  -3.43342   0.33345
C    -0.65830  -3.45975   0.46802
C    -0.98337  -2.02362   0.99579
C     0.19958  -1.83105   1.96893
C    -0.61463  -1.05954  -0.13295
C    -1.50566  -0.90332  -1.31489
F    -1.19310   0.14740  -2.09804
F    -1.46449  -1.99073  -2.13621
F    -2.79904  -0.77291  -0.95630
H    -0.34382   4.20276  -2.71004
H    -1.49094   2.87541  -3.06591
H    -2.03398   4.29744  -2.13696
H     0.21884   2.97494  -0.84805
H    -3.54886   1.27205   0.86687
H    -4.00087   1.16244   3.74273
H    -3.87575  -0.49998   3.11767
H    -5.12780   0.60202   2.47347
H     5.20661   0.40200   1.44344
H     4.79635   1.73282   2.58397
H     4.82173   0.02580   3.16568
H     2.32118  -1.90747   1.17973
H     1.36538  -4.20965   0.95049
H     1.23508  -3.57023  -0.70148
H    -1.17122  -3.68830  -0.47382
H    -0.98166  -4.19641   1.21834
H    -1.99546  -1.89860   1.39844
H     0.23407  -2.61823   2.73582
H     0.22358  -0.85037   2.45391
