46
Generated by autodE on: 2022-06-23. E = -1143.410020 Ha
C    -1.71537  -2.86721   1.64031
O    -1.84060  -1.96551   0.53008
C    -1.57688  -0.67895   0.75970
O    -1.35105  -0.23249   1.86699
C    -1.56693   0.14911  -0.53379
C    -2.85253  -0.10508  -1.32757
C    -0.27302  -0.14327  -1.37256
C     0.82186   0.67736  -0.66144
C     1.53110  -0.06806   0.48632
C     1.69628  -1.53633   0.20190
C     2.56478  -2.38587   1.02913
N     3.20661  -1.77375   2.05706
O     2.71973  -3.60851   0.82975
C     0.98373  -2.13693  -0.79203
N     0.10739  -1.51237  -1.61645
C    -0.64950  -2.29400  -2.58271
C     0.02408   1.94606  -0.18224
C     0.39288   2.35046   1.19713
N     0.58628   2.71043   2.28310
C     0.41505   3.15167  -1.09676
C    -0.37581   3.35226  -2.35050
O     1.35471   3.85187  -0.77590
N    -1.37205   1.57128  -0.28787
C    -2.35536   2.35975   0.42541
H    -2.38254  -2.56752   2.46032
H    -1.99746  -3.85528   1.25958
H    -0.67358  -2.88035   1.99393
H    -2.83458   0.49199  -2.25030
H    -3.73880   0.17605  -0.74065
H    -2.95125  -1.16360  -1.59041
H    -0.47433   0.31979  -2.34844
H     1.57761   0.97249  -1.40048
H     2.50927   0.41511   0.63986
H     0.98173   0.06094   1.43029
H     3.07517  -0.79591   2.28156
H     3.78755  -2.33708   2.66804
H     1.11717  -3.20463  -0.97535
H    -0.00304  -3.06781  -3.02029
H    -1.00148  -1.63897  -3.39148
H    -1.52297  -2.78852  -2.12673
H     0.08070   4.15181  -2.94746
H    -0.42713   2.41997  -2.93294
H    -1.41198   3.61929  -2.09008
H    -3.35595   2.18110   0.00852
H    -2.13182   3.42933   0.29179
H    -2.38712   2.15050   1.51029
