26
Generated by autodE on: 2022-06-23. E = -685.646788 Ha
C     3.10707   2.01774  -0.26020
O     2.49257   0.87694   0.35881
C     1.51038   0.29411  -0.31882
O     1.18265   0.59492  -1.44778
C     0.96050  -0.89743   0.41464
C     1.90448  -1.77390   1.16507
N    -0.30310  -1.22466   0.27196
C    -0.75038  -2.55029   0.74361
C    -1.30003  -0.31032  -0.13648
C    -2.43034  -0.81593  -0.80371
N    -3.37850  -1.20567  -1.36904
C    -1.24890   1.05712   0.29545
C    -2.45531   1.92173   0.00531
O    -0.26413   1.53224   0.89212
H     3.56971   1.73382  -1.21602
H     3.86983   2.36774   0.44412
H     2.35490   2.80113  -0.43090
H     2.85221  -1.25279   1.33249
H     1.48113  -2.07760   2.13440
H     2.11239  -2.69493   0.59276
H    -1.75948  -2.74035   0.36757
H    -0.76756  -2.55728   1.84244
H    -0.07011  -3.32731   0.37812
H    -2.33484   2.88543   0.51671
H    -2.52658   2.10118  -1.08032
H    -3.39475   1.44611   0.32306
