20
Generated by autodE on: 2022-05-30. E = -603.163308 Ha
C     4.18677  -0.24169   0.09121
N     2.87708   0.15275  -0.39023
C     1.73347  -0.21491   0.20400
O     1.64538  -0.92291   1.21283
C     0.47297   0.28712  -0.42871
C     0.41888   1.11467  -1.57652
N     0.42044   1.79590  -2.52084
N    -0.63740  -0.09580   0.16829
N    -1.85541   0.18887  -0.16384
C    -2.75868  -0.41117   0.72830
C    -4.19090  -0.12632   0.40593
O    -2.39081  -1.09899   1.67716
H     4.06669  -0.84720   0.99644
H     4.79361   0.64492   0.33007
H     4.71799  -0.83432  -0.66930
H     2.83280   0.73492  -1.22247
H    -0.49150  -0.70195   1.00892
H    -4.41559  -0.46600  -0.61766
H    -4.36525   0.96141   0.42863
H    -4.85038  -0.62809   1.12413
