26
Generated by autodE on: 2022-07-27. E = -573.502493 Ha
C     2.81614   1.37989   0.18706
N     2.35178   0.39144  -0.77108
C     1.26996  -0.40178  -0.62597
O     0.76517  -1.01036  -1.57945
C     0.80686  -0.68945   0.76659
C     1.78777  -1.11866   1.81338
N    -0.48071  -0.82835   1.02983
C    -1.62081  -0.37223   0.41249
C    -2.89915  -1.04613   0.82352
C    -1.57372   0.79285  -0.39901
C    -2.89528   1.32871  -0.91858
O    -0.51453   1.41869  -0.65956
H     1.98915   1.71010   0.83035
H     3.18679   2.25723  -0.36065
H     3.63408   1.00428   0.82215
H     2.67183   0.48254  -1.73169
H     2.66891  -1.59598   1.36046
H     2.14794  -0.26546   2.41347
H     1.31881  -1.83241   2.51056
H    -0.66928  -1.34826   1.89302
H    -2.74123  -1.65566   1.72875
H    -3.28508  -1.72891   0.04475
H    -3.70090  -0.32553   1.04514
H    -2.69897   2.18556  -1.57708
H    -3.55043   1.65539  -0.09404
H    -3.44617   0.55800  -1.48128
