26
Generated by autodE on: 2022-06-19. E = -573.521778 Ha
C    -4.33815  -0.11413  -0.13642
N    -3.04918  -0.77467  -0.09963
C    -1.89890  -0.07251  -0.04799
O    -1.89140   1.17567  -0.03772
C    -0.63558  -0.84505  -0.00465
C    -0.62359  -2.33844   0.00637
N     0.42236  -0.05069   0.01912
C     1.76977  -0.15439   0.04789
C     2.48873  -1.46429   0.05640
C     2.40982   1.13948   0.06370
C     3.91913   1.21333   0.09170
O     1.73612   2.19572   0.05329
H    -4.42791   0.54159  -1.01736
H    -5.12565  -0.87610  -0.18209
H    -4.49693   0.50558   0.76085
H    -3.02074  -1.78718  -0.11513
H    -1.22218  -2.72345   0.84981
H    -1.07361  -2.74132  -0.91776
H     0.38292  -2.75241   0.09627
H     0.14131   0.95068   0.01152
H     2.25715  -2.06162   0.95491
H     2.23586  -2.08013  -0.82321
H     3.57302  -1.30594   0.04207
H     4.32703   0.70199   0.97824
H     4.22538   2.26738   0.11040
H     4.35700   0.72599  -0.79430
