42
Generated by autodE on: 2022-05-30. E = -1140.972490 Ha
C    -3.85406  -2.25953   0.94364
N    -2.97220  -1.28149   0.33856
C    -2.19939  -0.44483   1.04025
O    -2.15211  -0.38992   2.27169
C    -1.32173   0.51881   0.21261
C    -1.79640   1.94019   0.64153
O    -1.26395   2.51793   1.58633
N    -2.82754   2.41901  -0.06840
C    -3.45275   3.70231   0.18296
N    -1.52280   0.34700  -1.22899
C    -0.38037   0.26601  -1.79978
C    -0.27759   0.12349  -3.22851
N    -0.15044   0.00348  -4.37656
C     0.83814   0.28751  -0.92207
C     1.56237  -1.10021  -0.87100
O     0.62616  -1.86829  -0.11142
C     0.65031  -1.03917   1.05666
C     2.14381  -0.89575   1.33535
C     2.64026  -0.62733   2.70562
C     2.72127  -0.94156   0.10817
C     4.08428  -0.69370  -0.37037
C     5.23479  -0.66633   0.59972
O     4.26454  -0.50435  -1.57484
C     0.19878   0.34810   0.49526
H    -3.87099  -2.10157   2.02829
H    -4.87534  -2.15248   0.54891
H    -3.50622  -3.28440   0.73912
H    -2.92121  -1.22241  -0.67424
H    -3.15375   1.85938  -0.85080
H    -3.01835   4.13914   1.08959
H    -3.28920   4.39391  -0.65849
H    -4.53672   3.58109   0.32860
H     1.52524   1.10070  -1.18922
H     1.78144  -1.55771  -1.84109
H     0.04145  -1.45108   1.86600
H     2.09300   0.23457   3.12570
H     2.40663  -1.48549   3.35910
H     3.71439  -0.42226   2.75598
H     5.19772  -1.51976   1.29247
H     6.18040  -0.67021   0.04169
H     5.18304   0.25368   1.20507
H     0.55741   1.16975   1.12116
