23
Generated by autodE on: 2022-06-22. E = -351.521383 Ha
C     3.58542   0.79898   0.89730
C     2.56575   0.25038   0.20080
C     2.81789  -0.60955  -1.01127
C     1.18546   0.48814   0.61843
C     0.07833  -0.00019   0.00478
C    -1.27075   0.26710   0.45982
C    -2.42438  -0.17436  -0.10237
C    -2.49356  -1.03633  -1.33094
C    -3.75682   0.18756   0.49034
H     4.62734   0.63797   0.60692
H     3.39871   1.42281   1.77687
H     2.39793  -1.62016  -0.87605
H     2.33393  -0.18562  -1.90685
H     3.89380  -0.70693  -1.21372
H     1.05572   1.11853   1.50640
H     0.19979  -0.62947  -0.88102
H    -1.35263   0.89464   1.35559
H    -1.51094  -1.28278  -1.75339
H    -3.08865  -0.53563  -2.11503
H    -3.01864  -1.98151  -1.10603
H    -4.37936   0.72676  -0.24628
H    -3.65665   0.81598   1.38744
H    -4.32433  -0.72084   0.76152
