28
Generated by autodE on: 2022-06-22. E = -765.709376 Ha
C    -2.79535  -2.58932   1.32089
O    -1.92495  -1.56750   0.82562
C    -2.51461  -0.42770   0.38375
O    -3.73162  -0.28665   0.41160
C    -1.56971   0.55119  -0.10283
O    -0.21190   0.33795  -0.12418
C     0.56736  -0.61096   0.22444
C     1.98090  -0.46323   0.03803
C     2.55824   0.70043  -0.52187
C     3.93658   0.77882  -0.67561
C     4.75413  -0.29048  -0.27746
C     4.19045  -1.44506   0.27748
C     2.81020  -1.53543   0.43619
C    -1.92723   1.85095  -0.61897
C    -0.79539   2.74153  -1.10161
O    -3.09811   2.25450  -0.67788
H    -2.14455  -3.41685   1.62774
H    -3.48878  -2.92596   0.53623
H    -3.37420  -2.22535   2.18247
H     0.14415  -1.51841   0.65742
H     1.91617   1.52700  -0.82838
H     4.38524   1.67561  -1.10780
H     5.83709  -0.22014  -0.40212
H     4.83058  -2.27408   0.58576
H     2.35716  -2.43064   0.86806
H    -0.22575   2.25921  -1.91076
H    -0.08561   2.95854  -0.28850
H    -1.22903   3.68079  -1.46842
