51
Generated by autodE on: 2022-06-22. E = -1117.235118 Ha. Imaginary frequency = -350.6 cm-1
C     2.50555  -4.74424   1.13967
O     1.30380  -3.96409   1.15287
C     0.76893  -3.71718   2.36188
O     1.28176  -4.11498   3.39680
C    -0.43802  -2.88003   2.29763
C    -1.48041  -2.90191   3.32801
C    -1.15036  -3.42148   4.70384
O    -2.61370  -2.47575   3.08088
C     0.36239  -0.83377   2.86216
C    -0.01849   0.03611   1.83770
C    -1.09668   1.06461   2.10484
C     0.84306   0.27303   0.68074
C     1.88873  -0.48863   0.27284
C     2.63414  -0.22396  -0.94022
C     3.67724  -0.93807  -1.43270
C     4.32248  -0.56239  -2.73697
C     4.26468  -2.14570  -0.75820
C    -1.48802  -1.50154   0.69727
C    -1.48296  -1.11194  -0.68660
C    -2.38314  -0.11715  -1.12445
C    -2.32063   0.35771  -2.43268
C    -1.36800  -0.15674  -3.32175
C    -0.47840  -1.15303  -2.89859
C    -0.52864  -1.62849  -1.59128
O    -0.77003  -2.55861   1.01881
H     2.79733  -4.82996   0.08726
H     2.32197  -5.74195   1.56454
H     3.29915  -4.24597   1.71401
H    -0.90089  -4.49228   4.66574
H    -0.27513  -2.90614   5.12405
H    -2.02676  -3.26494   5.34652
H    -0.14241  -0.76470   3.82734
H     1.37292  -1.24209   2.89431
H    -1.81268   0.70805   2.85947
H    -0.64640   1.99976   2.48227
H    -1.65274   1.32441   1.19084
H     0.55530   1.12189   0.04983
H     2.16377  -1.36887   0.85999
H     2.29101   0.63844  -1.52465
H     4.27554  -1.40272  -3.45335
H     5.39629  -0.34132  -2.59779
H     3.84434   0.31349  -3.20004
H     3.84985  -2.33411   0.23931
H     4.10200  -3.04963  -1.37242
H     5.35884  -2.03563  -0.65976
H    -2.27289  -1.17760   1.37322
H    -3.12556   0.27691  -0.42726
H    -3.01810   1.12968  -2.76523
H    -1.32096   0.21715  -4.34715
H     0.26426  -1.55302  -3.59253
H     0.16796  -2.39512  -1.25294
