23
Generated by autodE on: 2022-06-19. E = -351.521382 Ha
C    -3.63454  -0.90425   0.52266
C    -2.57637  -0.13751   0.17888
C    -2.76162   1.26586  -0.33939
C    -1.21967  -0.66580   0.30772
C    -0.07871   0.00162   0.00166
C     1.24447  -0.56947   0.14940
C     2.42929   0.02988  -0.13104
C     3.72724  -0.69854   0.07603
C     2.56976   1.42960  -0.65855
H    -3.49704  -1.92263   0.89909
H    -4.65997  -0.53412   0.43669
H    -2.33052   1.37716  -1.34822
H    -2.24716   1.99842   0.30456
H    -3.82613   1.53526  -0.38698
H    -1.13935  -1.69160   0.68723
H    -0.15116   1.02475  -0.37682
H     1.27626  -1.59743   0.53040
H     3.57603  -1.71684   0.46335
H     4.29395  -0.76526  -0.87016
H     4.37629  -0.14907   0.78145
H     3.10615   1.42133  -1.62391
H     3.18688   2.03595   0.02790
H     1.61250   1.94645  -0.80396
