19
Generated by autodE on: 2022-06-19. E = -477.529338 Ha
C    -2.88577  -1.21631  -0.59760
C    -2.54918   0.18163  -0.14360
O    -3.38778   1.06333   0.06034
C    -1.16028   0.40751   0.03465
N     0.00079   0.58873   0.18125
C     1.30161   0.56894   0.27606
C     2.06601   1.78442   0.70840
C     1.91434  -0.72054  -0.07107
C     3.41559  -0.79651   0.01988
O     1.22843  -1.68632  -0.41883
H    -3.42527  -1.15383  -1.55626
H    -1.99072  -1.84302  -0.71730
H    -3.56152  -1.67286   0.14329
H     2.63854   1.58638   1.62930
H     2.78707   2.09510  -0.06496
H     1.38249   2.62229   0.90023
H     3.75272  -0.56071   1.04213
H     3.87953  -0.05354  -0.64883
H     3.75078  -1.80417  -0.25747
