42
Generated by autodE on: 2022-05-30. E = -1131.841765 Ha
C     2.42638  -1.88289   2.62710
O     2.02711  -1.07417   1.50781
C     0.75700  -0.67483   1.47393
O    -0.05853  -0.95232   2.32472
C     0.46367   0.10747   0.20104
C     1.71250   0.83617  -0.40579
C     2.32308   1.69427   0.69371
C     1.47717   2.71852   0.85481
C     0.36305   2.48499  -0.15635
O     1.05228   1.81834  -1.21821
C    -0.51094   1.31982   0.41376
F    -0.74204   1.58611   1.75487
C    -1.85328   0.97422  -0.30714
C    -2.09090   1.84632  -1.55145
C    -3.03890   1.13997   0.64811
N    -1.68638  -0.46991  -0.63669
C    -2.62924  -1.05724  -1.57505
C    -0.30087  -0.80953  -0.83386
C     0.14442  -0.56847  -2.23663
N     0.34197  -0.45484  -3.37457
C     0.05435  -2.31977  -0.56797
C    -0.84539  -3.14650   0.29878
O     1.07319  -2.75306  -1.06399
H     2.28092  -1.33046   3.56587
H     3.48814  -2.10412   2.47275
H     1.83893  -2.81170   2.64878
H     2.37711   0.19733  -0.99476
H     3.21985   1.44547   1.25804
H     1.50387   3.52236   1.58927
H    -0.18970   3.35730  -0.51269
H    -1.27051   1.77903  -2.27668
H    -3.02052   1.54066  -2.05088
H    -2.20846   2.89851  -1.25801
H    -3.13190   2.18847   0.96516
H    -3.97120   0.85909   0.13742
H    -2.91958   0.51075   1.53926
H    -2.49237  -0.70876  -2.61572
H    -3.65487  -0.82038  -1.26293
H    -2.52963  -2.15158  -1.57359
H    -1.54321  -2.54493   0.88704
H    -0.22659  -3.78480   0.94507
H    -1.42244  -3.81037  -0.36725
