42
Generated by autodE on: 2022-05-30. E = -1131.760415 Ha. Imaginary frequency = -316.8 cm-1
C     2.37040  -2.35506   2.11110
O     2.05242  -1.22228   1.29558
C     0.81413  -0.70241   1.42513
O    -0.01162  -1.14931   2.21070
C     0.62868   0.43643   0.54590
C     1.79837   1.22459  -0.06909
C     2.30778   2.13349   1.07455
C     1.34809   3.05054   1.24305
C     0.27147   2.70174   0.18640
O     1.09088   2.19047  -0.86675
C    -0.38585   1.38284   0.65537
F    -1.21423   1.44301   1.71869
C    -1.96483   0.84507  -0.87318
C    -1.53875   1.63838  -2.08476
C    -3.19545   1.40708  -0.21356
N    -1.77354  -0.51279  -0.82129
C    -2.76970  -1.30244  -0.07243
C    -0.60105  -1.13297  -1.21681
C     0.21524  -0.58590  -2.25108
N     0.92817  -0.24297  -3.10736
C    -0.08263  -2.47077  -0.82285
C    -0.74096  -3.41543   0.15241
O     0.99390  -2.81429  -1.32222
H     2.27128  -2.10692   3.17796
H     3.41092  -2.61095   1.87929
H     1.71262  -3.20247   1.87154
H     2.53119   0.66552  -0.65758
H     3.22684   1.97467   1.63724
H     1.27142   3.85694   1.97118
H    -0.39640   3.50146  -0.14798
H    -0.46624   1.66288  -2.26283
H    -2.03970   1.21067  -2.97024
H    -1.88398   2.67249  -1.96776
H    -3.06172   2.49117  -0.10284
H    -4.07891   1.25165  -0.85868
H    -3.40187   0.98532   0.77487
H    -3.76346  -0.89089  -0.26342
H    -2.56271  -1.28357   1.00480
H    -2.76980  -2.32520  -0.44459
H    -1.08683  -2.92770   1.06883
H     0.00560  -4.17974   0.40323
H    -1.59780  -3.91753  -0.32350
