23
Generated by autodE on: 2022-06-17. E = -351.521384 Ha
C    -3.01010  -2.16773   0.73325
C    -1.83264  -1.81659   0.17104
C    -1.12041  -2.73117  -0.79251
C    -1.22547  -0.52697   0.49412
C    -0.05159  -0.05929   0.00014
C     0.50570   1.23011   0.35468
C     1.66833   1.76865  -0.09225
C     2.59903   1.09411  -1.05964
C     2.11509   3.12637   0.37112
H    -3.52422  -1.50101   1.43249
H    -3.48687  -3.12610   0.50936
H    -1.68296  -3.66263  -0.94742
H    -0.11437  -2.99141  -0.42347
H    -0.97938  -2.24443  -1.77188
H    -1.78343   0.10173   1.19857
H     0.51082  -0.68021  -0.70259
H    -0.08712   1.82366   1.06117
H     2.73841   1.72261  -1.95698
H     2.25503   0.10414  -1.38562
H     3.60061   0.97896  -0.60884
H     1.40409   3.57974   1.07733
H     3.10398   3.06693   0.86044
H     2.24065   3.81138  -0.48670
