16
Generated by autodE on: 2022-06-17. E = -492.340646 Ha
C    -3.39453   1.16960   0.33647
O    -2.45863   0.09458   0.16193
C    -1.18388   0.43686  -0.02540
O    -0.77355   1.58137  -0.06081
C    -0.32427  -0.76791  -0.18986
C    -0.87551  -2.16114  -0.16361
N     0.92075  -0.53047  -0.35849
C     2.06490  -0.22455  -0.64784
C     3.19598  -0.01514   0.14120
N     4.22108   0.18998   0.66517
H    -3.40400   1.81624  -0.55266
H    -3.13001   1.76593   1.22158
H    -4.37332   0.69659   0.47436
H    -1.63002  -2.28230  -0.95672
H    -1.37135  -2.35542   0.80016
H    -0.07423  -2.89628  -0.31121
