39
Generated by autodE on: 2022-06-17. E = -843.860511 Ha. Imaginary frequency = -361.4 cm-1
C    -1.74906  -3.63624   0.85229
C    -1.03554  -2.82659   0.04473
C    -0.98019  -3.04344  -1.44353
C    -0.29668  -1.67922   0.61467
C    -1.99168  -0.29330   0.34692
C    -3.15796  -0.54723   1.07363
N    -4.04850  -0.89163   1.74591
N    -1.65164   0.53469  -0.48524
C    -0.59307   0.95693  -1.15715
C    -0.49405   0.74881  -2.63496
C     0.26568   1.95918  -0.51257
O     1.22114   2.47920  -1.06801
O    -0.07887   2.21233   0.75773
C     0.74334   3.14077   1.47546
C     0.76310  -1.04298  -0.03188
C     1.77123  -0.30403   0.69804
C     2.94077   0.18092   0.20915
C     3.38977   0.01740  -1.21606
C     3.89642   0.92877   1.09461
H    -2.30706  -4.48819   0.45422
H    -1.79229  -3.46561   1.93207
H     0.05105  -3.23264  -1.78416
H    -1.60352  -3.89751  -1.74302
H    -1.33124  -2.14965  -1.98473
H    -0.33047  -1.60369   1.70691
H     0.56555   0.72638  -2.92345
H    -0.97112  -0.19565  -2.92854
H    -0.97644   1.57195  -3.19074
H     0.74098   4.12173   0.97817
H     1.77468   2.77055   1.54970
H     0.30046   3.22407   2.47474
H     0.95858  -1.28775  -1.07619
H     1.55310  -0.12692   1.75756
H     3.62054   0.99961  -1.66132
H     2.64713  -0.47870  -1.85418
H     4.32480  -0.57003  -1.25853
H     3.54001   0.98800   2.13343
H     4.04779   1.95733   0.72034
H     4.89368   0.45278   1.09471
