46
Generated by autodE on: 2022-05-30. E = -1183.562701 Ha
C     4.41161  -0.87023   0.51985
N     3.19186  -0.11076   0.35541
C     2.56276   0.00314  -0.82279
O     3.03854  -0.41457  -1.88764
C     1.15365   0.64242  -0.76909
C     1.00707   1.53314  -2.01717
N     0.96275   1.35410   0.49320
C     1.68316   2.60661   0.64931
C    -0.45055   1.34663   0.93049
C    -1.20474   2.60832   0.44030
C    -0.50861   1.39216   2.46742
C    -0.99234  -0.03419   0.33531
C    -2.42424   0.08487  -0.18521
F    -2.94653  -1.07523  -0.63146
F    -3.25629   0.49793   0.80059
F    -2.56392   0.94692  -1.21080
C    -0.88873  -1.19930   1.41772
C    -1.36523  -2.52262   0.83727
C    -0.40080  -2.90324  -0.00624
C     0.63970  -1.80013   0.06387
O     0.52878  -1.38890   1.43351
C     0.08917  -0.52692  -0.71556
C    -0.38108  -0.93558  -2.11184
H     4.21922  -1.95792   0.52779
H     5.10490  -0.65444  -0.30515
H     4.89033  -0.59367   1.46841
H     2.63296   0.16446   1.16136
H     1.70171   2.38248  -1.95380
H     1.25376   0.97938  -2.92921
H    -0.01228   1.92632  -2.11090
H     1.32200   3.43120   0.00805
H     1.62435   2.94412   1.69419
H     2.74630   2.45305   0.41854
H    -1.17983   2.73403  -0.64642
H    -0.73606   3.49195   0.89332
H    -2.25126   2.60386   0.76744
H    -1.54198   1.26513   2.82099
H    -0.16168   2.37316   2.82179
H     0.12761   0.62631   2.92698
H    -1.27857  -0.93969   2.40338
H    -2.32611  -2.99118   1.04339
H    -0.36923  -3.76545  -0.67132
H     1.66080  -2.09404  -0.19091
H    -1.10646  -1.75496  -2.06536
H    -0.84892  -0.10967  -2.65741
H     0.48760  -1.28123  -2.69180
