19
Generated by autodE on: 2022-05-30. E = -684.055141 Ha
C    -1.25396  -2.25175   0.27486
C    -0.27995  -1.26200  -0.24420
C    -0.17071   0.07259  -0.16343
C    -0.97947   1.08270   0.54802
F    -0.29348   1.61469   1.59060
F    -2.13279   0.60059   1.04529
F    -1.30362   2.12680  -0.24975
C     1.19028   0.42003  -0.82221
C     2.29134  -0.13422   0.10881
C     2.18361  -1.46279   0.00962
C     1.02233  -1.68815  -0.98211
O     1.20430  -0.56790  -1.86488
H    -0.73628  -2.94666   0.95974
H    -1.64903  -2.86752  -0.55069
H    -2.09057  -1.78509   0.80780
H     1.30850   1.43899  -1.20567
H     2.94394   0.47048   0.73744
H     2.72126  -2.25045   0.53607
H     0.98374  -2.64304  -1.51750
