27
Generated by autodE on: 2022-05-30. E = -499.429919 Ha
C     3.39907   1.21288  -0.25589
N     2.50106   0.09176  -0.07912
C     1.13736   0.32309   0.09887
O     0.76323   1.49271   0.40411
C     0.28729  -0.81020  -0.02146
C     0.82175  -2.21182  -0.16596
N    -1.08610  -0.64765   0.25008
C    -1.69041  -1.51672   1.27679
C    -1.82835   0.29870  -0.29991
C    -3.18413   0.60580   0.25456
C    -1.34554   1.04607  -1.48446
H     4.43141   0.84095  -0.31879
H     3.33669   1.90067   0.59976
H     3.19187   1.80576  -1.16819
H     2.75040  -0.74917  -0.58697
H     1.37188  -2.58738   0.71945
H     1.51903  -2.28810  -1.01996
H     0.01391  -2.92652  -0.38032
H    -1.88331  -0.93122   2.18736
H    -2.63444  -1.95097   0.92272
H    -0.99217  -2.32006   1.52461
H    -3.57609   1.52725  -0.19392
H    -3.16340   0.73008   1.34889
H    -3.89968  -0.20705   0.03745
H    -2.19619   1.37601  -2.09829
H    -0.76056   1.93052  -1.17493
H    -0.65288   0.41796  -2.06998
