27
Generated by autodE on: 2022-07-27. E = -499.426589 Ha
C     2.49374  -2.38113   0.42550
N     1.54845  -1.28561   0.46327
C     1.20527  -0.62755  -0.71440
O     1.86542  -0.88542  -1.76098
C     0.12271   0.29759  -0.69868
C    -0.37524   0.88922  -1.98501
N    -0.49193   0.69041   0.51324
C     0.35515   1.25887   1.58100
C    -1.80649   0.73764   0.65144
C    -2.67532  -0.02118  -0.28645
C    -2.43305   1.51104   1.76755
H     3.45440  -2.05431   0.00116
H     2.67514  -2.73306   1.45081
H     2.14405  -3.24093  -0.17771
H     0.82426  -1.36073   1.16869
H    -0.82303   1.88234  -1.81225
H    -1.13419   0.29250  -2.53040
H     0.47373   1.01587  -2.67497
H     0.24876   2.35346   1.58409
H     0.06465   0.86708   2.56481
H     1.39660   1.00433   1.37565
H    -2.14121  -0.90899  -0.66119
H    -3.60039  -0.31923   0.22905
H    -2.97130   0.57288  -1.16950
H    -3.50373   1.65395   1.57193
H    -1.96505   2.49730   1.90743
H    -2.33764   0.96886   2.72566
