17
Generated by autodE on: 2022-07-27. E = -638.812492 Ha
C     3.21217   2.60067   0.67739
O     2.23113   1.57545   0.92232
C     1.41538   1.27584  -0.07446
O     1.42582   1.77639  -1.18378
C     0.44150   0.22289   0.29636
C     0.46258  -0.39469   1.56568
N     0.52756  -0.88194   2.60391
N    -0.40758  -0.10185  -0.67693
C    -1.45453  -0.94023  -0.74672
C    -2.10159  -1.11198  -1.99668
N    -2.64284  -1.27049  -3.01127
C    -1.94982  -1.64440   0.37880
N    -2.40759  -2.22760   1.27144
H     2.71899   3.52404   0.34377
H     3.72109   2.75981   1.63410
H     3.92609   2.26134  -0.08640
H    -0.20513   0.43510  -1.53807
