17
Generated by autodE on: 2022-05-31. E = -3306.076366 Ha
Cl    1.10594   2.15235  -0.19880
C     0.01341   1.01228   0.49875
C    -0.03843  -0.31607   0.29994
Br    1.06534  -1.35238  -0.81623
C    -1.33016  -0.81950   0.92468
C    -2.48137  -0.28109   0.01498
C    -2.41735   1.25700   0.24505
C    -1.23964   1.41035   1.26152
C    -1.43547   0.14636   2.12493
H    -1.36328  -1.89558   1.13179
H    -2.33268  -0.56730  -1.03583
H    -3.44416  -0.69764   0.34577
H    -3.34802   1.63628   0.69208
H    -2.22813   1.82475  -0.67694
H    -1.18428   2.37920   1.77183
H    -0.63620   0.00193   2.86562
H    -2.41919   0.11136   2.61700
