23
Generated by autodE on: 2022-06-01. E = -649.398825 Ha
C    -0.34666  -2.53993  -0.14836
C    -0.62961  -1.13307   0.24848
C     0.13160  -0.01653   0.24469
C     1.52721   0.18370  -0.20723
F     2.21265  -0.95659  -0.41758
F     1.58528   0.88886  -1.36799
F     2.24631   0.90373   0.68881
C    -0.76270   1.17174   0.58271
C    -1.69581   1.37717  -0.65208
C    -2.56939   0.08999  -0.63421
C    -2.03582  -0.67737   0.62005
C    -1.73310   0.49663   1.57140
H    -1.01425  -2.82835  -0.97913
H     0.69110  -2.70355  -0.46007
H    -0.58141  -3.22308   0.68572
H    -0.23950   2.07543   0.91954
H    -1.11614   1.49373  -1.57809
H    -2.30899   2.28118  -0.51941
H    -3.63544   0.32768  -0.50269
H    -2.47091  -0.51164  -1.54945
H    -2.69849  -1.47473   0.98075
H    -1.24400   0.17950   2.50427
H    -2.61765   1.11025   1.80203
