18
Generated by autodE on: 2022-06-01. E = -605.729077 Ha
C     4.30738  -0.93579   0.29274
O     2.86718  -0.82266   0.31820
C     2.34509   0.19662  -0.33786
O     2.92421   1.05587  -0.96426
C     0.89862   0.19410  -0.23306
N    -0.26111   0.32318  -0.21024
C    -1.58164   0.30149  -0.07549
C    -2.35324   1.31187  -0.69357
N    -3.01560   2.13273  -1.19261
C    -2.14714  -0.79804   0.72537
C    -3.64356  -0.81160   0.87858
O    -1.41014  -1.64022   1.22814
H     4.76036  -0.04465   0.74842
H     4.65516  -1.04693  -0.74341
H     4.54078  -1.83124   0.87791
H    -3.98453   0.11665   1.36469
H    -3.94128  -1.67794   1.48243
H    -4.12983  -0.85944  -0.10891
