57
Generated by autodE on: 2022-10-22. E = -1362.288552 Ha
C    -2.35461  -2.11848   1.31407
O    -1.58205  -0.97021   0.98904
C    -0.71676  -1.03641  -0.12323
O    -0.17827  -2.31615  -0.20001
C     0.03539  -2.96966  -1.45009
C    -1.46815  -0.48660  -1.37635
C    -2.86051  -1.08402  -1.59144
C    -4.06127  -0.36624  -1.04514
O    -2.97628  -2.12316  -2.22246
N    -1.46473   0.95937  -1.17665
C    -0.53682   1.35467  -0.10692
C     0.16734   2.67700  -0.53822
C    -0.67447   3.64636  -1.32394
O     1.31513   2.94206  -0.24153
C    -1.38372   1.80017   1.14427
C    -0.72949   2.18647   2.43525
O    -2.58573   1.92363   0.99384
C     0.38210   0.08440   0.11533
C     1.44787  -0.07117  -0.99435
C     1.33332   0.52449  -2.26032
C     2.28163   0.29239  -3.26004
C     3.36754  -0.55271  -3.02190
C     3.49149  -1.16135  -1.77033
C     2.54619  -0.91982  -0.77167
C     1.09460  -0.04383   1.47563
C     0.86861  -1.09861   2.37393
C     1.58668  -1.19612   3.57147
C     2.55868  -0.25060   3.89880
C     2.81956   0.78561   2.99756
C     2.10490   0.87710   1.80374
H    -3.15269  -1.77108   1.98391
H    -2.80866  -2.59118   0.43124
H    -1.74945  -2.87572   1.83836
H     0.70010  -2.39501  -2.11070
H     0.52510  -3.92212  -1.20615
H    -0.91394  -3.16588  -1.96552
H    -0.89881  -0.75332  -2.27739
H    -3.89236  -0.01515  -0.01823
H    -4.93675  -1.02552  -1.09747
H    -4.25628   0.52720  -1.66407
H    -2.38692   1.30330  -0.91406
H    -0.69129   3.33105  -2.37857
H    -0.22306   4.64488  -1.25793
H    -1.71638   3.66989  -0.97598
H    -0.52641   1.27815   3.02204
H    -1.42089   2.82654   2.99946
H     0.22965   2.69367   2.27874
H     0.48245   1.16335  -2.49238
H     2.16280   0.77617  -4.23238
H     4.10885  -0.73547  -3.80330
H     4.33020  -1.83080  -1.56492
H     2.66388  -1.41218   0.19251
H     0.14019  -1.87066   2.15648
H     1.37957  -2.02868   4.24830
H     3.11458  -0.32652   4.83636
H     3.58829   1.52938   3.22151
H     2.32027   1.68666   1.11153
