23
Generated by autodE on: 2022-10-26. E = -592.169455 Ha
C    -2.44789  -2.12489   0.86244
C    -2.09689  -1.85606  -0.57802
O    -2.68603  -2.39852  -1.51025
C    -1.01428  -0.91648  -0.89790
N    -0.34629  -0.30179   0.04635
C     0.67820   0.59641   0.14470
C     1.38568   1.20269  -0.97843
C     0.98401   0.86767  -2.39407
O     2.31408   1.99442  -0.78438
C     0.95902   0.86743   1.56534
C     2.04077   1.81545   1.98890
O     0.27155   0.28669   2.42139
H    -1.58178  -2.53604   1.40625
H    -2.74879  -1.19520   1.37256
H    -3.27537  -2.84397   0.90100
H    -0.79284  -0.75561  -1.94869
H    -0.62479  -0.51789   1.02982
H     1.60960   1.45575  -3.07727
H     1.13307  -0.20390  -2.60362
H    -0.07600   1.10420  -2.57714
H     3.01686   1.48680   1.60374
H     2.05861   1.85729   3.08598
H     1.86469   2.81740   1.57149
