34
Generated by autodE on: 2022-10-22. E = -770.110061 Ha
C     0.39408  -3.80981   0.30560
O     0.32074  -2.49076   0.85788
C    -0.46447  -1.59360   0.22465
O    -1.63918  -2.13152  -0.16898
C    -2.18906  -1.80349  -1.44778
C    -0.07823  -0.29311   0.09430
C     1.33015   0.10287   0.35747
C     1.61556   1.28851   1.06207
C     2.93277   1.68561   1.30435
C     4.00005   0.90762   0.84540
C     3.73328  -0.26903   0.13592
C     2.41728  -0.66340  -0.10888
C    -1.05283   0.77600  -0.24004
C    -2.31815   0.83353   0.37401
C    -3.22305   1.85153   0.06388
C    -2.87998   2.84265  -0.86095
C    -1.62111   2.80527  -1.47145
C    -0.71894   1.78621  -1.16278
H     1.19485  -4.32361   0.85260
H     0.64762  -3.77150  -0.76603
H    -0.55120  -4.35511   0.43982
H    -2.67391  -2.71475  -1.82509
H    -1.39576  -1.49048  -2.14201
H    -2.93536  -1.00096  -1.36273
H     0.79138   1.90404   1.42871
H     3.12551   2.60777   1.85857
H     5.03084   1.21775   1.03268
H     4.55800  -0.87990  -0.24013
H     2.22468  -1.57342  -0.68008
H    -2.59316   0.06853   1.10325
H    -4.19923   1.87438   0.55474
H    -3.58590   3.64110  -1.10138
H    -1.34131   3.57430  -2.19584
H     0.26037   1.76570  -1.64586
