21
Generated by autodE on: 2022-05-26. E = -499.581908 Ha
C     2.62581  -1.14530   0.20784
C     1.86456   0.15686   0.21941
O     2.41728   1.21385   0.53115
C     0.44951   0.08856  -0.15001
C    -0.52661   1.01380   0.01625
C    -0.52673   2.38341   0.57489
C    -1.82340   0.28740  -0.41439
C    -2.11661  -0.77094   0.67162
C    -1.16306  -1.69359   0.51030
C    -0.30017  -1.17225  -0.66045
O    -1.31177  -0.54386  -1.46977
H     3.64413  -0.99084   0.58759
H     2.10578  -1.90151   0.81878
H     2.67191  -1.54286  -0.81969
H     0.46976   2.69226   0.90934
H    -0.89523   3.10054  -0.17949
H    -1.23766   2.43604   1.41894
H    -2.65224   0.92424  -0.74297
H    -2.90477  -0.69966   1.42022
H    -0.95714  -2.59330   1.08935
H     0.28048  -1.90684  -1.22679
