23
Generated by autodE on: 2022-05-26. E = -497.015429 Ha
C     2.79541  -0.24564   0.81557
C     1.28147  -0.28727   0.84671
O     0.70153  -0.49135   1.93528
C     0.57857  -0.08653  -0.37730
C     1.20102   0.04508  -1.63009
N     1.70196   0.15609  -2.68451
N    -0.85131  -0.18957  -0.37887
C    -1.42535  -1.28388  -1.17846
C    -1.59422   0.53526   0.42004
C    -3.03433   0.20180   0.62088
C    -1.04831   1.72557   1.11611
H     3.18547  -1.16944   1.27085
H     3.13474   0.59408   1.44386
H     3.21996  -0.13022  -0.18988
H    -2.43527  -1.03216  -1.51880
H    -0.78359  -1.44307  -2.05252
H    -1.44678  -2.20550  -0.57853
H    -3.20293  -0.88074   0.70055
H    -3.40974   0.69867   1.52414
H    -3.62253   0.57397  -0.23668
H    -1.82891   2.49851   1.17073
H    -0.14769   2.11188   0.62107
H    -0.77487   1.44666   2.14709
