44
Generated by autodE on: 2022-05-26. E = -996.574954 Ha. Imaginary frequency = -323.8 cm-1
C     4.20148   1.49400   0.56633
C     3.93965   0.00847   0.56205
O     4.86628  -0.80262   0.51126
C     2.53479  -0.40283   0.61394
C     1.98491  -1.61783   0.36734
C     2.56450  -2.92787  -0.00316
C     0.46031  -1.37041   0.42478
O     0.39375  -0.34354   1.42584
C     1.32177   0.54528   0.78548
C     0.65988   0.69484  -0.60040
C     0.13140  -0.56678  -0.84107
C    -2.32773   0.00339  -0.48321
C    -2.75592  -0.00754  -1.83775
N    -3.15318  -0.09012  -2.93370
C    -2.58916  -1.22079   0.26757
C    -3.01719  -2.43016  -0.54043
O    -2.43631  -1.32715   1.49021
N    -1.97209   1.21213   0.12883
C    -2.35165   1.43022   1.53444
C    -1.04159   2.03644  -0.44020
C    -0.55116   3.19957   0.37691
C    -1.09760   2.32999  -1.92422
H     3.62455   1.98899  -0.23215
H     5.27334   1.68982   0.43302
H     3.86231   1.93016   1.52056
H     2.28967  -3.68909   0.74796
H     3.65584  -2.88671  -0.09047
H     2.12643  -3.26850  -0.95814
H    -0.15961  -2.23654   0.67398
H     1.48094   1.45444   1.37210
H     1.10338   1.32419  -1.37088
H    -0.09098  -1.02222  -1.80437
H    -3.05956  -3.29792   0.13007
H    -4.01033  -2.27144  -0.98959
H    -2.31509  -2.63530  -1.36287
H    -3.25682   0.86018   1.75092
H    -2.57033   2.49466   1.67995
H    -1.55903   1.11510   2.22450
H     0.35161   3.60913  -0.09485
H    -0.31449   2.93358   1.41365
H    -1.30948   4.00309   0.39112
H    -0.26634   2.99563  -2.18878
H    -1.04002   1.44574  -2.56330
H    -2.04203   2.85579  -2.14709
