40
Generated by autodE on: 2022-05-31. E = -1454.610013 Ha
N     0.71318  -0.47743   4.79243
C     0.51803  -0.42603   3.64845
C     0.32215  -0.37290   2.22226
N    -0.78849   0.02702   1.73229
C    -0.73667  -0.10391   0.25274
C    -1.20522   1.17552  -0.42570
C    -1.48621   1.15934  -1.80085
C    -1.82704   2.33527  -2.46983
C    -1.89508   3.54699  -1.77165
C    -1.61623   3.56928  -0.40361
C    -1.26912   2.38969   0.26511
C    -1.68402  -1.28057  -0.04395
C    -3.06874  -1.04912  -0.08467
C    -3.96627  -2.10105  -0.27402
C    -3.49451  -3.40952  -0.42085
C    -2.12043  -3.65304  -0.36515
C    -1.22243  -2.59805  -0.17172
C     0.75887  -0.41694  -0.09978
C     1.63832   0.79335  -0.54963
O     1.94380   1.43940   0.69169
C     2.59196   0.31396   1.30659
C     3.60140  -0.10973   0.24995
C     2.99550   0.19377  -0.90332
Cl    3.45928  -0.16903  -2.52255
C     1.42713  -0.73840   1.26826
H    -1.43187   0.21803  -2.35191
H    -2.04121   2.30681  -3.54089
H    -2.16388   4.46801  -2.29430
H    -1.66533   4.50939   0.15110
H    -1.04341   2.41707   1.33121
H    -3.44882  -0.03314   0.03242
H    -5.03913  -1.89685  -0.30723
H    -4.19483  -4.23401  -0.57363
H    -1.73842  -4.67117  -0.47069
H    -0.15719  -2.82371  -0.11733
H     0.83243  -1.21966  -0.83766
H     1.19890   1.48183  -1.27533
H     2.97048   0.56316   2.30437
H     4.53409  -0.64298   0.42468
H     1.78280  -1.76680   1.41190
