27
Generated by autodE on: 2022-05-31. E = -687.350719 Ha
N    -0.32203   4.67641  -1.39893
C    -0.22128   3.73984  -0.70512
C    -0.08533   2.76271   0.29776
N    -0.07585   1.54092   0.13513
C    -0.01504   0.26148   0.13363
C     1.31262  -0.36695  -0.06365
C     2.30286   0.29851  -0.81027
C     3.56767  -0.26745  -0.96665
C     3.86342  -1.50217  -0.37882
C     2.88668  -2.16582   0.37041
C     1.61836  -1.60572   0.52931
C    -1.26724  -0.50776   0.32444
C    -2.31882   0.03848   1.08319
C    -3.50732  -0.67007   1.25389
C    -3.66703  -1.92879   0.66358
C    -2.63058  -2.47289  -0.10122
C    -1.43646  -1.77055  -0.27185
H     2.07332   1.25745  -1.28007
H     4.32487   0.25535  -1.55525
H     4.85380  -1.94576  -0.50386
H     3.11433  -3.12480   0.84130
H     0.87036  -2.12226   1.13166
H    -2.19853   1.02005   1.54650
H    -4.31276  -0.23875   1.85252
H    -4.59912  -2.48253   0.79705
H    -2.75275  -3.44997  -0.57404
H    -0.64081  -2.19774  -0.88312
