40
Generated by autodE on: 2022-05-31. E = -1454.493916 Ha. Imaginary frequency = -260.5 cm-1
N     0.82117  -0.21484   4.92673
C     0.42809  -0.25291   3.82524
C     0.17654  -0.36495   2.45298
N    -0.83156  -0.14967   1.78313
C    -1.35192  -0.15441   0.57364
C    -1.45569   1.13319  -0.13598
C    -1.64341   1.17073  -1.53267
C    -1.64946   2.38771  -2.21289
C    -1.46677   3.58879  -1.51844
C    -1.27520   3.56093  -0.13340
C    -1.27110   2.34702   0.55302
C    -2.09775  -1.37382   0.17137
C    -3.30128  -1.29351  -0.55227
C    -3.99077  -2.45463  -0.90884
C    -3.49530  -3.70961  -0.54531
C    -2.30629  -3.79827   0.18890
C    -1.61677  -2.64249   0.54935
C     1.08553  -0.72368  -0.33604
C     1.64110   0.64568  -0.77244
O     1.85717   1.27121   0.50377
C     2.68545   0.21501   1.03710
C     3.78141   0.14131  -0.04927
C     3.11627   0.41106  -1.17672
Cl    3.64349   0.37603  -2.81734
C     1.73425  -0.99058   0.83572
H    -1.74605   0.24159  -2.09354
H    -1.78727   2.39646  -3.29653
H    -1.47205   4.54038  -2.05462
H    -1.13261   4.49257   0.41901
H    -1.12939   2.33596   1.63497
H    -3.71119  -0.32078  -0.82434
H    -4.92556  -2.37469  -1.46837
H    -4.03570  -4.61635  -0.82658
H    -1.91415  -4.77492   0.48149
H    -0.69120  -2.72132   1.12196
H     0.55265  -1.40872  -0.99062
H     1.03938   1.26272  -1.44661
H     3.01291   0.42995   2.06013
H     4.81793  -0.15582   0.09713
H     1.87874  -1.95839   1.31330
