38
Generated by autodE on: 2022-06-07. E = -1009.395016 Ha
C     4.56917   1.93699   1.89957
N     3.53671   1.48743   0.99067
C     2.46702   0.80000   1.42357
O     2.31154   0.47273   2.61850
C     1.44245   0.42006   0.42191
N     0.38142  -0.15856   1.00401
C    -0.85192  -0.54060   0.66265
C    -1.55155  -1.19881   1.77290
O    -1.02938  -1.42210   2.86019
O    -2.81955  -1.51373   1.49105
C    -3.56639  -2.16311   2.52777
C    -1.48457  -0.22493  -0.62832
C    -1.42005   1.08392  -1.14282
C    -1.98921   1.38783  -2.37825
C    -2.62762   0.38995  -3.12389
C    -2.70207  -0.91136  -2.61880
C    -2.13915  -1.21815  -1.37829
C     1.65670   0.58489  -1.03000
O     2.29495   1.55621  -1.48295
N     1.20366  -0.38956  -1.84257
C     1.19169  -0.22800  -3.28328
H     4.19003   2.68849   2.61300
H     5.38344   2.38638   1.31786
H     4.97408   1.09594   2.48269
H     3.51154   1.80633   0.02238
H     0.58505  -0.31105   2.01308
H    -4.56114  -2.35251   2.10822
H    -3.08723  -3.11098   2.81304
H    -3.64425  -1.51347   3.41164
H    -0.91428   1.86723  -0.57444
H    -1.93158   2.40834  -2.76342
H    -3.06520   0.62728  -4.09623
H    -3.19742  -1.69569  -3.19569
H    -2.18911  -2.23709  -0.99220
H     0.67577  -1.16103  -1.45222
H     0.66175   0.69424  -3.57068
H     2.21351  -0.17780  -3.69006
H     0.67378  -1.08609  -3.72786
