14
Generated by autodE on: 2022-06-07. E = -399.800809 Ha
N     3.28199  -0.12345   0.21114
C     2.13108  -0.17802   0.03182
C     0.73747  -0.20479  -0.18434
C    -0.07041  -1.24876  -0.44038
C    -1.48715  -0.63971  -0.48843
C    -1.84086  -0.22115   0.95677
C    -1.04931   0.82348   1.21508
C    -0.22395   1.02368  -0.07332
O    -1.18461   0.64466  -1.06661
H     0.18037  -2.30392  -0.53717
H    -2.24192  -1.18856  -1.06051
H    -2.54523  -0.74310   1.60314
H    -0.92811   1.40010   2.13114
H     0.21725   2.00732  -0.26099
