20
Generated by autodE on: 2022-06-23. E = -702.145075 Ha
C     4.41680  -0.68326   0.69684
N     3.11786  -0.23234   0.23575
C     1.96589  -0.69547   0.73356
O     1.81449  -1.53109   1.61839
C     0.74690  -0.08579   0.09301
O     0.74166   0.79556  -0.83274
C    -0.74991   1.10407  -1.15791
O    -0.99263   1.91066  -2.00553
C    -1.38323   0.24417  -0.25440
C    -2.79030   0.02427  -0.02282
C    -3.16403  -0.98504   1.03174
O    -3.62835   0.64895  -0.67650
O    -0.42359  -0.45583   0.48165
H     4.27618  -1.42296   1.49290
H     4.97863  -1.14396  -0.12972
H     4.99987   0.16376   1.08848
H     3.08093   0.46560  -0.50372
H    -2.76064  -1.97682   0.77072
H    -2.73084  -0.70433   2.00508
H    -4.25737  -1.03725   1.11047
