46
Generated by autodE on: 2022-06-23. E = -1391.603954 Ha. Imaginary frequency = -366.4 cm-1
C    -4.01168  -2.82887   0.03223
N    -3.23503  -1.60576  -0.06363
C    -2.19182  -1.38906   0.73946
O    -1.82955  -2.11148   1.66519
C    -1.39617  -0.14166   0.43379
O    -1.97302   0.90511  -0.18766
C    -1.16911   2.04952   0.09147
O    -1.38158   3.10178  -0.45732
C    -0.21052   1.56089   1.03894
C     0.80584   2.22873   1.83615
C     1.21948   3.60839   1.41240
O     1.33428   1.63584   2.77546
O    -0.57670   0.28273   1.39468
C     0.74309   0.42007  -1.20828
O     0.40689   1.23282  -2.18180
C     1.04620   2.49465  -2.47014
C     2.02750   0.51572  -0.44800
O     2.83391   1.40922  -0.68231
C     2.32181  -0.53869   0.56341
C     3.50039  -0.27402   1.45247
C     1.60481  -1.69491   0.59210
C     1.85677  -2.83394   1.52514
C     0.50379  -1.92010  -0.38026
O     0.04099  -3.03344  -0.58822
C    -0.09098  -0.72993  -1.05949
O    -1.02566  -0.97126  -2.03137
C    -0.52252  -1.48915  -3.27122
H    -3.40939  -3.70003  -0.27285
H    -4.88491  -2.74612  -0.62497
H    -4.35083  -2.98692   1.06564
H    -3.36920  -0.99238  -0.86275
H     0.38970   4.18145   0.97869
H     1.65694   4.13550   2.27059
H     1.99770   3.50027   0.63693
H     1.12227   3.10258  -1.56245
H     0.38433   2.97557  -3.19922
H     2.03834   2.32416  -2.90369
H     3.31177  -0.62655   2.47451
H     3.73501   0.79594   1.48423
H     4.39236  -0.80253   1.07460
H     0.94460  -3.03077   2.11276
H     2.06452  -3.75222   0.95311
H     2.69061  -2.64443   2.20901
H     0.21197  -0.80247  -3.71856
H    -1.38877  -1.58089  -3.93876
H    -0.06605  -2.47926  -3.12457
