22
Generated by autodE on: 2022-10-23. E = -679.392294 Ha
C     4.25031   0.29153   0.34998
N     2.89020   0.42387  -0.13050
C     1.84783  -0.19502   0.42610
O     1.90376  -0.95379   1.40840
C     0.49245   0.06081  -0.18571
N    -0.45052  -0.47544   0.57267
C    -1.79974  -0.39412   0.63042
C    -2.47765  -1.24225   1.54126
N    -3.05062  -1.93527   2.28328
C    -2.54846   0.58078  -0.06538
N    -3.18235   1.40666  -0.59064
C     0.30124   0.66038  -1.52563
C    -0.79287   0.14804  -2.42282
O     1.12250   1.47238  -1.94853
H     4.64844   1.27085   0.65725
H     4.90199  -0.11484  -0.43893
H     4.26699  -0.38655   1.21062
H     2.68182   1.04976  -0.90958
H     0.00635  -1.02944   1.33027
H    -0.32656  -0.07513  -3.39437
H    -1.54349   0.93647  -2.58743
H    -1.29785  -0.74993  -2.04420
