45
Generated by autodE on: 2022-06-03. E = -1933.247912 Ha
C     1.35164  -0.07283  -5.58987
N     0.37331  -0.07361  -4.51984
C     0.69282  -0.15123  -3.21788
O     1.86077  -0.21618  -2.80649
C    -0.45808  -0.21082  -2.21321
C    -1.84083   0.26895  -2.68945
C    -2.89821   0.24846  -1.57938
C    -3.01641  -1.08342  -0.80714
C    -2.47761  -1.09794   0.62974
C    -0.96183  -1.06004   0.86310
Cl   -0.20035  -2.59153   0.17386
Cl   -0.72211  -1.17814   2.67535
C    -0.22967   0.14404   0.33540
C    -0.03465   0.49240  -0.96017
C     0.68259   1.77510  -0.93621
N     0.97461   2.20317   0.24392
C     0.44585   1.19838   1.18923
C    -0.56055   2.00229   2.05618
C    -0.03746   2.96116   3.08041
O    -1.74993   1.89830   1.82507
C     1.67518   0.61183   1.95684
O     1.98482   0.96515   3.09095
N     2.40160  -0.26609   1.24692
C     3.57918  -0.89865   1.81020
H     2.35160  -0.18658  -5.15597
H     1.16862  -0.90425  -6.28789
H     1.31567   0.87054  -6.15702
H    -0.60609  -0.00882  -4.77412
H    -0.53659  -1.28264  -1.97895
H    -1.76136   1.28948  -3.09819
H    -2.17196  -0.38909  -3.51011
H    -2.70478   1.06750  -0.86874
H    -3.86744   0.48025  -2.04691
H    -4.08274  -1.33546  -0.70469
H    -2.57858  -1.91490  -1.38291
H    -2.88095  -0.23369   1.17700
H    -2.84004  -2.00369   1.13721
H     0.96025   2.33658  -1.83352
H     0.17944   2.40000   4.00203
H    -0.81019   3.71428   3.28597
H     0.90047   3.42946   2.75805
H     2.08735  -0.55037   0.32417
H     3.31605  -1.52184   2.68023
H     4.31378  -0.14703   2.13720
H     4.03728  -1.53512   1.04369
