18
Generated by autodE on: 2022-06-03. E = -493.596205 Ha
C    -2.33272  -1.78079  -0.21147
N    -1.50301  -0.97931  -0.11149
C    -0.50440  -0.08401  -0.00098
C    -0.84829   1.29813   0.21223
C    -2.31592   1.65383   0.30163
O     0.01865   2.18769   0.32036
C     0.84869  -0.67162  -0.11886
O     1.00025  -1.89262  -0.30467
N     1.86748   0.20762  -0.01062
C     3.26042  -0.16634  -0.09774
H    -3.12165  -2.51976  -0.30375
H    -2.80743   1.09895   1.11688
H    -2.41328   2.73175   0.48324
H    -2.83945   1.39267  -0.63250
H     1.59318   1.18123   0.13820
H     3.33526  -1.25005  -0.24723
H     3.80378   0.09773   0.82441
H     3.75933   0.33788  -0.94184
