27
Generated by autodE on: 2022-06-03. E = -1439.527077 Ha
C     1.95931  -1.14375  -3.66944
N     1.59552  -1.06958  -2.26736
C     2.51328  -0.87144  -1.31007
O     3.71791  -0.74450  -1.55081
C     2.02308  -0.79730   0.14542
C     0.59083  -0.97321   0.31703
C    -0.58102  -0.69802   0.46912
C    -1.67382   0.21652   0.70340
Cl   -2.20456   0.08652   2.45216
Cl   -3.11581  -0.17530  -0.34190
C    -1.19791   1.64971   0.40678
C     0.13951   2.05648   1.05869
C     1.46005   1.76642   0.28939
C     2.35272   0.59844   0.75826
H     1.06279  -1.37517  -4.25720
H     2.70949  -1.93125  -3.83954
H     2.38125  -0.19024  -4.02574
H     0.61677  -1.13060  -2.00445
H     2.60117  -1.56523   0.68339
H    -2.00319   2.32749   0.72650
H    -1.11755   1.73100  -0.68858
H     0.19295   1.64317   2.07939
H     0.07565   3.14719   1.18956
H     2.08040   2.67140   0.37757
H     1.24796   1.66385  -0.78875
H     2.30447   0.50931   1.85453
H     3.40140   0.80790   0.49930
