45
Generated by autodE on: 2022-06-03. E = -1933.118155 Ha. Imaginary frequency = -306.4 cm-1
C     0.47920   2.29577  -5.30257
N     0.51740   1.07237  -4.52384
C     0.04306   1.01421  -3.26919
O    -0.40189   2.00934  -2.68354
C     0.06019  -0.37912  -2.62693
C    -1.20074  -1.19250  -3.02193
C    -2.54095  -0.68236  -2.45744
C    -3.08269  -1.36848  -1.18340
C    -2.82583  -0.72026   0.18324
C    -1.43474  -0.89959   0.80425
Cl   -1.11120  -2.69343   1.09391
Cl   -1.47318  -0.11599   2.45878
C    -0.36924  -0.39069  -0.03578
C     0.12832  -0.26646  -1.16078
C     2.13964   0.68025  -0.97935
N     2.19387   0.90891   0.19306
C     1.69288   0.95231   1.40887
C     1.01214   2.20331   1.81156
C     0.79062   3.22526   0.72109
O     0.62332   2.39800   2.95728
C     1.98755  -0.16987   2.35715
O     1.99105  -0.01376   3.58006
N     2.25941  -1.36553   1.77956
C     2.35563  -2.56430   2.58929
H     0.99428   3.11174  -4.77320
H     0.98226   2.12245  -6.26152
H    -0.55651   2.61815  -5.49745
H     0.84498   0.21772  -4.96249
H     0.94507  -0.91484  -3.00576
H    -1.23993  -1.20283  -4.12214
H    -1.03505  -2.23451  -2.70567
H    -2.49831   0.40916  -2.30763
H    -3.29445  -0.84210  -3.24379
H    -4.17990  -1.40110  -1.27199
H    -2.75780  -2.42154  -1.15581
H    -3.54808  -1.11790   0.91169
H    -2.99369   0.36712   0.12110
H     2.78067   0.79776  -1.85668
H     0.22238   4.06744   1.13536
H     1.75391   3.58992   0.32973
H     0.24242   2.78650  -0.12725
H     2.00450  -1.48855   0.80480
H     3.07990  -2.42036   3.40309
H     2.69386  -3.39562   1.95782
H     1.38330  -2.83260   3.03647
