49
Generated by autodE on: 2022-06-08. E = -3757.035882 Ha
C    -3.92140  -0.44454   2.06266
N    -2.70835  -0.30163   1.28350
C    -2.53669   0.72641   0.44829
O    -3.42698   1.54436   0.19326
C    -1.12775   0.95960  -0.14199
C    -1.23816   1.76111  -1.47067
C    -2.01650   0.91096  -2.50183
C    -0.96167  -0.12156  -2.97405
C     0.23065   0.15117  -2.03657
C     0.19484   1.69069  -2.02216
C    -0.11887  -0.21257  -0.55638
Br   -0.81259  -2.08114  -0.54955
C     1.11214  -0.11297   0.42269
C     0.95327  -0.87648   1.77739
C     2.20147  -1.14257   2.56710
O    -0.14704  -1.11566   2.24263
C     2.43039  -0.45872  -0.25711
C     3.33710   0.53592  -0.64060
C     4.52254   0.19795  -1.30096
C     4.81380  -1.13777  -1.58658
C     3.91448  -2.13714  -1.20011
C     2.73405  -1.80010  -0.53658
N     1.06779   1.29750   0.81826
C    -0.28704   1.78404   0.94983
C    -0.83121   1.66532   2.33594
N    -1.18492   1.65441   3.43978
C    -0.30727   3.24298   0.68324
N    -0.29204   4.38903   0.51501
H    -3.97949   0.32091   2.85603
H    -4.80634  -0.34005   1.41953
H    -3.93208  -1.43840   2.52770
H    -1.88344  -0.83288   1.56486
H    -1.66760   2.75469  -1.31580
H    -2.35492   1.55468  -3.32588
H    -2.90968   0.44112  -2.07042
H    -1.31958  -1.15573  -2.94255
H    -0.63446   0.08429  -4.00311
H     1.16162  -0.32070  -2.36319
H     0.26683   2.10509  -3.03756
H     0.95767   2.16184  -1.39560
H     1.93655  -1.27797   3.62349
H     2.67395  -2.06440   2.19249
H     2.93945  -0.33622   2.44883
H     3.11361   1.58100  -0.42959
H     5.21932   0.98668  -1.59393
H     5.73905  -1.40125  -2.10425
H     4.13330  -3.18598  -1.41291
H     2.04391  -2.59114  -0.24004
H     1.69527   1.56433   1.57676
