25
Generated by autodE on: 2022-07-27. E = -702.435212 Ha
C     0.22527  -2.43905   1.53451
C    -0.63437  -1.31042   1.03540
O    -1.80162  -1.19122   1.38686
C    -0.05391  -0.32222   0.07670
N    -0.53794   0.91078   0.00656
C    -1.34423   1.66704   0.82463
C    -1.63790   1.33486   2.15992
N    -1.87154   1.12239   3.28449
C    -1.79316   2.90923   0.32718
N    -2.17334   3.93925  -0.07267
C     0.99449  -0.68873  -0.88679
C     1.99038   0.24190  -1.24863
C     2.96638  -0.09523  -2.18646
C     2.96965  -1.36431  -2.77248
C     1.98655  -2.29560  -2.41956
C     1.00601  -1.96478  -1.48629
H    -0.02271  -2.60530   2.59303
H    -0.02326  -3.36432   0.98958
H     1.29848  -2.24238   1.42039
H    -0.21452   1.43832  -0.81087
H     2.02080   1.22455  -0.77205
H     3.73614   0.63348  -2.44942
H     3.73832  -1.62917  -3.50185
H     1.97763  -3.28502  -2.88185
H     0.22974  -2.69199  -1.24540
