25
Generated by autodE on: 2022-06-08. E = -702.444207 Ha
C    -1.04761   2.92786  -1.39379
C     0.24971   2.33032  -0.94990
O     1.32917   2.91270  -1.03336
C     0.21077   0.95925  -0.37668
N     1.39241   0.51685  -0.00411
C     1.81733  -0.65555   0.54463
C     3.19301  -0.78832   0.84080
N     4.32632  -0.91415   1.09173
C     0.95697  -1.74258   0.82477
N     0.32281  -2.68725   1.08512
C    -1.01736   0.15596  -0.21542
C    -1.46902  -0.66052  -1.26347
C    -2.60382  -1.45359  -1.08586
C    -3.29295  -1.42944   0.13103
C    -2.85254  -0.60457   1.17094
C    -1.71757   0.18960   1.00051
H    -1.51032   2.28977  -2.16370
H    -0.88027   3.93725  -1.78929
H    -1.75275   2.96200  -0.54782
H     2.13050   1.22095  -0.17928
H    -0.91895  -0.68148  -2.20641
H    -2.94930  -2.09593  -1.89884
H    -4.17853  -2.05414   0.26857
H    -3.39255  -0.58257   2.12002
H    -1.36014   0.82789   1.81119
