24
Generated by autodE on: 2022-06-08. E = -3054.571171 Ha
C     3.97367   1.07846   0.84176
N     2.54362   1.03217   1.06375
C     1.77002   0.07906   0.48978
O     2.25550  -0.80821  -0.22392
C     0.32258   0.17967   0.78518
C    -0.71625  -0.29829   0.06407
Br   -0.70403  -1.21967  -1.57842
C    -2.01150   0.22499   0.65015
C    -2.03714   1.75106   0.30871
C    -0.86906   2.31805   1.16428
C    -0.31488   1.04388   1.87864
C    -1.61938   0.26605   2.14076
H     4.39803   1.90662   1.42251
H     4.21472   1.23379  -0.22302
H     4.45563   0.14018   1.15911
H     2.10843   1.76967   1.60573
H    -2.91457  -0.32754   0.36626
H    -3.00447   2.17937   0.60935
H    -1.91072   1.92562  -0.76913
H    -1.23207   3.04018   1.91045
H    -0.09379   2.81335   0.56301
H     0.32540   1.24584   2.74649
H    -2.33911   0.82251   2.75995
H    -1.44792  -0.73238   2.56821
