48
Generated by autodE on: 2022-06-04. E = -1889.635911 Ha
C    -3.41878   3.32984   0.93613
O    -2.56605   2.21514   0.62163
C    -1.30176   2.48390   0.35217
O    -0.81936   3.59521   0.36451
C    -0.46866   1.24989   0.02304
C     0.58234   1.54464  -1.09386
O     0.61955   2.41163  -1.92386
O     1.52676   0.60491  -0.93724
C     1.17344  -0.15529   0.30700
C     2.43243  -0.78686   0.83532
C     3.44570  -1.13612  -0.07168
C     4.60344  -1.77674   0.37343
C     4.76583  -2.07771   1.72818
C     3.76217  -1.73017   2.63558
C     2.60157  -1.09079   2.19364
N     0.45833   0.81732   1.09492
C     1.23204   1.86582   1.75877
C     0.01585  -1.11652  -0.09491
Cl    0.54037  -2.13026  -1.50670
C    -0.57220  -2.08085   0.97313
C    -0.85547  -1.42592   2.34357
C    -2.02613  -0.45511   2.04755
C    -2.30489  -0.68675   0.55062
C    -2.01379  -2.20336   0.44439
C    -1.17541  -0.10415  -0.37326
C    -1.73610  -0.00943  -1.80828
F    -2.56261   1.05282  -1.90209
F    -2.44903  -1.08318  -2.17189
F    -0.79483   0.16054  -2.75285
H    -3.44845   4.03066   0.09027
H    -3.05050   3.84586   1.83365
H    -4.41103   2.90294   1.11745
H     3.32947  -0.90536  -1.12911
H     5.38236  -2.04020  -0.34553
H     5.67236  -2.57824   2.07604
H     3.87900  -1.95363   3.69820
H     1.84000  -0.82490   2.92355
H     0.55232   2.49044   2.35151
H     1.94385   1.39788   2.44758
H     1.79211   2.51369   1.06114
H     0.01655  -3.00297   1.03523
H    -1.16522  -2.23134   3.02596
H    -0.00225  -0.92047   2.79483
H    -1.79115   0.58325   2.29678
H    -2.93036  -0.73135   2.60928
H    -3.29943  -0.35599   0.23364
H    -2.65556  -2.78897   1.11765
H    -2.08318  -2.61981  -0.56497
