20
Generated by autodE on: 2022-06-04. E = -1069.688669 Ha
F     1.31178  -2.00122  -0.09346
C     1.49616  -0.65887  -0.15157
F     2.36376  -0.44797  -1.16711
F     2.12123  -0.30016   0.97984
C     0.21546   0.05358  -0.37801
C    -0.54026   0.77889   0.46786
Cl   -0.25822   1.17305   2.12573
C    -1.86484   1.07534  -0.20648
C    -2.62056  -0.29412  -0.24136
C    -1.77023  -1.13644  -1.23444
C    -0.62650  -0.14989  -1.63427
C    -1.39457   1.18735  -1.67129
H    -2.42955   1.90920   0.22565
H    -2.68845  -0.74138   0.76033
H    -3.64342  -0.13948  -0.61385
H    -2.35167  -1.41498  -2.12546
H    -1.36951  -2.05645  -0.78800
H    -0.05876  -0.43565  -2.52794
H    -2.22751   1.18730  -2.38985
H    -0.74233   2.05446  -1.84829
