39
Generated by autodE on: 2022-05-30. E = -1135.014075 Ha
C     4.65663  -2.19677  -1.51129
N     3.32918  -1.76879  -1.12258
C     3.05023  -0.54558  -0.65324
O     3.86475   0.36934  -0.49911
C     1.60539  -0.32280  -0.30307
N     0.68819  -1.21676  -0.43107
C    -0.57455  -0.64176  -0.00028
C    -1.64768  -0.58786  -1.13137
O    -2.74118  -0.08682  -0.87991
N    -1.28192  -1.09966  -2.30553
C    -2.19256  -1.15480  -3.43502
C    -1.18949  -1.63383   1.05022
O    -1.31103  -2.81055   0.72257
N    -1.53633  -1.12768   2.23272
C    -2.18853  -1.96471   3.22488
C    -0.25411   0.78054   0.40190
C    -1.23065   1.80403   0.88643
O    -1.88817   1.60839   1.92017
N    -1.31658   2.92383   0.16502
C    -2.21635   4.00134   0.53789
C     1.08388   0.95553   0.21348
C     1.81603   2.15358   0.44599
N     2.36496   3.15743   0.65289
H     5.03813  -2.97320  -0.82920
H     5.33311  -1.33475  -1.47930
H     4.64527  -2.60642  -2.53238
H     2.55881  -2.42935  -1.18122
H    -0.37267  -1.54873  -2.36502
H    -2.69855  -0.18763  -3.56222
H    -1.61888  -1.38204  -4.34151
H    -2.96119  -1.93204  -3.29524
H    -1.59914  -0.10473   2.33147
H    -1.58791  -2.86304   3.42692
H    -2.29585  -1.39119   4.15367
H    -3.18720  -2.28922   2.88867
H    -0.74902   3.01530  -0.67272
H    -2.14641   4.79353  -0.21625
H    -3.25505   3.64080   0.58790
H    -1.94700   4.41454   1.52195
