39
Generated by autodE on: 2022-05-30. E = -1134.890234 Ha. Imaginary frequency = -313.1 cm-1
C     5.17549  -1.98489   0.06740
N     3.77459  -1.63917   0.24051
C     3.08605  -1.03450  -0.73152
O     3.51773  -0.70248  -1.83328
C     1.68737  -0.68142  -0.38754
N     0.56033  -1.07660  -0.49677
C    -0.72748  -0.83963  -0.37971
C    -1.37601  -0.27249  -1.61349
O    -0.67430   0.15238  -2.53893
N    -2.71543  -0.22616  -1.60544
C    -3.44665   0.48140  -2.63539
C    -1.46517  -1.35331   0.81368
O    -2.69174  -1.18616   0.92133
N    -0.74026  -1.95168   1.77224
C    -1.34480  -2.32042   3.03906
C    -0.02615   1.40973   0.57706
C    -1.37859   1.79573   0.94967
O    -1.81518   1.52546   2.07518
N    -2.09142   2.43055   0.00064
C    -3.51221   2.67282   0.17300
C     1.21241   1.35670   0.47429
C     2.51051   1.81727   0.57234
N     3.61946   2.17647   0.63901
H     5.55812  -2.37920   1.01557
H     5.75821  -1.09552  -0.21565
H     5.30342  -2.74758  -0.71625
H     3.30296  -1.85938   1.11419
H    -3.16978  -0.51595  -0.73502
H    -3.31271   0.00438  -3.61896
H    -4.51321   0.47312  -2.38089
H    -3.10799   1.52720  -2.72036
H     0.26558  -2.03698   1.67117
H    -2.19503  -3.00141   2.88570
H    -0.59120  -2.82454   3.65527
H    -1.71015  -1.42900   3.57413
H    -1.68685   2.52164  -0.92716
H    -4.05488   1.72976   0.34657
H    -3.69730   3.33820   1.02934
H    -3.90038   3.14815  -0.73507
