19
Generated by autodE on: 2022-07-27. E = -457.432951 Ha
N     0.71840   1.48048   2.37741
C     0.04345   1.95838   1.54182
C    -0.76209   2.54684   0.57334
N    -1.47863   1.84200  -0.35677
C    -1.44765   0.60279  -0.82126
C    -0.42927  -0.41008  -0.62940
C    -0.81510  -1.76300  -0.78397
C     0.11879  -2.79065  -0.68510
C     1.46834  -2.49583  -0.45305
C     1.87132  -1.16190  -0.33207
C     0.93931  -0.12723  -0.41183
H    -1.00275   3.60605   0.64450
H    -2.23117   2.40239  -0.76252
H    -2.30637   0.34718  -1.44385
H    -1.86541  -1.99511  -0.97671
H    -0.20452  -3.82865  -0.79362
H     2.20238  -3.30124  -0.37659
H     2.92542  -0.92158  -0.17425
H     1.28454   0.90327  -0.34602
