19
Generated by autodE on: 2022-05-31. E = -457.439128 Ha
N     4.61583   0.01934  -1.48580
C     3.79933  -0.04900  -0.64143
C     2.85153  -0.13276   0.37334
N     1.52093  -0.05905   0.08430
C     0.48928  -0.10911   0.90505
C    -0.88813  -0.02354   0.47922
C    -1.89423  -0.06550   1.47209
C    -3.24241   0.01381   1.12873
C    -3.62406   0.13634  -0.21212
C    -2.63835   0.17776  -1.20717
C    -1.28893   0.09857  -0.87251
H     3.14337  -0.25379   1.41639
H     1.30577   0.05415  -0.91078
H     0.71897  -0.22151   1.96652
H    -1.60069  -0.16055   2.52036
H    -4.00213  -0.02025   1.91332
H    -4.68064   0.19847  -0.48176
H    -2.92593   0.27135  -2.25708
H    -0.54575   0.12908  -1.67398
