46
Generated by autodE on: 2022-10-21. E = -1354.436776 Ha
C     3.93567  -1.42427  -1.26996
O     2.89307  -1.09103  -0.33824
C     1.76716  -0.60677  -0.84752
O     1.56706  -0.45109  -2.03239
C     0.75048  -0.25967   0.23026
C     1.08006  -0.77216   1.67792
C     1.25553  -2.27918   1.67404
C     0.02664  -2.78874   1.54792
C    -0.88938  -1.58008   1.43800
O    -0.22649  -0.61634   2.26218
C    -0.63450  -0.99099  -0.01279
O    -0.51849  -1.97199  -0.99605
C    -1.60435  -2.88228  -1.17806
C    -1.60311   0.17871  -0.44171
C    -1.72888   0.20122  -1.91811
N    -1.84836   0.29170  -3.06717
C    -3.04165   0.04142   0.15117
C    -3.36039   0.85114   1.36284
O    -3.82027  -0.71381  -0.38860
O    -1.02051   1.37115   0.00957
C     0.38472   1.27480   0.21066
C     1.16372   2.09889  -0.85974
C     0.37089   3.00326  -1.74720
O     2.37516   2.02681  -0.87560
C     0.72943   2.04010   1.52817
C    -0.35697   2.84525   2.16687
O     1.86809   2.01100   1.94454
H     3.58891  -2.20002  -1.96677
H     4.77043  -1.79637  -0.66590
H     4.23516  -0.52804  -1.83128
H     1.83719  -0.19014   2.20232
H     2.21272  -2.79414   1.72194
H    -0.28230  -3.82854   1.45384
H    -1.93677  -1.70861   1.72631
H    -1.24070  -3.64788  -1.87535
H    -1.89898  -3.36902  -0.23573
H    -2.48331  -2.38396  -1.61106
H    -4.37912   0.61706   1.69524
H    -3.26911   1.92165   1.12296
H    -2.63714   0.64184   2.16482
H     1.05596   3.65185  -2.30741
H    -0.34130   3.60058  -1.15891
H    -0.22088   2.39648  -2.45104
H     0.07955   3.46257   2.96193
H    -0.86877   3.47257   1.42273
H    -1.11094   2.16878   2.59311
