23
Generated by autodE on: 2022-10-26. E = -704.261521 Ha
C    -1.74561  -1.17411   2.36905
C    -2.09235  -1.25749   0.91293
O    -3.08869  -1.82080   0.47944
C    -1.15832  -0.63409  -0.05538
C    -1.52361  -0.60758  -1.42445
N    -1.97447  -0.56006  -2.49817
O    -0.13108  -0.01998   0.45883
C     0.95583   0.58540   0.03219
C     1.46328   0.32004  -1.32667
C     2.61909   1.10557  -1.86618
O     0.94793  -0.59902  -1.96126
C     1.65525   1.32216   1.10709
C     1.05021   1.28027   2.48485
O     2.67495   1.95620   0.86017
H    -2.52866  -1.67573   2.95062
H    -1.65719  -0.12214   2.68097
H    -0.77144  -1.65163   2.55760
H     3.52492   0.90717  -1.27393
H     2.42280   2.18537  -1.79565
H     2.78199   0.80846  -2.91038
H     0.96175   0.24183   2.83845
H     1.68771   1.85675   3.16630
H     0.03494   1.70617   2.47245
