23
Generated by autodE on: 2022-06-19. E = -351.521382 Ha
C     2.52005   2.54416   1.21385
C     2.07144   1.42825   0.59792
C     3.01836   0.47954  -0.09174
C     0.64214   1.12280   0.59209
C     0.06662   0.03913   0.01310
C    -1.35941  -0.21524   0.03680
C    -2.00981  -1.27248  -0.51173
C    -3.50346  -1.39673  -0.40469
C    -1.33600  -2.38994  -1.25627
H     1.82988   3.23106   1.71341
H     3.58376   2.79712   1.23380
H     2.76859   0.37617  -1.16084
H     4.05815   0.82673  -0.01209
H     2.95615  -0.53135   0.34440
H    -0.00361   1.84509   1.10599
H     0.70355  -0.68571  -0.50113
H    -1.96542   0.53631   0.55722
H    -3.78248  -2.33692   0.10428
H    -3.96491  -1.44484  -1.40749
H    -3.95292  -0.55684   0.14518
H    -1.73223  -2.45726  -2.28498
H    -0.24503  -2.28618  -1.31618
H    -1.56334  -3.35888  -0.77765
