26
Generated by autodE on: 2022-06-19. E = -652.317255 Ha
C     3.40290   2.07874   0.72591
O     2.37787   1.13260   0.42604
C     2.79531  -0.13065   0.12807
O     3.99123  -0.43605   0.11982
C     1.72915  -1.03774  -0.16603
C     1.90117  -2.46169  -0.52175
O     0.49971  -0.51555  -0.10526
C    -0.63741  -1.09558  -0.32355
C    -1.83782  -0.32336  -0.19169
C    -3.08416  -0.94797  -0.42789
C    -4.26822  -0.22456  -0.30595
C    -4.23454   1.12878   0.05199
C    -3.00287   1.75724   0.28809
C    -1.81376   1.04589   0.16961
H     2.89111   3.02643   0.93499
H     3.98530   1.76847   1.60720
H     4.08830   2.20626  -0.12618
H     1.38026  -3.12636   0.19484
H     1.48016  -2.68563  -1.52139
H     2.96804  -2.71501  -0.52468
H    -0.65324  -2.15237  -0.59883
H    -3.10842  -2.00413  -0.70688
H    -5.22541  -0.71765  -0.49057
H    -5.16442   1.69383   0.14734
H    -2.97493   2.81310   0.56742
H    -0.85446   1.53314   0.35319
