53
Generated by autodE on: 2022-06-03. E = -1264.294339 Ha
C    -0.27838   1.80528   2.50174
N    -0.33061   1.40062   1.11043
C    -0.31379   0.11123   0.74977
O    -0.27089  -0.81182   1.57140
C    -0.31011  -0.17768  -0.78519
C    -1.27612   0.82681  -1.48115
O    -0.91973   2.00770  -1.62235
N    -2.46592   0.38309  -1.89229
C    -3.43574   1.26835  -2.50582
C     1.11001   0.12503  -1.31787
C     1.24991  -0.03669  -2.84747
C     2.25793  -1.09995  -3.28373
C     1.80320  -2.55435  -3.15359
C     1.41684  -3.04369  -1.75775
F     2.38005  -2.60903  -0.82084
C     0.02156  -2.73369  -1.28663
C    -0.67713  -1.62951  -0.94713
N    -2.02464  -2.02204  -0.60970
N    -2.18159  -3.36002  -1.09161
C    -2.75592  -3.32046  -2.43571
N    -0.83909  -3.88251  -1.16807
C    -0.53839  -4.82195  -0.12993
C     0.40431  -4.55025   0.87132
C     0.67598  -5.51003   1.85228
C    -0.00318  -6.73050   1.85737
C    -0.95814  -6.99270   0.86614
C    -1.21721  -6.05075  -0.12845
H    -1.10725   1.36035   3.07406
H    -0.35597   2.89790   2.55617
H     0.66602   1.49243   2.97532
H    -0.37157   2.10049   0.37193
H    -2.72203  -0.57105  -1.61765
H    -3.79261   2.03356  -1.79664
H    -2.99767   1.78854  -3.37070
H    -4.29287   0.67403  -2.84564
H     1.81306  -0.52328  -0.78235
H     1.35257   1.15490  -1.03395
H     1.55565   0.93059  -3.27347
H     0.27089  -0.26593  -3.30158
H     2.51084  -0.93824  -4.34425
H     3.19691  -0.96286  -2.72147
H     0.93810  -2.74650  -3.80954
H     2.61837  -3.20305  -3.51172
H     1.49056  -4.13946  -1.75989
H    -2.16114  -1.98620   0.40676
H    -2.83401  -4.34967  -2.81003
H    -3.76388  -2.88812  -2.37150
H    -2.15065  -2.72428  -3.14296
H     0.91433  -3.58708   0.89254
H     1.41501  -5.29064   2.62681
H     0.20645  -7.47443   2.62926
H    -1.49586  -7.94393   0.86180
H    -1.94813  -6.25470  -0.91330
