34
Generated by autodE on: 2022-06-03. E = -827.671886 Ha
C     2.15927  -3.47775   1.25624
N     1.75966  -2.34227   0.45037
C     0.63562  -1.64649   0.66490
O    -0.19077  -1.91623   1.54046
C     0.44400  -0.38832  -0.23433
C     0.97140  -0.61302  -1.66279
O     2.16892  -0.86988  -1.85632
N     0.09043  -0.49412  -2.66052
C     0.48317  -0.64270  -4.04951
C    -0.94923   0.04071  -0.16921
C    -1.91011   0.67876   0.16902
C    -2.64879   1.72173   0.87747
F    -2.86778   2.80575   0.01071
C    -1.77405   2.18106   2.05016
C    -0.30620   2.50402   1.70410
C     0.73618   1.35060   1.73687
C     1.26333   0.80447   0.39535
H     1.28778  -3.86574   1.79751
H     2.93229  -3.19998   1.99203
H     2.56394  -4.27162   0.61228
H     2.36797  -2.00797  -0.29820
H    -0.87184  -0.25658  -2.43763
H     1.16860   0.16200  -4.36000
H     0.99201  -1.60502  -4.20970
H    -0.41498  -0.60529  -4.67717
H    -3.63818   1.39321   1.23038
H    -1.82128   1.40071   2.82726
H    -2.26445   3.07557   2.46783
H     0.02068   3.25440   2.44003
H    -0.27097   3.01797   0.72847
H     1.62210   1.73229   2.26723
H     0.36026   0.51974   2.35583
H     1.28255   1.61328  -0.35217
H     2.29806   0.45276   0.51161
