53
Generated by autodE on: 2022-06-03. E = -1264.207006 Ha. Imaginary frequency = -370.0 cm-1
C     2.36783   1.93211   1.74791
N     1.46141   1.30778   0.80364
C     1.47853  -0.01232   0.57341
O     2.24826  -0.78304   1.15794
C     0.49823  -0.52006  -0.51684
C    -0.86162   0.22091  -0.36223
O    -0.98807   1.36653  -0.81742
N    -1.81996  -0.43609   0.29687
C    -3.14509   0.09607   0.53605
C     1.10904  -0.15796  -1.90225
C     0.26139  -0.55383  -3.12973
C     0.69229  -1.79974  -3.92903
C     0.06587  -3.15325  -3.57384
C     0.57859  -3.82791  -2.30697
F     1.98267  -3.96910  -2.40361
C     0.28977  -3.06242  -1.08414
C     0.34350  -1.99034  -0.44381
N    -0.17651  -2.45379   1.48835
N     0.03103  -3.74814   1.43086
C     1.36636  -4.26150   1.75027
N    -0.58074  -4.43157   0.49756
C    -1.94317  -4.16511   0.24772
C    -2.81909  -3.55496   1.16793
C    -4.17147  -3.39704   0.85742
C    -4.68222  -3.83059  -0.36953
C    -3.82235  -4.46115  -1.27634
C    -2.47529  -4.64097  -0.96716
H     2.14627   3.00511   1.79496
H     3.41798   1.79900   1.44261
H     2.25006   1.49978   2.75380
H     0.80056   1.87793   0.28043
H    -1.56492  -1.33580   0.71709
H    -3.89217  -0.38649  -0.11490
H    -3.15042   1.17515   0.33859
H    -3.43727  -0.08036   1.58120
H     2.10310  -0.62853  -1.95258
H     1.26723   0.92794  -1.90877
H    -0.80064  -0.64775  -2.84733
H     0.30163   0.29983  -3.82343
H     1.79072  -1.89505  -3.90329
H     0.43516  -1.61650  -4.98443
H    -1.02886  -3.06058  -3.47800
H     0.25303  -3.85563  -4.40285
H     0.18449  -4.85177  -2.25013
H     0.56596  -2.03340   2.05749
H     1.73185  -3.77851   2.66419
H     1.30672  -5.34594   1.89100
H     2.03329  -4.02484   0.90437
H    -2.44604  -3.19897   2.12640
H    -4.83008  -2.91918   1.58688
H    -5.73785  -3.69015  -0.61167
H    -4.20491  -4.82657  -2.23249
H    -1.82026  -5.15768  -1.66854
