49
Generated by autodE on: 2022-06-02. E = -1626.097311 Ha
C    -3.92967  -3.09493  -0.26248
N    -2.86743  -2.23309   0.22042
C    -2.57002  -1.08019  -0.37664
O    -3.18571  -0.63101  -1.35375
C    -1.40210  -0.28146   0.23051
C    -1.90445   1.09670   0.76654
O    -1.35033   1.59092   1.75210
N    -2.92884   1.66503   0.12741
C    -3.37048   3.00815   0.44416
O    -0.88110  -1.00765   1.32707
C     0.48943  -0.68951   1.51779
C     1.13146  -1.80471   2.21931
N     1.65176  -2.66650   2.79442
C     1.12743  -0.35150   0.12176
C     2.10671   0.79879   0.34053
C     3.49059   0.55611   0.34474
C     4.40448   1.57662   0.62473
C     3.95417   2.86537   0.91612
C     2.57921   3.11472   0.94762
C     1.66836   2.09272   0.67307
C     1.75552  -1.60249  -0.56488
C     2.29198  -1.22208  -1.96619
C     1.00274  -1.09474  -2.81793
C    -0.11664  -1.32950  -1.78920
C     0.52030  -2.43940  -0.93253
C    -0.19009  -0.14839  -0.77925
Cl   -0.29421   1.42611  -1.66772
H    -4.12148  -3.87435   0.48446
H    -4.84952  -2.51468  -0.42335
H    -3.65479  -3.57457  -1.21588
H    -2.26917  -2.53602   0.98321
H    -3.26635   1.19541  -0.71288
H    -2.65189   3.76161   0.07858
H    -3.47406   3.13187   1.53108
H    -4.34252   3.18736  -0.03176
H     0.56895   0.19054   2.17049
H     3.87610  -0.44103   0.13760
H     5.47441   1.35547   0.61688
H     4.66679   3.66544   1.13007
H     2.20719   4.11165   1.19594
H     0.60439   2.30514   0.74481
H     2.49546  -2.10120   0.07107
H     2.87817  -0.29609  -1.96234
H     2.94568  -2.02440  -2.33722
H     0.91402  -0.12964  -3.32989
H     0.94301  -1.88381  -3.58101
H    -1.08690  -1.53728  -2.24992
H     0.77809  -3.31992  -1.53785
H    -0.07860  -2.77258  -0.07824
