22
Generated by autodE on: 2022-06-02. E = -662.344262 Ha
C     1.39782  -2.96579   2.16441
N     0.65524  -2.19806   1.18915
C     0.81295  -0.86733   1.08194
O     1.59399  -0.21643   1.80280
C     0.00652  -0.18943   0.05139
O     0.10722   1.10893  -0.11291
C     0.80255   2.05179   0.45471
C     0.59944   3.34873  -0.05036
N     0.46133   4.44187  -0.43983
C    -0.95295  -0.83745  -0.86843
O    -1.16209  -2.06600  -0.82149
N    -1.58435  -0.04160  -1.75091
C    -2.54377  -0.57766  -2.69503
H     1.11180  -4.02092   2.07697
H     1.18580  -2.62539   3.19116
H     2.48474  -2.87907   2.00244
H    -0.01365  -2.63065   0.54777
H     1.48996   1.81591   1.26426
H    -1.37922   0.95150  -1.75863
H    -2.07899  -1.32478  -3.35806
H    -3.38550  -1.06414  -2.17696
H    -2.93275   0.24483  -3.30687
