22
Generated by autodE on: 2022-07-27. E = -662.344260 Ha
C    -1.99502  -2.95205  -1.17296
N    -1.04133  -2.04260  -0.57068
C    -1.14455  -0.71148  -0.73889
O    -2.06134  -0.20236  -1.41391
C    -0.11795   0.12981  -0.08670
O     0.77764  -0.55116   0.58950
C     1.82683  -0.23689   1.29314
C     2.52330  -1.31606   1.86663
N     3.13123  -2.18274   2.36160
C    -0.03408   1.60001  -0.14940
O     0.88491   2.20653   0.43464
N    -0.98877   2.22606  -0.85927
C    -1.00356   3.66622  -0.99269
H    -1.71878  -3.97904  -0.90629
H    -1.99867  -2.85857  -2.27068
H    -3.01787  -2.75466  -0.81454
H    -0.28012  -2.41619  -0.01468
H     2.11718   0.80484   1.41169
H    -1.69338   1.62998  -1.29998
H    -1.86404   3.95586  -1.60788
H    -1.08765   4.16072  -0.01116
H    -0.08350   4.03595  -1.47434
