49
Generated by autodE on: 2022-06-02. E = -1626.012664 Ha. Imaginary frequency = -197.2 cm-1
C    -3.60554  -3.48035  -0.38368
N    -2.79140  -2.52466   0.34107
C    -2.77940  -1.22120   0.00841
O    -3.54224  -0.75679  -0.86246
C    -1.79607  -0.35275   0.69270
C    -1.98931   1.09582   0.91129
O    -1.27705   1.72395   1.71715
N    -2.97277   1.67597   0.20266
C    -3.16793   3.10843   0.22069
O    -0.92067  -1.02470   1.43588
C     0.24032  -0.59542   1.87433
C     1.09714  -1.57742   2.41381
N     1.86604  -2.35596   2.82032
C     1.26116  -0.17794  -0.37769
C     2.20004   0.82617   0.15507
C     3.55472   0.47918   0.33894
C     4.47497   1.40442   0.83553
C     4.06481   2.69648   1.17387
C     2.72018   3.04944   1.01705
C     1.79886   2.12985   0.51649
C     1.72772  -1.58334  -0.78202
C     2.28422  -1.42402  -2.23560
C     1.00006  -1.16628  -3.07490
C    -0.13048  -1.20776  -1.99655
C     0.40741  -2.31230  -1.07202
C     0.10607   0.01786  -1.13376
Cl   -0.44121   1.55699  -1.75655
H    -3.52290  -4.45745   0.10719
H    -4.66147  -3.17167  -0.38736
H    -3.27563  -3.57964  -1.43116
H    -2.11572  -2.86392   1.01698
H    -3.43952   1.08287  -0.48639
H    -2.32129   3.63885  -0.24871
H    -3.26938   3.47992   1.25117
H    -4.08347   3.34977  -0.33358
H     0.38524   0.46182   2.07664
H     3.89923  -0.52355   0.08752
H     5.51944   1.10915   0.96095
H     4.78388   3.41998   1.56498
H     2.38119   4.05066   1.29404
H     0.75280   2.41622   0.43859
H     2.41256  -2.06856  -0.07797
H     3.01521  -0.60768  -2.31021
H     2.78530  -2.35456  -2.54020
H     1.01565  -0.20443  -3.60591
H     0.83086  -1.96076  -3.81639
H    -1.14925  -1.30384  -2.38971
H     0.56397  -3.26070  -1.60580
H    -0.20252  -2.50219  -0.18596
