33
Generated by autodE on: 2022-06-12. E = -769.851080 Ha
C     0.25155   3.03699   0.83494
C    -1.04137   2.93848   0.50987
C    -1.05115   2.16938  -0.82964
O     0.15841   2.66358  -1.42746
C     0.99703   2.32266  -0.31174
C     0.68315   0.80165  -0.18967
C     1.68202  -0.17568   0.23565
C     2.74161   0.22480   1.07558
C     3.70687  -0.69226   1.49763
C     3.64546  -2.02353   1.07631
C     2.61036  -2.43011   0.22445
C     1.64119  -1.51969  -0.19222
C    -0.63278   0.70742  -0.50220
C    -1.60293  -0.38670  -0.40658
C    -1.52007  -1.35405   0.61648
C    -2.46467  -2.37490   0.71247
C    -3.51656  -2.45368  -0.20819
C    -3.61956  -1.49451  -1.21997
C    -2.67762  -0.46784  -1.31482
H     0.71915   3.44971   1.72832
H    -1.92757   3.24813   1.06291
H    -1.92183   2.30291  -1.47969
H     2.04424   2.59217  -0.48426
H     2.80101   1.26139   1.41498
H     4.51314  -0.36268   2.15737
H     4.40307  -2.73993   1.40232
H     2.56265  -3.46531  -0.12223
H     0.84762  -1.84413  -0.86663
H    -0.71406  -1.29199   1.34874
H    -2.38460  -3.11086   1.51625
H    -4.25547  -3.25479  -0.13170
H    -4.43945  -1.54415  -1.94058
H    -2.76703   0.27218  -2.11264
