38
Generated by autodE on: 2022-07-27. E = -1009.357569 Ha
C     1.70761   2.82806  -3.21072
N     1.18176   1.96783  -2.17244
C     0.74360   2.47144  -0.99347
O     0.80866   3.70149  -0.75791
C     0.22788   1.52439  -0.01060
O     0.17960   0.25821  -0.47409
C    -0.00251  -0.88959   0.09758
C     0.21084  -1.01161   1.58371
O     1.17525  -0.42995   2.08951
N    -0.60725  -1.83233   2.25650
C    -0.50903  -1.96717   3.69767
C    -0.14478  -2.00606  -0.81598
C     0.02477  -3.34518  -0.39302
C    -0.09914  -4.39093  -1.30458
C    -0.39135  -4.12983  -2.64751
C    -0.55903  -2.80737  -3.07942
C    -0.44198  -1.75513  -2.17858
C    -0.54925   1.87943   1.17124
O    -1.30287   1.04827   1.72102
N    -0.43758   3.15513   1.60894
C    -1.32423   3.67384   2.62749
H     2.58086   3.39960  -2.85676
H     0.95474   3.55260  -3.56243
H     2.01718   2.20679  -4.06020
H     1.12324   0.96919  -2.33505
H    -1.42411  -2.20150   1.77939
H     0.50899  -2.26260   3.99032
H    -0.74977  -1.01527   4.19960
H    -1.21433  -2.73742   4.03190
H     0.27330  -3.56561   0.64416
H     0.04083  -5.41911  -0.96433
H    -0.49078  -4.95429  -3.35696
H    -0.79268  -2.59907  -4.12575
H    -0.59137  -0.72807  -2.51384
H     0.05404   3.78741   0.97195
H    -2.36361   3.78260   2.26924
H    -1.34095   3.00445   3.49999
H    -0.96330   4.65953   2.94849
