38
Generated by autodE on: 2022-06-12. E = -1009.357535 Ha
C    -4.13281   0.23651  -2.02418
N    -2.85331   0.15229  -1.35305
C    -2.76177   0.16470  -0.00139
O    -3.79178   0.23197   0.71090
C    -1.42681   0.06880   0.58025
O    -0.44648   0.07017  -0.34706
C     0.82053  -0.19429  -0.29905
C     1.36033  -0.99088   0.85998
O     0.70753  -1.95794   1.26342
N     2.57499  -0.66092   1.31979
C     3.14668  -1.33528   2.47017
C     1.54681   0.09292  -1.52031
C     2.81997  -0.46543  -1.78124
C     3.47895  -0.18423  -2.97567
C     2.89022   0.65180  -3.93039
C     1.62830   1.20928  -3.68456
C     0.96214   0.93961  -2.49465
C    -1.09196   0.36525   1.96833
O     0.07136   0.68081   2.29731
N    -2.10816   0.31669   2.86062
C    -1.93810   0.80366   4.21219
H    -3.96437   0.21369  -3.10789
H    -4.78875  -0.60694  -1.75297
H    -4.66503   1.16797  -1.77124
H    -2.00599   0.07917  -1.90416
H     2.99981   0.20127   0.99111
H     4.17285  -0.97814   2.61863
H     3.16564  -2.42286   2.30982
H     2.55820  -1.13037   3.38002
H     3.28427  -1.13462  -1.05836
H     4.45849  -0.62801  -3.16567
H     3.41359   0.87160  -4.86352
H     1.16728   1.86733  -4.42433
H    -0.01141   1.39013  -2.29778
H    -3.04077   0.23712   2.44724
H    -1.05012   0.34982   4.67613
H    -2.82113   0.53117   4.80453
H    -1.81407   1.90056   4.25487
