26
Generated by autodE on: 2022-06-20. E = -632.167703 Ha
C     1.17399  -0.95175  -0.57534
O    -0.00179  -0.49915  -0.33768
N    -1.09807  -1.15348  -0.83470
C    -2.23533  -0.49479  -0.43449
C    -3.45827  -1.04701  -0.89907
C    -4.67770  -0.46858  -0.56230
C    -4.73038   0.67568   0.24685
C    -3.52992   1.22708   0.71250
C    -2.29792   0.66197   0.38597
C     2.32534  -0.26805  -0.07252
C     2.23264   0.92300   0.68813
C     3.38802   1.54097   1.15065
C     4.64835   0.99217   0.86804
C     4.74959  -0.18423   0.11600
C     3.59982  -0.81334  -0.35349
H     1.25100  -1.86776  -1.17142
H    -3.41867  -1.93789  -1.53015
H    -5.60243  -0.91619  -0.93637
H    -5.68905   1.12773   0.50979
H    -3.55146   2.11819   1.34611
H    -1.37885   1.10990   0.76362
H     1.25212   1.34962   0.90590
H     3.31327   2.45943   1.73686
H     5.55137   1.48474   1.23540
H     5.73052  -0.61080  -0.10412
H     3.67082  -1.73152  -0.94100
