26
Generated by autodE on: 2022-07-27. E = -632.167699 Ha
C    -1.20754   0.77715  -0.74924
O    -0.02196   0.49179  -0.35350
N     1.03463   1.27242  -0.74226
C     2.19034   0.76988  -0.19510
C     2.30212  -0.36917   0.64471
C     3.54751  -0.76677   1.12912
C     4.71356  -0.06118   0.80593
C     4.61209   1.06554  -0.02290
C     3.37853   1.47804  -0.51613
C    -2.31526  -0.03481  -0.34935
C    -3.60420   0.31978  -0.81154
C    -4.71205  -0.44102  -0.44824
C    -4.55428  -1.56089   0.37684
C    -3.27922  -1.92019   0.84008
C    -2.16521  -1.16954   0.48481
H    -1.32669   1.65429  -1.39492
H     1.41027  -0.93587   0.91200
H     3.60709  -1.64779   1.77428
H     5.68328  -0.38269   1.19169
H     5.50946   1.63109  -0.28809
H     3.30109   2.35579  -1.16193
H    -3.71963   1.19503  -1.45498
H    -5.70447  -0.16176  -0.80844
H    -5.42469  -2.15653   0.66083
H    -3.16017  -2.79455   1.48362
H    -1.17300  -1.44785   0.84393
