20
Generated by autodE on: 2022-06-20. E = -457.715318 Ha
C    -3.12070   0.59400   0.03192
N    -1.82810  -0.07057   0.06896
C    -1.76724  -1.46810  -0.00028
C    -0.60734  -2.14144  -0.05778
C     0.74069  -1.46377  -0.05827
C     0.57516   0.04656  -0.00498
C     1.74058   0.94547  -0.00444
N     2.95660   0.34647  -0.06300
O     1.65009   2.18906   0.04649
C    -0.65727   0.62619   0.04823
H    -3.61081   0.47157  -0.94891
H    -2.98297   1.66560   0.22315
H    -3.78817   0.18402   0.80548
H    -2.73603  -1.97095   0.00034
H    -0.64199  -3.23239  -0.10259
H     1.34941  -1.82527   0.79611
H     1.31866  -1.76757  -0.95526
H     3.07215  -0.65766  -0.10957
H     3.78544   0.93076  -0.06830
H    -0.74666   1.71317   0.08203
