65
Generated by autodE on: 2022-06-11. E = -1720.702194 Ha
C     2.80496   3.34334  -2.08803
N     2.07990   2.61217  -1.07271
C     2.61161   1.56301  -0.44179
O     3.79439   1.22603  -0.56326
C     1.63827   0.85079   0.56390
C     2.28709   1.16546   1.94745
C     3.65194   0.62494   2.27422
O     1.71786   1.93918   2.69578
N     0.32772   1.44859   0.52421
C    -0.73375   0.63284  -0.05399
C    -1.35649   1.35828  -1.26880
C    -2.09793   0.70030  -2.26449
C    -2.69354   1.41033  -3.31052
C    -2.58006   2.80134  -3.37774
C    -1.87838   3.47335  -2.37486
C    -1.28176   2.75791  -1.33251
C    -1.84945   0.39811   1.00597
C    -1.50522   0.25936   2.36032
C    -2.47665   0.00752   3.33160
C    -3.82072  -0.11472   2.97178
C    -4.17802   0.02078   1.62849
C    -3.20430   0.27781   0.65932
C     0.00360  -0.75251  -0.41120
C    -0.85945  -1.91890   0.05147
O    -0.69118  -2.58128   1.05328
O    -1.86606  -2.12762  -0.79482
C    -2.82589  -3.13411  -0.43790
C     0.44241  -1.00826  -1.92750
C     0.79618  -2.48748  -2.01296
C     1.96556  -2.59537  -1.37370
C     2.33402  -1.18155  -0.95110
O     1.72783  -0.39806  -1.99060
C     1.44422  -0.69167   0.25085
C     1.60768  -1.50917   1.52981
O     1.32482  -1.10065   2.63876
O     2.17511  -2.68944   1.32022
C     2.31244  -3.55566   2.45606
H     2.98439   2.72035  -2.98080
H     3.78160   3.67560  -1.70558
H     2.21957   4.22295  -2.38320
H     1.08231   2.74925  -0.93475
H     3.92964  -0.26406   1.69720
H     4.38709   1.41325   2.04902
H     3.69386   0.41430   3.35140
H     0.09872   1.87392   1.41831
H    -2.23072  -0.37880  -2.22169
H    -3.25423   0.86709  -4.07490
H    -3.04291   3.35557  -4.19753
H    -1.79457   4.56257  -2.39592
H    -0.76319   3.30357  -0.54410
H    -0.46444   0.32025   2.66813
H    -2.17450  -0.09829   4.37630
H    -4.58213  -0.31146   3.73016
H    -5.22408  -0.06690   1.32560
H    -3.51981   0.38275  -0.37636
H    -3.57153  -3.13414  -1.24059
H    -2.33809  -4.11617  -0.36629
H    -3.29652  -2.87991   0.52220
H    -0.22149  -0.60164  -2.68782
H     0.16155  -3.26668  -2.43182
H     2.54923  -3.48568  -1.15238
H     3.39287  -0.94854  -0.83879
H     1.32087  -3.78651   2.87055
H     2.93558  -3.08102   3.22669
H     2.79259  -4.46683   2.08215
