40
Generated by autodE on: 2022-07-27. E = -957.179527 Ha
C     1.98853   2.66539  -1.60604
N     1.77157   1.73495  -0.51612
C     2.37571   0.52025  -0.49922
O     3.33526   0.28130  -1.25459
C     1.88195  -0.46357   0.47636
N     0.55684  -0.57086   0.86534
C    -0.61061  -0.23944   0.34475
C    -0.72696   0.25758  -1.03910
C    -0.06140  -0.39999  -2.08980
C    -0.17805   0.06932  -3.39676
C    -0.94570   1.20768  -3.67088
C    -1.61007   1.86582  -2.63197
C    -1.51066   1.38920  -1.32384
C    -1.80382  -0.41706   1.18267
C    -1.71846  -0.37402   2.59080
C    -2.84998  -0.58827   3.37649
C    -4.08859  -0.83725   2.77586
C    -4.18808  -0.87030   1.38051
C    -3.06014  -0.66077   0.58911
C     2.73110  -1.32389   1.24995
C     4.22457  -1.33070   1.03032
O     2.23134  -2.06520   2.13188
H     1.27683   3.49457  -1.51081
H     1.83418   2.17692  -2.58193
H     3.01021   3.07671  -1.59086
H     0.96998   1.89562   0.08124
H     0.52974  -1.12153   1.73959
H     0.54724  -1.28161  -1.88156
H     0.33561  -0.45314  -4.20668
H    -1.02537   1.57983  -4.69473
H    -2.20877   2.75527  -2.84013
H    -2.02644   1.90575  -0.51248
H    -0.76767  -0.14157   3.07546
H    -2.76678  -0.54458   4.46467
H    -4.97523  -0.99821   3.39318
H    -5.15120  -1.06722   0.90434
H    -3.14555  -0.70707  -0.49702
H     4.63949  -0.31588   0.95163
H     4.69869  -1.86715   1.86350
H     4.46428  -1.84727   0.08794
