25
Generated by autodE on: 2022-06-11. E = -763.485381 Ha
C    -3.74451  -1.39870   0.25445
O    -2.68256  -0.45370   0.44354
C    -1.43168  -0.91159   0.28477
O    -1.17215  -2.06519   0.00379
C    -0.46499   0.18198   0.49121
C     0.82608   0.30932   0.12400
C     1.76276  -0.52880  -0.64537
O     2.53277  -0.03344  -1.45020
O     1.70267  -1.82704  -0.36989
C     2.57948  -2.68671  -1.11584
C     1.17116   1.79252   0.41532
C     0.38149   2.63944  -0.60804
C    -0.89553   2.51669  -0.23693
C    -0.85897   1.59396   1.00194
O     0.38567   1.99039   1.59677
H    -3.72013  -1.80426  -0.76740
H    -4.67518  -0.84476   0.42196
H    -3.65621  -2.22373   0.97623
H     2.36040  -2.61558  -2.19081
H     2.38330  -3.70187  -0.75307
H     3.62884  -2.41196  -0.93639
H     2.23088   2.02262   0.56238
H     0.82184   3.15288  -1.46144
H    -1.80269   2.90269  -0.69959
H    -1.69627   1.64226   1.70346
