65
Generated by autodE on: 2022-06-11. E = -1720.646524 Ha. Imaginary frequency = -240.9 cm-1
C     2.51364   2.92597  -2.33918
N     1.85001   2.50278  -1.12372
C     2.41316   1.59990  -0.30632
O     3.59851   1.26523  -0.44384
C     1.60442   1.05442   0.83920
C     2.31712   1.01942   2.17123
C     3.76844   0.65433   2.27425
O     1.66847   1.25646   3.18919
N     0.25630   1.26460   1.07756
C    -0.88548   0.99258   0.39000
C    -1.21710   1.71941  -0.87225
C    -1.83054   1.11178  -1.97729
C    -2.20759   1.87183  -3.08561
C    -2.00838   3.25572  -3.09830
C    -1.45875   3.88153  -1.97664
C    -1.08356   3.12241  -0.86553
C    -2.04275   0.59546   1.23338
C    -1.84590  -0.01741   2.49002
C    -2.92916  -0.40290   3.27698
C    -4.23696  -0.20889   2.82293
C    -4.44949   0.38693   1.57607
C    -3.36857   0.78982   0.79325
C     0.09943  -1.14341  -0.41264
C    -1.02172  -1.93485   0.09445
O    -1.08925  -2.52983   1.15789
O    -2.03642  -1.96580  -0.79812
C    -3.20660  -2.69657  -0.41699
C     0.39629  -1.20054  -1.94386
C     0.90035  -2.63416  -2.19866
C     2.11578  -2.67199  -1.64240
C     2.33687  -1.26017  -1.07399
O     1.61797  -0.46138  -2.02154
C     1.40111  -1.10760   0.15596
C     1.82519  -1.82946   1.37689
O     2.72136  -2.65895   1.36136
O     1.18165  -1.47571   2.48370
C     1.55998  -2.11619   3.70694
H     2.68506   2.07225  -3.01591
H     3.48608   3.39183  -2.12124
H     1.87418   3.65938  -2.84673
H     0.86071   2.70035  -1.04452
H     4.38842   1.46829   1.87110
H     4.00539   0.49999   3.33494
H     4.01274  -0.24266   1.69147
H     0.14014   1.18741   2.09667
H    -2.03579   0.04450  -1.95572
H    -2.66847   1.37695  -3.94335
H    -2.30032   3.84574  -3.96983
H    -1.33143   4.96604  -1.95588
H    -0.68670   3.62046   0.02146
H    -0.84041  -0.23389   2.84860
H    -2.74706  -0.87782   4.24350
H    -5.08524  -0.52274   3.43541
H    -5.46609   0.54787   1.21067
H    -3.56151   1.26940  -0.16472
H    -3.91254  -2.59072  -1.24910
H    -3.64185  -2.27820   0.50174
H    -2.96662  -3.75796  -0.25764
H    -0.35630  -0.80697  -2.62729
H     0.31864  -3.42869  -2.66470
H     2.81029  -3.50307  -1.53172
H     3.36316  -0.91714  -0.94014
H     1.33163  -3.19065   3.65920
H     0.96620  -1.63568   4.49260
H     2.63273  -1.97470   3.89964
