45
Generated by autodE on: 2022-06-19. E = -885.462794 Ha
C    -5.82235  -0.64758   0.17014
C    -4.68564  -0.17891   0.72398
C    -4.66364   0.41678   2.10690
C    -3.42940  -0.24550  -0.03076
C    -2.22927   0.17762   0.40824
C    -0.97670   0.08746  -0.39640
C    -0.13482   1.38703  -0.47670
C    -0.75835   2.38794  -1.43155
C    -1.77868   3.32451  -0.86138
O    -0.44204   2.39051  -2.61151
N     1.15634   0.93582  -0.96407
N     1.34447  -0.38432  -0.45463
C     2.62020  -0.68360   0.01735
C     2.94569  -1.97672   0.49385
C     4.23588  -2.27558   0.93150
C     5.25360  -1.31609   0.89984
C     4.94681  -0.04184   0.41200
C     3.66016   0.27453  -0.02491
C     0.07882  -0.94186   0.12338
C     0.12296  -0.96673   1.65658
C    -0.27462  -2.32324  -0.43532
H    -6.77499  -0.61365   0.70617
H    -5.82585  -1.07764  -0.83612
H    -3.97802  -0.13960   2.76750
H    -5.66474   0.40856   2.56047
H    -4.30130   1.45809   2.08330
H    -3.49721  -0.67799  -1.03591
H    -2.13723   0.61970   1.40404
H    -1.22724  -0.19714  -1.43070
H    -0.04970   1.83404   0.52673
H    -2.52274   2.76426  -0.27302
H    -1.27613   4.01511  -0.16337
H    -2.27031   3.89376  -1.66083
H     1.07285   0.86881  -1.98245
H     2.19323  -2.76144   0.51057
H     4.44629  -3.28521   1.29460
H     6.26293  -1.55926   1.23864
H     5.72224   0.72817   0.36856
H     3.43734   1.26823  -0.40713
H     0.94118  -1.60160   2.01947
H    -0.81632  -1.37559   2.05539
H     0.26698   0.04283   2.06958
H    -1.32333  -2.55642  -0.19267
H     0.34539  -3.12219  -0.00631
H    -0.16148  -2.33894  -1.52934
