22
Generated by autodE on: 2022-06-19. E = -533.911519 Ha
C    -4.71876   0.00918   0.06541
C    -3.26678  -0.37811   0.16391
O    -2.91206  -1.53253   0.45778
C    -2.29570   0.65471  -0.11023
N    -1.01227   0.30497  -0.04137
N     0.00445   1.06635  -0.23742
C     1.26762   0.48421  -0.14001
C     1.53945  -0.88796   0.06052
C     2.85712  -1.33634   0.13869
C     3.92823  -0.44281   0.01631
C     3.66708   0.91682  -0.18908
C     2.35423   1.37533  -0.26793
H    -4.96155   0.28885  -0.97340
H    -5.35352  -0.83129   0.37509
H    -4.92824   0.88990   0.69340
H    -2.54480   1.68306  -0.36785
H    -0.89738  -0.69768   0.20355
H     0.73622  -1.62235   0.14940
H     3.04927  -2.40085   0.29307
H     4.95660  -0.80523   0.07738
H     4.49290   1.62521  -0.28880
H     2.13730   2.43336  -0.42728
