45
Generated by autodE on: 2022-06-19. E = -885.406956 Ha. Imaginary frequency = -372.6 cm-1
C    -2.96568   2.11026   3.60745
C    -3.32960   1.41564   2.50737
C    -4.77794   1.26638   2.11882
C    -2.30603   0.79113   1.66918
C    -2.54337   0.07140   0.54580
C    -1.54801  -0.54926  -0.32922
C    -0.51097   1.17548  -1.19950
C    -1.13110   1.33180  -2.51805
C    -2.42541   2.09274  -2.56817
O    -0.61573   0.83415  -3.52316
N     0.75230   0.70360  -1.16892
N     1.13296   0.16574  -0.00777
C     2.40490  -0.41635   0.01255
C     3.20084  -0.67601  -1.12469
C     4.44253  -1.29936  -0.99027
C     4.91983  -1.68192   0.26784
C     4.14323  -1.41771   1.40224
C     2.90749  -0.78526   1.27862
C    -0.42763  -1.32238   0.10463
C    -0.26419  -1.76458   1.53386
C     0.11095  -2.28647  -0.92237
H    -3.70765   2.58799   4.25336
H    -1.91266   2.21606   3.88630
H    -4.96314   1.67760   1.11242
H    -5.43641   1.78456   2.83019
H    -5.07292   0.20455   2.08307
H    -1.27248   0.94650   1.99379
H    -3.57850  -0.02340   0.20103
H    -1.95522  -0.87086  -1.29198
H    -0.83388   1.79296  -0.36248
H    -3.07794   1.81127  -1.72705
H    -2.20929   3.16966  -2.46116
H    -2.93398   1.92036  -3.52579
H     1.06888   0.29359  -2.05639
H     2.86576  -0.39465  -2.12403
H     5.04337  -1.48919  -1.88327
H     5.89208  -2.17014   0.36435
H     4.50967  -1.69443   2.39388
H     2.31319  -0.55021   2.16208
H    -0.99760  -2.56146   1.75508
H     0.73392  -2.19488   1.69579
H    -0.41694  -0.95964   2.26026
H     1.10495  -2.66995  -0.65027
H    -0.56479  -3.15571  -1.01302
H     0.17031  -1.82164  -1.92003
