15
Generated by autodE on: 2022-05-28. E = -396.224876 Ha
C     3.10951   0.56454  -0.18779
N     2.30177  -0.63710  -0.42010
N     1.09104  -0.44385  -0.46673
C    -0.08957  -0.30751  -0.62897
C    -1.31677  -0.47806   0.16656
O    -1.75275  -1.61032   0.39480
N    -1.92405   0.66295   0.54484
C    -1.37526   1.99632   0.37909
H     4.16527   0.27190  -0.17579
H     2.85686   1.03498   0.77656
H     2.95063   1.30581  -0.98888
H    -2.75296   0.54117   1.12192
H    -2.19181   2.72826   0.42750
H    -0.88892   2.08921  -0.60299
H    -0.63492   2.24423   1.15765
