17
Generated by autodE on: 2022-05-28. E = -831.765985 Ha
F     0.27304   2.16273   0.43865
C    -0.18115   0.99174  -0.01264
C     0.53932  -0.07635  -0.38328
Cl    2.26060  -0.25185  -0.34020
C    -0.44117  -1.22361  -0.56890
C    -0.93136  -1.61027   0.86384
C    -1.75297  -0.36055   1.29897
C    -1.63470   0.58933   0.05881
C    -1.66742  -0.44189  -1.09005
H    -0.07159  -2.05660  -1.17890
H    -0.08521  -1.82383   1.53227
H    -1.56279  -2.50988   0.81829
H    -2.80897  -0.61392   1.47341
H    -1.36446   0.11596   2.21007
H    -2.35233   1.41861   0.03158
H    -1.50260   0.00824  -2.07917
H    -2.58812  -1.04454  -1.09666
