46
Generated by autodE on: 2022-06-03. E = -3973.823601 Ha
C    -1.94783  -3.07289  -0.15445
C    -0.57233  -2.37809  -0.27260
C    -0.32178  -2.21135  -1.78973
C     0.46111  -3.37360   0.40306
C     1.36302  -2.89241   1.54746
C     2.68479  -2.26527   1.08864
C     2.57440  -1.35127  -0.13044
C     1.81103  -0.05771   0.10947
Cl    2.86833   1.00318   1.14979
Br    1.72706   0.91496  -1.69031
C     0.40631  -0.11586   0.64309
C    -0.59138  -1.00564   0.40700
C    -1.90674  -0.44726   0.92022
C    -2.83883  -0.00189  -0.20174
C    -2.36302   0.74997  -1.28686
C    -3.24106   1.19874  -2.27577
C    -4.60617   0.90408  -2.19070
C    -5.08831   0.16091  -1.10913
C    -4.20774  -0.28891  -0.12114
N    -1.52029   0.67750   1.78117
C    -0.12367   1.01979   1.55208
C     0.54821   1.00612   2.88686
N     0.93533   0.95304   3.97897
C     0.03130   2.37305   0.96131
N     0.05838   3.44354   0.51755
H    -2.23108  -3.24737   0.89346
H    -2.74866  -2.50735  -0.64662
H    -1.88183  -4.05299  -0.64922
H    -1.14800  -1.64933  -2.24910
H     0.60414  -1.67887  -2.03297
H    -0.27955  -3.20537  -2.26058
H     1.08852  -3.81112  -0.39028
H    -0.13522  -4.20771   0.79628
H     0.81241  -2.20665   2.20854
H     1.60963  -3.76552   2.17207
H     3.16720  -1.72943   1.92097
H     3.37506  -3.07302   0.79532
H     2.10046  -1.89488  -0.95424
H     3.57544  -1.07188  -0.48598
H    -2.43644  -1.19796   1.52158
H    -1.29951   0.98334  -1.36629
H    -2.85630   1.77827  -3.11826
H    -5.29204   1.25342  -2.96606
H    -6.15336  -0.07115  -1.03423
H    -4.58247  -0.87548   0.72143
H    -2.13222   1.48402   1.68602
