46
Generated by autodE on: 2022-06-03. E = -3973.753601 Ha. Imaginary frequency = -320.2 cm-1
C    -1.84667  -2.95182   0.53867
C    -0.82794  -2.38466  -0.46812
C    -1.43528  -2.37879  -1.88161
C     0.43315  -3.30089  -0.48576
C     1.32709  -3.23795   0.76804
C     2.72423  -2.64140   0.53544
C     2.81432  -1.33127  -0.25662
C     2.03632  -0.13772   0.30742
Cl    2.67583   0.27271   1.96400
Br    2.45467   1.43375  -0.90884
C     0.59604  -0.32451   0.30792
C    -0.39111  -1.00884  -0.04723
C    -2.17047   0.34624   0.38519
C    -3.11622   0.30705  -0.73098
C    -2.82035   0.92340  -1.96199
C    -3.72178   0.84404  -3.02172
C    -4.92457   0.14297  -2.87207
C    -5.22509  -0.47402  -1.65314
C    -4.32739  -0.39356  -0.58848
N    -1.46498   1.46094   0.61728
C    -0.37720   1.46178   1.47272
C    -0.46485   0.66174   2.65235
N    -0.56683  -0.01859   3.59255
C     0.38690   2.65920   1.56452
N     1.00808   3.64154   1.64393
H    -1.44850  -2.93973   1.56444
H    -2.78990  -2.39087   0.53029
H    -2.07766  -3.99478   0.27182
H    -2.40010  -1.85899  -1.91362
H    -0.75581  -1.89609  -2.60049
H    -1.59796  -3.41791  -2.20918
H     1.02206  -3.05060  -1.38222
H     0.06925  -4.32832  -0.64457
H     0.81960  -2.67346   1.56481
H     1.46836  -4.25198   1.17383
H     3.22641  -2.51019   1.50698
H     3.33335  -3.36719  -0.02969
H     2.44650  -1.47861  -1.28245
H     3.87030  -1.03478  -0.33554
H    -2.36745  -0.28553   1.25110
H    -1.86498   1.43452  -2.10364
H    -3.47959   1.31810  -3.97544
H    -5.62489   0.07470  -3.70765
H    -6.16333  -1.01983  -1.53163
H    -4.56018  -0.87362   0.36435
H    -1.43062   2.16419  -0.12148
