23
Generated by autodE on: 2022-06-19. E = -351.521383 Ha
C     3.68752  -0.81185  -0.20382
C     2.57958  -0.03888  -0.17432
C     2.66962   1.46299  -0.26599
C     1.26107  -0.65731  -0.05090
C     0.07754   0.00474  -0.00797
C    -1.20447  -0.65850   0.11565
C    -2.42599  -0.06982   0.16966
C    -3.67339  -0.89734   0.29907
C    -2.65587   1.41364   0.11014
H     4.68604  -0.37547  -0.29564
H     3.61884  -1.90207  -0.13707
H     3.71360   1.79451  -0.35666
H     2.10869   1.84230  -1.13631
H     2.23002   1.94268   0.62433
H     1.24983  -1.75222   0.01091
H     0.08030   1.09646  -0.06866
H    -1.16825  -1.75331   0.17037
H    -3.45589  -1.97490   0.33547
H    -4.23252  -0.62256   1.21162
H    -4.35868  -0.70734  -0.54656
H    -3.30978   1.66515  -0.74356
H    -3.19050   1.75353   1.01475
H    -1.73258   1.99998   0.01814
