20
Generated by autodE on: 2022-06-19. E = -552.863885 Ha
C     2.95216  -0.22549   0.10166
C     1.61617  -0.71300   0.61863
O     1.56161  -1.60573   1.47892
C     0.44855  -0.08916   0.06290
C     0.38344   0.93194  -0.91201
O     1.17361   1.58519  -1.56957
O    -1.03043   1.17143  -1.08311
C    -1.70881   0.36212  -0.27894
C    -3.18588   0.39871  -0.24684
N    -0.89148  -0.39778   0.41378
C    -1.31115  -1.39745   1.39182
H     3.75128  -0.78038   0.61056
H     3.03115  -0.37424  -0.98654
H     3.07435   0.85358   0.28386
H    -3.53862   1.14990  -0.96330
H    -3.54461   0.66075   0.76063
H    -3.60408  -0.58392  -0.51450
H    -2.40484  -1.40952   1.44083
H    -0.89694  -1.14619   2.37489
H    -0.94151  -2.38406   1.09029
