43
Generated by autodE on: 2022-06-19. E = -904.353222 Ha. Imaginary frequency = -449.5 cm-1
C     5.58819   0.51004   0.70445
C     4.50556   0.12412  -0.00308
C     4.61259  -0.27501  -1.45195
C     3.18805   0.08954   0.63694
C     2.03875  -0.28393   0.03751
C     0.72639  -0.28815   0.71596
C    -0.12543   1.32594   0.08159
C     0.74929   2.49148   0.40701
O    -0.23951   1.04329  -1.27920
C    -1.37699   0.26043  -1.44865
O    -1.61807  -0.25811  -2.52519
C    -2.03889   0.25943  -0.16828
C    -3.26059  -0.44852   0.16644
C    -3.81716  -1.39202  -0.86991
O    -3.81270  -0.32744   1.26626
N    -1.39961   1.22856   0.60130
C    -1.68480   1.61957   1.97168
C    -0.18046  -1.36682   0.45634
C     0.00456  -2.27880  -0.71778
C    -0.96145  -1.94271   1.60132
H     6.58285   0.54768   0.25143
H     5.50320   0.79907   1.75658
H     3.98167   0.36793  -2.08806
H     5.64960  -0.20482  -1.80927
H     4.26172  -1.30907  -1.60573
H     3.15723   0.39844   1.68841
H     2.05279  -0.58721  -1.01137
H     0.78684  -0.01527   1.77732
H     1.68680   2.41788  -0.15611
H     0.24050   3.42831   0.13175
H     0.98587   2.51083   1.47890
H    -4.08628  -0.84698  -1.78746
H    -4.70282  -1.88913  -0.45345
H    -3.06768  -2.14435  -1.16001
H    -1.08968   1.03389   2.69160
H    -1.44344   2.68313   2.10080
H    -2.74517   1.45689   2.17348
H     0.75241  -3.05216  -0.45696
H     0.36601  -1.76918  -1.61974
H    -0.92970  -2.80541  -0.96103
H    -0.29944  -2.63614   2.15631
H    -1.30292  -1.18168   2.31434
H    -1.82734  -2.52996   1.26368
