52
Generated by autodE on: 2022-10-21. E = -1150.769642 Ha
C     5.76499   2.81460   1.13884
O     6.58568   1.65167   0.93546
C     6.41235   0.64228   1.77215
O     5.56053   0.61922   2.63805
C     7.33153  -0.56454   1.52107
C     8.27485  -0.37752   0.31065
C     8.20291  -1.40154  -0.78175
O     9.07564   0.54172   0.28408
N     6.40943  -1.70293   1.32407
N     7.11508  -2.82011   1.88356
C     7.98454  -2.32750   2.86599
C     8.18410  -0.99093   2.75920
C     9.07710  -0.06710   3.59343
C     8.63566   1.40504   3.48348
C    10.53903  -0.16031   3.09518
C     9.07858  -0.44598   5.10103
C     7.74107  -0.61102   5.82998
C     6.83354  -1.78104   5.41656
C     7.50939  -3.14090   5.20293
C     8.39157  -3.33656   3.93271
O     9.78229  -3.21584   4.12787
C    10.35657  -3.97178   5.18568
O     8.09762  -4.65841   3.49286
C     8.94744  -5.18432   2.47758
H     6.03942   3.51663   0.34385
H     4.70120   2.54876   1.06857
H     5.97444   3.25216   2.12544
H     8.32108  -2.41129  -0.35816
H     7.20362  -1.37492  -1.24280
H     8.97852  -1.19977  -1.53180
H     5.62353  -1.51600   1.95715
H     6.49163  -3.56828   2.17929
H     7.63158   1.56940   3.89732
H     8.65256   1.75603   2.44445
H     9.33572   2.03278   4.05543
H    11.19338   0.47032   3.71991
H    10.90046  -1.19583   3.15241
H    10.62835   0.18214   2.05591
H     9.64248   0.35129   5.61395
H     9.67074  -1.35658   5.23766
H     7.15416   0.32105   5.76508
H     7.98550  -0.73400   6.89967
H     6.08809  -1.92113   6.21731
H     6.25531  -1.51542   4.52039
H     8.10697  -3.40902   6.08644
H     6.72115  -3.90196   5.12190
H    11.42143  -4.09515   4.94349
H     9.89323  -4.96625   5.27632
H    10.27416  -3.44571   6.15179
H     9.10498  -4.46758   1.65729
H     9.92719  -5.48572   2.88162
H     8.44008  -6.07363   2.07792
