18
Generated by autodE on: 2022-10-26. E = -530.728848 Ha
C    -1.35807   2.94135   0.22260
O    -0.51065   1.83621  -0.12328
C    -0.80455   0.66616   0.43593
O    -1.74931   0.52140   1.20950
C     0.07714  -0.45672   0.06989
N    -0.33388  -1.58496   0.70751
N     0.12874  -2.76398   0.68013
C     1.22500  -0.39095  -0.83929
C     2.02064  -1.64302  -1.10947
O     1.54763   0.66699  -1.38320
H    -0.96270   3.80270  -0.32813
H    -2.39675   2.74204  -0.07823
H    -1.32172   3.13317   1.30473
H    -1.16606  -1.36220   1.29237
H    -0.46724  -3.32302   1.30271
H     2.43547  -2.05637  -0.17789
H     1.38252  -2.43166  -1.53587
H     2.82966  -1.38896  -1.80699
