34
Generated by autodE on: 2022-10-21. E = -619.971808 Ha
C    -1.28361   2.90535   0.17412
O    -1.65350   2.02986  -0.87570
C    -1.11660   0.71761  -0.84108
O    -1.24278   0.20491  -2.14354
C    -0.44607   0.83784  -3.13529
C     0.28338   0.64415  -0.35523
C     1.19035   0.10654   0.24778
C     1.95807  -0.79775   1.10882
C     3.30223  -1.19511   0.47857
C     2.19921  -0.13738   2.47957
C     1.04604  -2.05883   1.25405
C    -0.45039  -1.81855   1.54294
C    -1.40412  -1.60709   0.33248
C    -1.95821  -0.19210   0.07766
H    -1.55679   2.50750   1.16724
H    -1.82916   3.84532   0.01053
H    -0.19967   3.11498   0.16760
H     0.62973   0.74095  -2.90639
H    -0.65701   0.32913  -4.08569
H    -0.69395   1.90675  -3.23269
H     3.96702  -0.32238   0.38680
H     3.15746  -1.62826  -0.52281
H     3.80393  -1.94475   1.11042
H     2.79196   0.78368   2.37092
H     2.75287  -0.83055   3.13209
H     1.25131   0.12256   2.97355
H     1.48115  -2.66695   2.06486
H     1.13777  -2.65635   0.33176
H    -0.80510  -2.71074   2.08246
H    -0.56627  -0.98539   2.25672
H    -2.28096  -2.25365   0.49179
H    -0.93151  -1.97945  -0.59166
H    -2.94581  -0.25370  -0.40687
H    -2.09791   0.33423   1.03443
