52
Generated by autodE on: 2022-10-21. E = -1150.693095 Ha. Imaginary frequency = -266.3 cm-1
C     5.49169   2.62773   0.85451
O     6.33668   1.50071   0.58484
C     6.03751   0.36964   1.21438
O     5.04317   0.24397   1.91972
C     6.97595  -0.75216   0.98165
C     8.19573  -0.66488   0.15853
C     8.75193  -1.91536  -0.48231
O     8.74597   0.41825  -0.05133
N     6.42617  -1.92178   1.38855
N     7.13798  -2.97868   1.61921
C     8.44330  -2.31368   3.04567
C     8.62387  -1.08475   2.95788
C     9.13745   0.16258   3.57443
C     8.24364   1.38234   3.30335
C    10.55937   0.44297   3.05374
C     9.19101  -0.13578   5.10253
C     7.88871  -0.68602   5.72810
C     7.90616  -2.16511   6.16611
C     7.59269  -3.27507   5.15128
C     8.57988  -3.47328   3.98512
O     9.94038  -3.46509   4.40302
C    10.30353  -4.45400   5.36000
O     8.25724  -4.71920   3.40438
C     9.11726  -5.13762   2.34991
H     5.90006   3.45495   0.26283
H     4.45593   2.41747   0.55247
H     5.51887   2.87701   1.92543
H     9.38771  -2.45234   0.23608
H     7.96537  -2.60915  -0.80757
H     9.36938  -1.60262  -1.33544
H     5.51910  -1.79235   1.85878
H     6.54508  -3.66283   2.10182
H     7.20922   1.20661   3.63216
H     8.23293   1.62315   2.23373
H     8.63377   2.25530   3.84965
H    10.98414   1.32043   3.56737
H    10.54649   0.64648   1.97292
H    11.21841  -0.41948   3.23653
H     9.48380   0.80251   5.60283
H    10.00910  -0.85144   5.27726
H     7.67377  -0.09610   6.63291
H     7.03322  -0.51053   5.05436
H     8.87386  -2.37473   6.65045
H     7.15078  -2.28146   6.96072
H     6.59805  -3.11507   4.70604
H     7.54059  -4.23404   5.69092
H    11.40198  -4.48215   5.37992
H     9.92658  -5.44997   5.08059
H     9.93873  -4.20774   6.37052
H    10.07595  -5.51912   2.73748
H     8.59929  -5.94825   1.81870
H     9.31929  -4.31917   1.64255
