32
Generated by autodE on: 2022-05-26. E = -1008.734262 Ha
C     3.80638   2.59923  -0.66650
O     2.51472   2.15433  -0.23051
C     2.16422   0.90535  -0.56857
O     2.88923   0.14596  -1.19241
C     0.81459   0.56245  -0.14427
C    -0.15869   1.38016   0.31396
N    -1.31491   0.67740   0.50000
C    -2.55986   1.12404   0.90176
O    -2.74956   2.27784   1.22998
O    -3.45049   0.14236   0.87829
C    -4.78579   0.49235   1.28379
O    -1.16142  -0.64508   0.04263
C     0.25298  -0.84445  -0.18731
C     0.41915  -1.54975  -1.56220
C    -0.28314  -0.91708  -2.71998
O     1.08958  -2.55890  -1.63031
C     0.85527  -1.75160   0.92032
C    -0.05052  -2.79553   1.49293
O     2.00138  -1.57187   1.27614
H     4.59759   1.97032  -0.23315
H     3.90587   3.63085  -0.30968
H     3.87622   2.56858  -1.76368
H    -0.13855   2.44688   0.52815
H    -5.19448   1.26738   0.62035
H    -5.37124  -0.42970   1.19865
H    -4.78640   0.85118   2.32253
H    -0.09144  -1.49216  -3.63432
H    -1.36369  -0.87036  -2.51424
H     0.06631   0.12089  -2.84014
H     0.51507  -3.46221   2.15623
H    -0.85628  -2.29845   2.05738
H    -0.53333  -3.36626   0.68447
