10
Generated by autodE on: 2022-05-26. E = -305.347602 Ha
C     2.61385   0.28139  -0.03933
C     1.42178   0.08337   0.04900
C     0.00672  -0.20048   0.20069
O    -0.43499  -1.02297   0.97725
O    -0.73576   0.54969  -0.61370
C    -2.15904   0.34944  -0.54810
H     3.67441   0.46142  -0.12094
H    -2.52909   0.56928   0.46346
H    -2.41083  -0.68681  -0.81524
H    -2.59218   1.04711  -1.27344
