22
Generated by autodE on: 2022-07-26. E = -703.249746 Ha
C    -3.86425   1.07089  -0.14380
O    -2.48615   0.67762  -0.10500
C    -1.88587   0.74938   1.09070
O    -2.44195   1.10874   2.11693
N    -0.54927   0.39422   1.12889
O    -0.15725   0.02940  -0.11030
C     1.02963  -0.35251  -0.36678
C     1.28442  -0.68086  -1.80747
C     0.14949  -0.46707  -2.76222
O     2.38128  -1.10729  -2.12246
C     2.11193  -0.44997   0.68436
C     1.83756  -1.22737   1.93343
O     3.17215   0.08738   0.43290
H    -3.97636   2.11917   0.16922
H    -4.18090   0.95262  -1.18667
H    -4.46915   0.42700   0.51105
H     0.45927  -0.78239  -3.76593
H    -0.73603  -1.03537  -2.43729
H    -0.13783   0.59667  -2.76847
H     2.74262  -1.79822   2.18949
H     1.63085  -0.51916   2.75169
H     0.97121  -1.89480   1.82922
