32
Generated by autodE on: 2022-05-26. E = -1008.600822 Ha. Imaginary frequency = -227.2 cm-1
C     4.18086   1.32718  -0.91844
O     3.00966   1.49537  -0.10075
C     1.84056   1.48485  -0.73812
O     1.71251   1.45597  -1.94746
C     0.72830   1.49911   0.19041
C    -0.17693   1.77792   0.97541
N    -1.38261  -0.11888   1.27810
C    -2.73649   0.24610   1.27043
O    -3.16517   0.93601   2.17624
O    -3.45020  -0.21380   0.24747
C    -4.83744   0.16166   0.21961
O    -1.06086  -0.67847   0.10741
C     0.17931  -0.95984  -0.14619
C     0.40207  -1.24738  -1.60997
C    -0.73775  -0.92586  -2.53146
O     1.47199  -1.68544  -1.98843
C     1.19924  -1.32523   0.90066
C     0.72509  -1.84105   2.22847
O     2.37996  -1.25903   0.60853
H     4.11894   0.37470  -1.46385
H     5.02934   1.31765  -0.22537
H     4.27654   2.15861  -1.63067
H    -0.85935   2.27191   1.64960
H    -4.93508   1.25479   0.15678
H    -5.25646  -0.31085  -0.67580
H    -5.34982  -0.20469   1.12050
H    -0.46328  -1.21773  -3.55236
H    -1.65665  -1.44241  -2.21594
H    -0.94123   0.15590  -2.49061
H     1.49868  -2.51396   2.62331
H     0.60473  -0.99298   2.91997
H    -0.24335  -2.35512   2.15868
