39
Generated by autodE on: 2022-10-07. E = -1159.999252 Ha
C    -0.92619   3.14855  -1.97647
N    -0.45957   1.82094  -1.62448
C    -1.18104   1.08114  -0.76262
O    -2.32339   1.39081  -0.40819
C    -0.49974  -0.19935  -0.20469
C    -1.60457  -1.18439   0.19037
C    -2.28888  -1.04514   1.40851
C    -3.31644  -1.92553   1.75490
C    -3.68212  -2.96110   0.88805
C    -3.01016  -3.10346  -0.32866
C    -1.98185  -2.21969  -0.67353
N     0.41423  -0.80251  -1.19648
C     1.65700  -1.15704  -0.48461
C     1.54440  -2.53576   0.19154
C     2.76783  -1.24390  -1.44759
N     3.65604  -1.39112  -2.18021
C     1.85837  -0.02233   0.56405
C     2.54509   1.22770  -0.03011
O     3.37855   1.81385   0.69221
O     2.25651   1.54849  -1.22711
C     0.40544   0.17050   1.05325
C     0.07411   1.51439   1.75054
O     0.38037   2.58175   1.16327
O    -0.50633   1.43448   2.86702
H    -1.94180   3.10872  -2.39487
H    -0.25102   3.57935  -2.72752
H    -0.94519   3.81123  -1.09334
H     0.57108   1.71032  -1.56738
H    -2.00774  -0.24434   2.09425
H    -3.83351  -1.80233   2.70999
H    -4.48348  -3.65218   1.16099
H    -3.28368  -3.90869  -1.01541
H    -1.45259  -2.33568  -1.61858
H     0.65775  -0.10185  -1.89028
H     1.32407  -3.30863  -0.55826
H     2.48475  -2.78703   0.70287
H     0.73523  -2.53195   0.93302
H     2.48477  -0.36535   1.39748
H     0.22198  -0.60411   1.80428
