29
Generated by autodE on: 2022-10-07. E = -704.900467 Ha
C    -2.18062   3.61555  -0.52853
N    -1.61156   2.29552  -0.35306
C    -0.27734   2.09719  -0.32999
O     0.53106   3.04226  -0.46412
C     0.21282   0.72530  -0.11627
N     1.54787   0.68560  -0.03216
C     2.48041  -0.27288   0.07101
C     3.92548   0.11581   0.21465
C     2.14600  -1.63981   0.02816
N     1.96522  -2.79566  -0.01811
C    -0.64841  -0.45335   0.07863
C    -1.56545  -0.85071  -0.91272
C    -2.39849  -1.95269  -0.70766
C    -2.32668  -2.67558   0.48697
C    -1.42072  -2.28744   1.48025
C    -0.59072  -1.18489   1.28100
H    -3.26900   3.52179  -0.62803
H    -1.96059   4.27349   0.32897
H    -1.78276   4.09951  -1.43378
H    -2.23075   1.50904  -0.19190
H     1.91944   1.64849  -0.09954
H     4.55855  -0.43708  -0.49716
H     4.30479  -0.09537   1.22948
H     4.05186   1.19217   0.02378
H    -1.61314  -0.29767  -1.85300
H    -3.10062  -2.25280  -1.48898
H    -2.97608  -3.53976   0.64493
H    -1.36382  -2.84550   2.41772
H     0.11093  -0.88220   2.06123
