29
Generated by autodE on: 2022-10-13. E = -704.892455 Ha
C    -0.12231   4.19124  -0.95793
N     0.33030   2.84568  -0.66163
C    -0.56795   1.85728  -0.39066
O    -1.78843   2.08191  -0.38158
C    -0.02516   0.50481  -0.14297
N     1.20061   0.23588  -0.63168
C     2.08744  -0.75015  -0.36979
C     1.95980  -1.68313   0.78744
C     3.21350  -0.81068  -1.21355
N     4.16476  -0.87890  -1.89396
C    -0.88572  -0.51372   0.46835
C    -1.68402  -0.20307   1.58878
C    -2.54439  -1.15309   2.13522
C    -2.63377  -2.43319   1.57379
C    -1.85684  -2.75085   0.45634
C    -0.99036  -1.80300  -0.09204
H    -0.85869   4.17798  -1.77418
H     0.73919   4.79579  -1.26848
H    -0.59496   4.67086  -0.08357
H     1.29354   2.73766  -0.36159
H     1.53590   0.91737  -1.31966
H     1.27275  -2.52562   0.59454
H     2.94738  -2.09897   1.03052
H     1.57172  -1.14672   1.66788
H    -1.61862   0.79104   2.03383
H    -3.14788  -0.89586   3.00904
H    -3.30859  -3.17666   2.00425
H    -1.92748  -3.74227   0.00273
H    -0.40772  -2.05518  -0.98024
