39
Generated by autodE on: 2022-10-07. E = -1159.935891 Ha. Imaginary frequency = -383.2 cm-1
C    -0.95509   3.35903  -1.57084
N    -0.48845   2.00186  -1.37292
C    -1.33338   1.07579  -0.86561
O    -2.54639   1.28986  -0.71483
C    -0.71773  -0.23336  -0.47592
C    -1.63246  -1.25700   0.08187
C    -2.38050  -1.00959   1.24795
C    -3.27136  -1.96549   1.73436
C    -3.43942  -3.18535   1.06657
C    -2.71372  -3.43423  -0.10116
C    -1.82400  -2.47602  -0.59388
N     0.38556  -0.61634  -1.17875
C     1.40517  -1.37416  -0.65162
C     1.17439  -2.56294   0.24169
C     2.56529  -1.45808  -1.48341
N     3.55958  -1.52280  -2.08998
C     1.91311   0.14031   0.90685
C     2.75099   1.07131   0.06060
O     3.93999   1.25827   0.41249
O     2.22981   1.55500  -0.99864
C     0.65067   0.46954   1.40787
C     0.10582   1.87132   1.58539
O     0.83192   2.85864   1.28614
O    -1.05740   1.96708   2.08189
H    -1.81082   3.38955  -2.26177
H    -0.13841   3.95661  -1.99690
H    -1.27010   3.82102  -0.61901
H     0.52586   1.88821  -1.17876
H    -2.23598  -0.06406   1.77145
H    -3.83754  -1.75984   2.64633
H    -4.13608  -3.93342   1.45245
H    -2.84431  -4.37643  -0.63916
H    -1.27787  -2.66792  -1.51895
H     0.76465   0.11722  -1.78040
H     0.72263  -3.40087  -0.31471
H     2.14053  -2.89791   0.64331
H     0.51492  -2.31471   1.08020
H     2.48563  -0.63031   1.42975
H     0.20493  -0.24410   2.10635
