31
Generated by autodE on: 2022-06-17. E = -634.907687 Ha
C     1.58783  -0.61673   2.33863
C     1.84748   0.05915   1.03134
O     2.83972   0.71693   0.78378
C     0.74662  -0.06799  -0.04135
C     1.38272  -0.12826  -1.37759
N     1.85329  -0.22213  -2.43376
O    -0.04224  -1.21864   0.14593
C    -1.47631  -0.92378  -0.00024
C    -2.11256  -1.10745   1.37377
C    -2.04157  -1.91134  -1.00969
C    -1.50500   0.53261  -0.51792
C    -2.77237   1.31934  -0.21390
C    -0.22649   1.14520   0.06981
C     0.25644   2.43272  -0.57549
H     1.63007  -1.70735   2.18518
H     0.57466  -0.38976   2.70245
H     2.34468  -0.31140   3.07210
H    -1.74283  -0.36296   2.09386
H    -3.20695  -1.01980   1.31226
H    -1.87078  -2.10983   1.75812
H    -1.50140  -1.83507  -1.96537
H    -1.95666  -2.94377  -0.63683
H    -3.10618  -1.69861  -1.19181
H    -1.37267   0.49054  -1.61302
H    -2.73913   2.30421  -0.70373
H    -2.89989   1.48483   0.86650
H    -3.66322   0.79174  -0.58884
H    -0.38094   1.31354   1.14835
H    -0.46140   3.24330  -0.38170
H     0.35910   2.32094  -1.66606
H     1.23086   2.73982  -0.16650
