31
Generated by autodE on: 2022-06-17. E = -634.820182 Ha. Imaginary frequency = -319.4 cm-1
C     1.08340   0.15902   2.65293
C     1.70261   0.08234   1.27762
O     2.83336   0.55084   1.06530
C     0.93834  -0.50131   0.20357
C     1.58040  -0.72850  -1.03016
N     2.17085  -0.87912  -2.02909
O    -0.27443  -1.04519   0.51954
C    -1.35809  -1.03041  -0.24332
C    -2.54016  -1.60846   0.46303
C    -1.27459  -1.27356  -1.71813
C    -1.71623   1.17513  -0.19830
C    -2.27632   1.38159   1.18777
C    -0.47823   1.67793  -0.53979
C    -0.02688   1.94648  -1.93503
H     0.33719  -0.62410   2.83546
H     0.58688   1.13703   2.76639
H     1.88696   0.10309   3.40065
H    -2.49844  -1.41773   1.54223
H    -3.47315  -1.21095   0.04190
H    -2.54328  -2.70097   0.29835
H    -0.55974  -0.63467  -2.24104
H    -0.96905  -2.32477  -1.86854
H    -2.26908  -1.14146  -2.16283
H    -2.44070   1.05453  -1.01188
H    -2.52655   2.44546   1.33928
H    -1.54780   1.10217   1.96265
H    -3.19758   0.80841   1.35424
H     0.15418   2.08032   0.25706
H     0.05766   3.03903  -2.08090
H    -0.73405   1.55983  -2.68270
H     0.97359   1.53280  -2.14218
