22
Generated by autodE on: 2022-10-13. E = -496.772798 Ha
C    -0.87131   1.22895  -2.18049
C    -0.59210   0.43281  -0.94014
N    -1.52937  -0.42996  -0.57492
C    -1.60158  -1.40982   0.38270
C    -2.75853  -2.17587   0.48728
N    -3.73262  -2.82795   0.59728
C     0.67374   0.60852  -0.22749
C     1.79449   1.10332  -0.93472
C     3.01002   1.32695  -0.29095
C     3.13922   1.08656   1.08112
C     2.03369   0.62434   1.80190
C     0.81929   0.38119   1.16039
H    -1.92585   1.13569  -2.47870
H    -0.64253   2.29504  -2.02884
H    -0.25555   0.88220  -3.02851
H    -2.37023  -0.37378  -1.15486
H    -0.72876  -1.64645   0.98290
H     1.71705   1.30185  -2.00406
H     3.86327   1.69469  -0.86579
H     4.09177   1.26435   1.58538
H     2.11420   0.45301   2.87796
H    -0.03016   0.05219   1.75707
