35
Generated by autodE on: 2022-10-06. E = -742.017841 Ha. Imaginary frequency = -260.6 cm-1
C    -0.12485   3.12947  -0.19044
N    -0.75009   2.17642   0.71273
C    -1.41000   1.01773   0.21061
N    -2.55390   1.35077  -0.57684
N    -1.75701   0.11871   1.24890
C    -0.94859  -1.99861   0.19731
C    -1.89733  -3.05683   0.24152
N    -2.67499  -3.91791   0.31781
N    -0.86039  -1.22337  -0.84956
C    -0.24059   0.06443  -0.85227
C    -0.28749   0.59165  -2.28162
C     1.14245   0.08860  -0.21599
C     2.26992   0.35634  -1.01456
C     3.55480   0.39151  -0.46859
C     3.75103   0.16413   0.89518
C     2.64476  -0.09681   1.70511
C     1.35974  -0.13079   1.15806
H     0.81052   2.76999  -0.65230
H    -0.81625   3.42447  -0.99221
H     0.11510   4.03884   0.37942
H    -0.11176   1.92632   1.46451
H    -2.94420   0.52685  -1.03436
H    -2.32434   2.02009  -1.30848
H    -2.75039  -0.09718   1.28034
H    -1.41566   0.38023   2.17048
H    -0.20601  -1.95191   0.99214
H    -1.55062  -1.37346  -1.59287
H    -1.31539   0.56301  -2.66648
H     0.07131   1.62300  -2.34414
H     0.33096  -0.02687  -2.94722
H     2.15841   0.54076  -2.08130
H     4.40694   0.60029  -1.11947
H     4.75565   0.19372   1.32292
H     2.77295  -0.27090   2.77572
H     0.52860  -0.31323   1.83542
