30
Generated by autodE on: 2022-06-16. E = -555.745741 Ha
C     4.23319  -1.64634  -0.60648
C     3.31627  -0.99200   0.13465
C     3.53454  -0.70543   1.59664
C     2.06642  -0.54385  -0.48984
C     1.07115   0.11424   0.13152
C    -0.19534   0.51520  -0.54698
N    -0.54210   1.94770  -0.32065
N    -1.78739   2.05411  -0.21320
N    -2.43739   0.87745  -0.30761
C    -3.79438   0.83780   0.19938
C    -1.48023  -0.24470  -0.11870
C    -1.45963  -0.69277   1.34765
C    -1.78511  -1.42056  -1.03672
H     4.06217  -1.84913  -1.66817
H     5.17453  -1.99561  -0.17293
H     2.74146  -1.16137   2.21244
H     3.50328   0.37857   1.79676
H     4.50477  -1.09272   1.93821
H     1.95355  -0.77913  -1.55485
H     1.15390   0.36961   1.19154
H    -0.07143   0.39980  -1.63830
H    -4.29072  -0.07119  -0.16683
H    -4.34216   1.70939  -0.18358
H    -3.84279   0.84782   1.30207
H    -2.42674  -1.13361   1.63054
H    -1.24727   0.14810   2.02490
H    -0.68556  -1.45966   1.49588
H    -2.72850  -1.91239  -0.75307
H    -1.85734  -1.09529  -2.08488
H    -0.97947  -2.16722  -0.95884
