23
Generated by autodE on: 2022-06-16. E = -351.521386 Ha
C    -3.63414   1.01650   0.24019
C    -2.57827   0.20042   0.02813
C    -2.76944  -1.23933  -0.37538
C    -1.21807   0.71063   0.18860
C    -0.07862  -0.00178   0.00172
C     1.24780   0.55484   0.17360
C     2.43166  -0.08602   0.00188
C     3.73354   0.63205   0.21968
C     2.56627  -1.52543  -0.40723
H    -3.49175   2.06142   0.53265
H    -4.66224   0.66157   0.12676
H    -2.31155  -1.92206   0.35958
H    -2.28428  -1.44861  -1.34324
H    -3.83598  -1.49024  -0.46225
H    -1.13361   1.76316   0.48486
H    -0.15490  -1.05160  -0.29389
H     1.28299   1.60899   0.47417
H     4.33268   0.12818   0.99943
H     3.58597   1.68047   0.51774
H     4.34954   0.61285  -0.69735
H     3.15615  -1.60425  -1.33749
H     3.12745  -2.08918   0.35891
H     1.60554  -2.03117  -0.56808
