30
Generated by autodE on: 2022-06-16. E = -555.679103 Ha. Imaginary frequency = -429.7 cm-1
C     4.70086   0.01849  -0.16326
C     3.49529  -0.10247   0.43612
C     3.36784  -0.10066   1.93857
C     2.28394  -0.23774  -0.36936
C     1.02401  -0.36796   0.11637
C    -0.16092  -0.48861  -0.71189
N    -0.62768   1.68950  -1.01733
N    -1.66618   1.68735  -0.47165
N    -2.36435   0.87257   0.18770
C    -3.80751   1.01370   0.24827
C    -1.40881  -0.95581  -0.24263
C    -1.55906  -1.55282   1.13661
C    -2.37501  -1.48548  -1.27495
H     4.79342   0.01718  -1.25383
H     5.62068   0.12195   0.41908
H     4.34919   0.00658   2.42196
H     2.72105   0.72395   2.28168
H     2.90424  -1.03392   2.29935
H     2.42760  -0.23075  -1.45670
H     0.87603  -0.37071   1.19961
H     0.00902  -0.53675  -1.79036
H    -4.27624   0.99402  -0.74988
H    -4.19021   0.16940   0.83624
H    -4.09854   1.94283   0.76403
H    -1.19452  -2.59532   1.12917
H    -2.61580  -1.57774   1.44094
H    -0.99543  -1.00392   1.90206
H    -2.32774  -0.90592  -2.20897
H    -2.11922  -2.53324  -1.51510
H    -3.41200  -1.48413  -0.90902
