13
Generated by autodE on: 2022-05-31. E = -2980.371028 Ha
F     0.24190  -2.27411   0.54373
C    -0.37951  -1.24790  -0.01438
C     0.04199  -0.00076  -0.23283
Br    1.66657   0.80907   0.20639
C    -1.22362   0.73119  -0.74616
C    -2.21237   0.83813   0.44179
C    -2.61718  -0.41464   0.66602
C    -1.87199  -1.26710  -0.39166
O    -1.83553  -0.33928  -1.49279
H    -1.05548   1.62473  -1.35648
H    -2.45172   1.75728   0.97509
H    -3.27962  -0.81211   1.43377
H    -2.29428  -2.24060  -0.66328
