13
Generated by autodE on: 2022-05-26. E = -449.162405 Ha
C    -2.98973   0.46629  -0.84276
N    -2.59147  -0.74180  -0.14298
C    -1.35803  -1.06868   0.25564
O    -1.02007  -2.10056   0.82991
C    -0.30677  -0.07628  -0.02923
N     0.66538   0.55383  -0.13663
N     1.61454   1.37402  -0.34132
C     2.83033   1.02774   0.06175
N     3.94634   0.84781   0.36598
H    -3.80524   0.96747  -0.30205
H    -3.32908   0.23393  -1.86335
H    -2.14340   1.16332  -0.90861
H    -3.30351  -1.44460   0.05236
