20
Generated by autodE on: 2022-05-26. E = -693.433375 Ha
C     2.58222   2.58533  -0.18187
N     1.45842   1.72477   0.12140
C     1.33158   0.51306  -0.44198
O     2.16726   0.04432  -1.22400
C     0.09322  -0.25313  -0.05446
C    -1.13184   0.46886   0.43572
O    -1.03048   1.44222   1.19976
N    -2.32338   0.04023  -0.00563
C    -3.56055   0.65299   0.44344
C     0.12836  -1.59512  -0.09320
F     1.16053  -2.32498  -0.41715
F    -0.87969  -2.37317   0.23092
H     2.66192   2.77163  -1.26474
H     3.53372   2.14018   0.15207
H     2.44342   3.54406   0.33258
H     0.71674   2.02082   0.75769
H    -2.37152  -0.74307  -0.64822
H    -4.40159   0.13319  -0.03030
H    -3.59792   1.71828   0.16729
H    -3.66551   0.58072   1.53718
