37
Generated by autodE on: 2022-06-19. E = -1162.278656 Ha
C     4.62483   2.34054   0.62621
N     3.42219   1.84148  -0.01553
C     2.57847   1.02118   0.61093
O     2.71150   0.58476   1.75426
C     1.36951   0.56074  -0.19003
O     1.12324   1.37030  -1.36368
C    -0.21103   1.24630  -1.60842
O    -0.77160   1.75084  -2.53788
C    -0.72326   0.32841  -0.47983
C    -2.15948   0.47293  -0.09512
C    -3.15672   0.31782  -1.06828
C    -4.50110   0.42263  -0.70837
C    -4.85661   0.67614   0.62079
C    -3.86144   0.82401   1.59054
C    -2.51340   0.72127   1.23598
O     0.19344   0.69685   0.55809
C    -0.18414  -1.11356  -0.88263
C    -0.85287  -2.16008  -0.00907
O    -1.96362  -2.58188  -0.28966
C    -0.14574  -2.63000   1.19777
C     1.18402  -2.48526   1.35156
C     2.01889  -1.84278   0.32009
O     3.22444  -2.02732   0.26832
C     1.34170  -0.92465  -0.68139
H     5.10102   1.53582   1.20264
H     4.40053   3.17308   1.31253
H     5.32047   2.69426  -0.14422
H     3.16956   2.18454  -0.93773
H    -2.88221   0.11110  -2.10349
H    -5.27518   0.30198  -1.46949
H    -5.90978   0.75574   0.89990
H    -4.13259   1.01941   2.63047
H    -1.73610   0.83374   1.99227
H    -0.44679  -1.33164  -1.92480
H    -0.75113  -3.18105   1.92205
H     1.71434  -2.91335   2.20598
H     1.90265  -0.99097  -1.62030
