25
Generated by autodE on: 2022-06-19. E = -780.584468 Ha
C    -4.69908   1.40446  -0.08306
N    -3.31645   0.96538  -0.06022
C    -3.00416  -0.33022  -0.20527
O    -3.80852  -1.24840  -0.36132
C    -1.54851  -0.63525  -0.16942
O    -1.07348  -1.82755  -0.31638
C     0.40884  -1.74524  -0.23705
O     1.06974  -2.75594  -0.35143
C     0.61838  -0.37381  -0.03156
C     1.82098   0.40230   0.15240
C     3.07959  -0.23824   0.13387
C     4.24623   0.50243   0.31649
C     4.18722   1.88594   0.51941
C     2.94278   2.52593   0.53770
C     1.76804   1.79737   0.35663
O    -0.61753   0.25048  -0.00003
H    -5.16866   1.17888  -1.05346
H    -5.28216   0.90132   0.70351
H    -4.72749   2.48678   0.08569
H    -2.57609   1.65211   0.05422
H     3.13219  -1.31623  -0.02320
H     5.21233  -0.00760   0.30054
H     5.10451   2.46125   0.66275
H     2.88517   3.60554   0.69571
H     0.80294   2.30639   0.37379
