12
Generated by autodE on: 2022-06-19. E = -381.636095 Ha
O    -0.73074  -2.56443   0.01470
C    -0.39433  -1.38482   0.00754
C     1.03625  -0.99434  -0.00412
C     1.40422   0.29874  -0.01130
C     0.39433   1.38482  -0.00787
O     0.73074   2.56443  -0.01453
C    -1.03625   0.99434   0.00416
C    -1.40422  -0.29874   0.01133
H     1.76209  -1.81099  -0.00646
H     2.45126   0.61053  -0.02001
H    -1.76209   1.81100   0.00669
H    -2.45126  -0.61053   0.02024
