37
Generated by autodE on: 2022-06-19. E = -1162.232368 Ha. Imaginary frequency = -263.7 cm-1
C     4.90688   1.97524   0.42379
N     3.62356   1.66446  -0.17891
C     2.58238   1.28386   0.57047
O     2.58412   1.16947   1.79531
C     1.35108   0.91856  -0.19275
O     1.11576   1.33673  -1.44399
C    -0.26703   1.18348  -1.70369
O    -0.73934   1.39768  -2.79230
C    -0.80374   0.77959  -0.41962
C    -2.16305   0.58740   0.00808
C    -3.19539   0.51208  -0.95001
C    -4.50502   0.26974  -0.53878
C    -4.79901   0.09716   0.81722
C    -3.77413   0.16449   1.77067
C    -2.46217   0.40394   1.37481
O     0.20093   0.84780   0.47952
C     0.26587  -1.45899  -1.19190
C    -0.79766  -2.09002  -0.40635
O    -1.89595  -2.37451  -0.89106
C    -0.50288  -2.38001   1.01815
C     0.72779  -2.20821   1.53685
C     1.85563  -1.72888   0.70649
O     3.00871  -1.73416   1.13086
C     1.52976  -1.23694  -0.65350
H     5.24555   1.13912   1.05368
H     4.84598   2.87783   1.05212
H     5.63859   2.14484  -0.37432
H     3.50573   1.75574  -1.18408
H    -2.96190   0.63775  -2.00688
H    -5.30124   0.21141  -1.28384
H    -5.82679  -0.09370   1.13368
H    -4.00219   0.02691   2.82972
H    -1.66115   0.44910   2.11369
H     0.07456  -1.34420  -2.25982
H    -1.33585  -2.76105   1.61339
H     0.95961  -2.44614   2.57773
H     2.38342  -1.04992  -1.30760
