31
Generated by autodE on: 2022-10-20. E = -876.259103 Ha
C     4.25810   0.80194   1.75300
O     2.99230   0.30348   1.30072
C     2.64986   0.59259   0.03803
O     3.35687   1.24898  -0.71160
C     1.35218   0.04455  -0.34502
C     0.44648  -0.70849   0.37257
O     0.59650  -1.11316   1.60913
C    -0.39929  -1.93999   2.23963
C    -0.73935  -0.99473  -0.52737
C    -2.07263  -0.51002   0.01520
C    -2.20327   0.80715   0.47748
C    -3.42814   1.25928   0.97159
C    -4.53138   0.39892   1.00683
C    -4.40415  -0.91409   0.54460
C    -3.17750  -1.36747   0.05045
N    -0.42098  -0.36779  -1.81156
C     0.73573   0.19774  -1.66081
C     1.33286   0.90681  -2.76555
N     1.76861   1.46499  -3.68546
H     4.28296   1.90024   1.70187
H     5.07626   0.39118   1.14350
H     4.35787   0.46958   2.79282
H     0.06825  -2.31346   3.15779
H    -0.67367  -2.78266   1.58937
H    -1.28685  -1.34260   2.48525
H    -0.80350  -2.08526  -0.68868
H    -1.34246   1.48006   0.45312
H    -3.52184   2.28617   1.33238
H    -5.48905   0.75259   1.39585
H    -5.26180  -1.59033   0.57023
H    -3.07293  -2.39566  -0.30390
