31
Generated by autodE on: 2022-10-20. E = -876.098766 Ha. Imaginary frequency = -305.0 cm-1
C     4.58580   1.08261   0.48505
O     3.44665   0.24755   0.24714
C     2.40248   0.40031   1.07941
O     2.43056   1.14923   2.04317
C     1.26836  -0.41085   0.71658
C     0.31678  -1.20099   0.79714
O    -0.52369  -2.07703   1.25722
C    -0.54103  -2.22608   2.69995
C    -0.88500  -0.89719  -1.32018
C    -2.14233  -0.38673  -0.78808
C    -2.34049   0.98483  -0.53106
C    -3.52749   1.42084   0.05298
C    -4.53004   0.50127   0.38858
C    -4.33995  -0.86117   0.13388
C    -3.15554  -1.30550  -0.45312
N     0.04956  -0.10815  -1.78264
C     1.08235   0.48534  -1.49780
C     1.94654   1.34698  -2.17426
N     2.76949   2.07377  -2.57656
H     5.01741   0.88339   1.47687
H     4.30677   2.14406   0.41483
H     5.31062   0.83325  -0.29877
H     0.44126  -2.57981   3.04569
H    -1.31798  -2.96784   2.91830
H    -0.78586  -1.26095   3.16630
H    -0.82069  -1.95274  -1.60616
H    -1.56184   1.70501  -0.79079
H    -3.67521   2.48546   0.24809
H    -5.45954   0.84857   0.84535
H    -5.11998  -1.58075   0.39266
H    -3.00078  -2.36851  -0.64981
