53
Generated by autodE on: 2022-06-08. E = -1466.705620 Ha
C    -3.33899  -1.36297   0.86154
N    -4.75974  -1.07654   0.79830
C    -5.24692  -0.19350  -0.07582
O    -4.54262   0.50656  -0.80662
C    -6.79059   0.03268  -0.09160
C    -7.70333  -0.95044   0.69764
C    -9.10212  -0.48081   0.96727
O    -7.30354  -2.03002   1.09120
N    -6.90709   1.34356   0.54090
C    -7.34539   2.15246  -0.36026
C    -7.14208   3.62129  -0.03871
C    -7.88380   4.18785   1.12791
O    -6.30298   4.22434  -0.68199
C    -7.73326   1.48238  -1.63000
C    -7.32173   0.18359  -1.52010
C    -7.29648  -0.97660  -2.51295
C    -6.15711  -1.96782  -2.18065
C    -8.62335  -1.76816  -2.41580
C    -7.05847  -0.51412  -3.98109
C    -6.06719   0.64837  -4.21643
C    -6.71609   1.93846  -4.74301
C    -7.39956   2.87035  -3.73928
C    -8.43990   2.20764  -2.78210
C    -9.38044   1.34069  -3.51551
N   -10.20311   0.76411  -4.09190
C    -9.42106   3.30465  -2.24329
F   -10.15886   2.82743  -1.22703
F    -8.79121   4.40110  -1.80963
F   -10.26211   3.70636  -3.20352
H    -2.99004  -1.87930  -0.04857
H    -3.14406  -2.00447   1.72965
H    -2.76359  -0.43241   0.96738
H    -5.42640  -1.71284   1.23261
H    -9.48410   0.19099   0.18819
H    -9.08868   0.07778   1.91831
H    -9.75970  -1.35157   1.08782
H    -7.65191   5.25410   1.24647
H    -8.96575   4.03430   0.99239
H    -7.59400   3.63422   2.03553
H    -6.23454  -2.81883  -2.87237
H    -5.16696  -1.51377  -2.31800
H    -6.22814  -2.37216  -1.16416
H    -8.70669  -2.28530  -1.44867
H    -9.50377  -1.12686  -2.53990
H    -8.64154  -2.53629  -3.20481
H    -6.69651  -1.40750  -4.51088
H    -8.01232  -0.28306  -4.46458
H    -5.48078   0.85913  -3.30792
H    -5.33593   0.32795  -4.97368
H    -5.94350   2.55165  -5.23369
H    -7.43566   1.67197  -5.53598
H    -7.90565   3.67020  -4.30032
H    -6.65588   3.34343  -3.08306
