30
Generated by autodE on: 2022-06-08. E = -820.287764 Ha
C     2.29993  -0.21826  -3.29634
C     0.88060  -0.00916  -2.74652
C     0.16414   1.09675  -3.54363
C     0.88157   0.32218  -1.32081
C     0.60090   0.37312  -0.14231
C    -0.10895  -0.09055   1.05486
C     0.75154  -1.02380   1.80733
N     1.41405  -1.78291   2.38015
C    -0.47726   1.08007   1.99505
F    -1.15916   0.64721   3.06376
F     0.62113   1.70656   2.43873
F    -1.23264   1.98039   1.35810
C    -1.40132  -0.83404   0.57167
C    -1.17657  -1.88883  -0.52810
C    -1.23768  -1.43610  -2.01483
C     0.08107  -1.35260  -2.81132
H     2.24583  -0.56322  -4.34060
H     2.87300   0.72124  -3.27296
H     2.84484  -0.97356  -2.71015
H     0.13393   0.82048  -4.60902
H    -0.86767   1.24291  -3.19185
H     0.69785   2.05450  -3.44875
H    -1.85599  -1.30189   1.45680
H    -2.09400  -0.05843   0.21341
H    -1.97544  -2.63115  -0.38177
H    -0.23688  -2.43395  -0.33482
H    -1.86456  -2.17138  -2.54249
H    -1.78714  -0.48286  -2.08965
H    -0.12852  -1.53471  -3.87842
H     0.74910  -2.16478  -2.48013
