23
Generated by autodE on: 2022-06-08. E = -646.321470 Ha
C    -3.23507  -2.39348  -0.61924
N    -2.55256  -1.12271  -0.50182
C    -1.23730  -1.05284  -0.23801
O    -0.51720  -2.05130  -0.08022
C    -0.66676   0.32213  -0.14047
N     0.62459   0.34936   0.12169
C     1.76829   0.24255   0.35707
C     3.17375   0.10494   0.64005
C     3.64012  -1.31748   0.76295
O     3.88079   1.09567   0.76329
C    -1.37925   1.58642  -0.30060
C    -0.58229   2.85804  -0.15886
O    -2.59171   1.61463  -0.54421
H    -2.80471  -3.00903  -1.42579
H    -3.17056  -2.97474   0.31513
H    -4.29244  -2.20850  -0.84485
H    -3.04648  -0.23562  -0.60924
H     4.03801  -1.46570   1.77991
H     4.46259  -1.47947   0.04840
H     2.83124  -2.03691   0.57404
H     0.22617   2.89277  -0.90689
H    -0.10947   2.91071   0.83482
H    -1.24845   3.71879  -0.29651
