53
Generated by autodE on: 2022-06-08. E = -1466.601953 Ha. Imaginary frequency = -311.0 cm-1
C    -2.96306   1.05898   0.23697
N    -4.41047   1.05583   0.31362
C    -5.08424  -0.05051   0.69222
O    -4.51813  -1.07384   1.08347
C    -6.58255   0.05967   0.59666
C    -7.49074  -1.11008   0.65232
C    -8.96703  -0.81678   0.75757
O    -7.06590  -2.25874   0.58362
N    -7.12572   1.24647   0.77112
C    -7.63645   2.21668   0.26766
C    -8.41064   3.35860   0.85050
C    -9.85063   3.03208   1.10828
O    -7.87320   4.41839   1.08779
C    -7.27169   1.74868  -1.87204
C    -6.95852   0.55257  -2.00298
C    -6.65601  -0.65839  -2.80806
C    -5.37772  -1.35604  -2.31154
C    -7.84367  -1.63925  -2.76600
C    -6.40114  -0.17458  -4.26913
C    -7.58794   0.34841  -5.08718
C    -8.35683   1.57742  -4.57224
C    -7.46422   2.76469  -4.17527
C    -7.40722   3.02518  -2.63171
C    -8.63017   3.74301  -2.23279
N    -9.61570   4.28086  -1.94549
C    -6.18107   3.92968  -2.33380
F    -5.04545   3.30667  -2.67128
F    -6.24896   5.07453  -3.02571
F    -6.08908   4.24939  -1.03530
H    -2.62118   2.08003   0.02742
H    -2.59666   0.39025  -0.56070
H    -2.52545   0.72408   1.18838
H    -4.91361   1.80353  -0.15335
H    -9.29875  -0.20793  -0.09795
H    -9.18857  -0.24413   1.67158
H    -9.51900  -1.76451   0.77078
H    -9.90009   2.40189   2.01299
H   -10.41386   3.96003   1.27294
H   -10.27926   2.45432   0.27713
H    -4.52347  -0.66223  -2.31099
H    -5.13635  -2.19582  -2.98110
H    -5.50440  -1.75717  -1.29964
H    -7.94617  -2.09855  -1.77504
H    -8.79094  -1.14121  -3.01668
H    -7.67389  -2.44552  -3.49696
H    -5.59998   0.58125  -4.23489
H    -5.98200  -1.03669  -4.81438
H    -8.31178  -0.46643  -5.24936
H    -7.18864   0.59362  -6.08660
H    -9.03888   1.90202  -5.37252
H    -9.00431   1.29533  -3.72826
H    -6.43154   2.59310  -4.50752
H    -7.79924   3.69566  -4.65232
