46
Generated by autodE on: 2022-06-01. E = -1147.940907 Ha
C    -3.03057  -1.01097   1.84910
C    -1.91849  -0.05777   1.51913
O    -1.27610   0.52216   2.36618
C    -1.68345   0.19573  -0.00646
C    -2.88259   1.06497  -0.44767
C    -3.81417   0.51696  -1.47580
O    -3.00951   2.14832   0.08928
O    -1.68132  -1.04855  -0.68406
C    -0.37075  -1.58972  -0.64780
C    -0.22024  -2.46025   0.53632
N    -0.16932  -3.16853   1.45306
C     0.64786  -0.39016  -0.70772
C     1.84032  -0.64095   0.20590
C     1.79670  -0.38708   1.58600
C     2.88372  -0.69370   2.40839
C     4.03469  -1.27468   1.87172
C     4.08321  -1.55480   0.50381
C     2.99792  -1.24280  -0.31795
C     1.03005  -0.14139  -2.19919
C     1.94425   1.09926  -2.30192
C     0.95416   2.28129  -2.10497
C    -0.38441   1.56975  -1.82673
C    -0.27709   0.39059  -2.80420
C    -0.32036   0.86267  -0.40774
C     0.14483   1.85424   0.55601
N     0.55630   2.73759   1.18677
H    -3.98918  -0.49065   1.67506
H    -3.02043  -1.89743   1.20302
H    -2.96726  -1.29311   2.90738
H    -4.21029  -0.45431  -1.14011
H    -3.26515   0.32874  -2.41160
H    -4.63163   1.22806  -1.64851
H    -0.25371  -2.23529  -1.53025
H     0.90358   0.03479   2.04109
H     2.82276  -0.48014   3.47808
H     4.88488  -1.51378   2.51483
H     4.97121  -2.01890   0.06834
H     3.06242  -1.47704  -1.38019
H     1.43540  -1.04436  -2.67038
H     2.41728   1.13015  -3.29366
H     2.74654   1.09610  -1.55365
H     0.84542   2.86995  -3.02673
H     1.25575   2.97273  -1.30927
H    -1.25413   2.22887  -1.92006
H    -1.11651  -0.31077  -2.78039
H    -0.14073   0.73999  -3.83753
