28
Generated by autodE on: 2022-06-01. E = -596.319116 Ha
N    -0.79107   3.03930  -1.36923
C    -0.95905   2.06052  -0.75544
C    -1.22445   0.89085  -0.00828
C    -0.35276  -0.09009   0.38083
C     1.09455  -0.18307   0.19477
C     1.89570   0.96095  -0.00893
C     3.27172   0.84234  -0.19572
C     3.88055  -0.41814  -0.18643
C     3.10126  -1.56006   0.02150
C     1.72462  -1.44511   0.21798
C    -1.21991  -1.21099   0.93616
C    -1.93688  -1.84712  -0.30128
C    -2.92400  -0.73134  -0.74628
C    -2.64383   0.40542   0.28497
C    -2.37885  -0.41123   1.56279
H     1.44288   1.95277  -0.00119
H     3.87532   1.74064  -0.34460
H     4.95912  -0.50813  -0.33485
H     3.56793  -2.54772   0.03318
H     1.12961  -2.34545   0.37613
H    -0.69954  -1.92956   1.57889
H    -2.47060  -2.75620   0.01194
H    -1.21999  -2.12896  -1.08488
H    -2.75545  -0.39142  -1.77771
H    -3.96994  -1.06238  -0.66472
H    -3.40530   1.19331   0.32376
H    -3.22908  -1.04594   1.85426
H    -2.06462   0.20909   2.41474
