19
Generated by autodE on: 2022-05-30. E = -684.055144 Ha
C     1.63748  -1.84154   0.81194
C     0.47685  -1.22135   0.12934
C     0.14600   0.03789  -0.19317
C     0.81258   1.32930   0.06738
F     0.07713   2.09444   0.91224
F     0.95822   2.06336  -1.06056
F     2.03621   1.20900   0.61304
C    -1.29372  -0.04212  -0.76511
C    -2.22120  -0.41507   0.41267
C    -1.89464  -1.67499   0.71688
C    -0.77877  -2.04264  -0.28449
O    -1.20667  -1.30587  -1.44271
H     2.41573  -1.11454   1.07169
H     1.29211  -2.34148   1.73429
H     2.07617  -2.63038   0.17790
H    -1.60911   0.77038  -1.42828
H    -2.92527   0.26186   0.89511
H    -2.25463  -2.31723   1.51974
H    -0.61256  -3.10391  -0.49918
