24
Generated by autodE on: 2022-05-30. E = -443.816176 Ha
C     3.91990   0.52994   0.53371
C     2.86060  -0.06341  -0.33165
C     3.18880  -0.82093  -1.56770
N     1.58865   0.07684   0.00546
C     0.45819  -0.38179  -0.60916
C    -0.85052  -0.11484  -0.10825
C    -1.98092  -0.66198  -0.78611
C    -3.27965  -0.44104  -0.34095
C    -3.53079   0.33541   0.80156
C    -2.43676   0.88748   1.48220
C    -1.13044   0.67561   1.04615
H     4.60833  -0.24673   0.91496
H     4.54388   1.24617  -0.03165
H     3.48970   1.05845   1.39840
H     2.82291  -1.86491  -1.51143
H     4.27295  -0.84247  -1.74008
H     2.70008  -0.37343  -2.45508
H     1.43364   0.60941   0.86326
H     0.59439  -0.97829  -1.50833
H    -1.81082  -1.27250  -1.67766
H    -4.11455  -0.88288  -0.89287
H    -4.55157   0.50664   1.14996
H    -2.60393   1.49935   2.37355
H    -0.31569   1.13519   1.61357
