43
Generated by autodE on: 2022-05-30. E = -1127.879630 Ha. Imaginary frequency = -208.7 cm-1
C    -4.05574   0.10108   0.89124
C    -2.59386  -0.04338   0.68269
C    -1.80868  -1.04530   0.25035
C    -2.12964  -2.39217  -0.25721
F    -3.41312  -2.75590  -0.07322
F    -1.36734  -3.35093   0.32298
F    -1.88341  -2.48861  -1.58971
C    -0.39084  -0.43657   0.11681
O    -0.41879   0.45989   1.24340
C    -1.61328   1.15071   0.83124
C    -1.22227   1.58568  -0.59402
C    -0.43892   0.56217  -1.05288
C     1.91736   1.53215  -0.69309
C     2.69707   0.40571  -0.25387
C     3.27245  -0.44637  -1.23266
C     3.98392  -1.58806  -0.87533
C     4.15819  -1.92888   0.47378
C     3.60397  -1.09752   1.45470
C     2.88713   0.04681   1.10577
N     1.37021   2.42424   0.16827
C     0.45652   3.36094  -0.11877
C    -0.09158   4.16543   1.01629
C     0.40603   3.92683  -1.50182
H    -4.44001   0.90227   0.23506
H    -4.26588   0.42193   1.92579
H    -4.61013  -0.82178   0.68323
H     0.45155  -1.13403   0.16769
H    -1.90835   1.92710   1.54601
H    -1.77862   2.32116  -1.17175
H    -0.19489   0.29619  -2.07920
H     1.95435   1.81878  -1.74048
H     3.14048  -0.19668  -2.28902
H     4.40960  -2.22229  -1.65776
H     4.71659  -2.82469   0.75423
H     3.73085  -1.34380   2.51246
H     2.47015   0.66204   1.90621
H     1.37364   2.14164   1.14677
H     0.42072   5.14264   1.10912
H    -1.15986   4.38127   0.85551
H     0.01332   3.63572   1.97559
H    -0.47098   4.57971  -1.61252
H     1.30823   4.53702  -1.70593
H     0.35619   3.14942  -2.27809
