49
Generated by autodE on: 2022-06-04. E = -1547.300423 Ha
C     2.45246   4.35231   0.29019
N     1.49135   3.30590   0.00966
C     1.83395   2.18235  -0.63203
O     2.95784   1.96540  -1.10440
C     0.75328   1.14784  -0.76731
N    -0.35954   1.22435  -0.14730
C    -1.24007   0.08789  -0.52604
C    -1.79449  -0.60473   0.71019
C    -1.55770  -0.12341   2.00158
C    -2.07260  -0.79700   3.11438
C    -2.83023  -1.95776   2.94694
C    -3.07515  -2.44189   1.65650
C    -2.56342  -1.76796   0.54774
C    -2.36919   0.72449  -1.36167
C    -2.13626   1.10145  -2.69444
C    -3.12945   1.73558  -3.44359
C    -4.37443   2.01417  -2.87072
C    -4.61112   1.65851  -1.54099
C    -3.61576   1.02169  -0.79296
C    -0.34304  -0.86053  -1.39593
C     0.24607  -2.19936  -0.81971
O     1.42950  -2.30796  -1.63070
C     2.04902  -1.08555  -1.18828
C     2.00581  -1.25766   0.33085
C     2.93943  -0.68526   1.33081
F     2.59562   0.57107   1.70754
F     4.19518  -0.60710   0.85425
F     2.97518  -1.41959   2.45678
C     0.88941  -1.96791   0.53731
F     0.38747  -2.41240   1.67209
C     0.95802  -0.05605  -1.63603
H     1.92550   5.22481   0.69450
H     2.98131   4.64796  -0.62815
H     3.20620   4.01964   1.02343
H     0.55379   3.35402   0.39768
H    -0.95558   0.77418   2.13763
H    -1.87482  -0.41154   4.11756
H    -3.22943  -2.48523   3.81649
H    -3.66852  -3.34819   1.51399
H    -2.76616  -2.14539  -0.45715
H    -1.16919   0.91054  -3.16210
H    -2.92710   2.01435  -4.48046
H    -5.15271   2.50837  -3.45694
H    -5.57656   1.87591  -1.07774
H    -3.81784   0.75490   0.24460
H    -0.84233  -1.13236  -2.33015
H    -0.39583  -3.08056  -0.90520
H     3.04029  -0.94742  -1.62781
H     1.13330   0.22119  -2.68452
