33
Generated by autodE on: 2022-06-04. E = -803.194833 Ha
C     4.07304  -0.98498  -0.59970
N     4.04532   0.46300  -0.68647
C     3.08711   1.25671  -0.17429
O     3.04990   2.48621  -0.30817
C     2.08033   0.60692   0.69670
N     0.92970   0.32065   0.41289
C    -0.30309  -0.01304   0.23831
C    -0.58092  -1.41811  -0.14284
C     0.34246  -2.12372  -0.93787
C     0.12103  -3.46077  -1.26792
C    -1.02634  -4.11819  -0.81134
C    -1.94666  -3.42769  -0.01607
C    -1.72868  -2.08993   0.31832
C    -1.34373   1.02034   0.43227
C    -1.06465   2.16937   1.19950
C    -2.03094   3.15781   1.37816
C    -3.29387   3.02637   0.78896
C    -3.57599   1.89836   0.01287
C    -2.61268   0.90382  -0.16716
H     5.11327  -1.33037  -0.52504
H     3.60676  -1.46604  -1.47475
H     3.53754  -1.31709   0.30132
H     4.74329   0.93424  -1.25756
H     1.23492  -1.61426  -1.30611
H     0.84602  -3.99021  -1.89066
H    -1.20152  -5.16436  -1.07247
H    -2.83956  -3.93609   0.35532
H    -2.44360  -1.57126   0.95822
H    -0.07908   2.28837   1.65421
H    -1.79652   4.03794   1.98161
H    -4.05018   3.80203   0.92895
H    -4.55319   1.79136  -0.46392
H    -2.84499   0.04053  -0.79106
