23
Generated by autodE on: 2022-10-06. E = -941.396958 Ha
C     3.84221   0.36409  -1.06138
O     2.65284  -0.41971  -0.92693
C     2.14229  -0.50853   0.31102
O     2.74344  -0.20915   1.33488
N     0.90768  -1.09254   0.29168
N     0.26474  -1.27516   1.58033
N    -0.99240  -0.57935   1.45199
C    -0.98546   0.70203   1.86773
N    -0.92728   1.71107   2.45436
C    -1.41538  -0.96474   0.09434
C    -2.63675  -0.22431  -0.47873
O    -3.20205  -0.80383  -1.43361
O    -2.93348   0.87836   0.03815
C    -0.10414  -0.78592  -0.72536
C     0.00449   0.66559  -1.28186
O     0.57287   1.52344  -0.56361
O    -0.54214   0.84381  -2.39486
H     3.64417   1.40729  -0.77293
H     4.65446  -0.04366  -0.44291
H     4.11723   0.31598  -2.12168
H     0.84945  -0.79043   2.27249
H    -1.65078  -2.03548   0.14714
H    -0.07979  -1.49691  -1.55992
