13
Generated by autodE on: 2022-10-13. E = -486.300417 Ha
C     2.21318   0.88246  -1.66151
O     1.28826  -0.19585  -1.42798
C     0.81549  -0.30551  -0.19828
O     1.10902   0.39939   0.74500
N     0.01852  -1.46265  -0.09686
N    -1.03992  -1.43180   0.60695
N    -1.79814  -0.48849   1.07410
C    -1.58738   0.77401   0.73248
N    -1.57973   1.91585   0.47621
H     1.72999   1.84607  -1.44670
H     3.10269   0.76186  -1.02722
H     2.48513   0.81672  -2.72060
H    -1.41136  -2.36647   0.83698
