13
Generated by autodE on: 2022-10-06. E = -486.300482 Ha
C    -2.84333  -0.48539   0.06944
O    -1.75487   0.17754   0.74005
C    -0.72724   0.52452  -0.01502
O    -0.63320   0.36142  -1.21355
N     0.20574   1.25307   0.75088
N     1.44725   1.03410   0.59034
N     2.14365   0.07003   0.07050
C     1.54955  -1.04159  -0.33786
N     1.18887  -2.10064  -0.68123
H    -3.27938   0.17886  -0.69000
H    -3.57871  -0.71178   0.84904
H    -2.48603  -1.41034  -0.40456
H     2.05308   1.76839   0.98775
