10
Generated by autodE on: 2022-10-06. E = -455.046601 Ha
O     2.20503  -0.58437  -0.19596
C     1.25207  -0.22608  -0.93488
O     0.87330  -0.78425  -1.99710
C     0.55463   1.07031  -0.56603
C    -0.51333   1.23332   0.23301
C    -1.25947   0.13439   0.95267
O    -2.19766   0.50752   1.71364
O    -0.91244  -1.06441   0.75482
H     1.00214   1.96346  -1.02410
H    -0.90170   2.24320   0.40900
