23
Generated by autodE on: 2022-10-06. E = -941.323409 Ha. Imaginary frequency = -396.8 cm-1
C     3.62680   0.62347  -0.87085
O     2.70121  -0.44148  -0.63752
C     2.01117  -0.38394   0.50753
O     2.24398   0.39764   1.41418
N     1.11319  -1.43603   0.54437
N     0.28188  -1.53427   1.56209
N    -0.75261  -0.73487   1.75556
C    -0.61116   0.58436   1.84756
N    -0.68979   1.73552   2.03842
C    -1.57075  -0.98389  -0.27361
C    -2.69539   0.04921  -0.19746
O    -3.73304  -0.34273   0.39497
O    -2.50951   1.17355  -0.72461
C    -0.41407  -0.89471  -1.05202
C     0.04643   0.37273  -1.76106
O     0.49003   1.33330  -1.08766
O    -0.05449   0.30990  -3.01227
H     3.09203   1.58234  -0.92245
H     4.38759   0.66124  -0.07782
H     4.10001   0.40510  -1.83565
H     0.01922  -2.50335   1.75662
H    -1.89668  -1.98700   0.01325
H    -0.04775  -1.82220  -1.49662
