18
Generated by autodE on: 2022-06-29. E = -733.135970 Ha
C     3.16835   0.74502  -1.84531
O     2.53573   0.47406  -0.58236
C     1.27612   0.05724  -0.62853
O     0.62795  -0.09696  -1.64207
C     0.76243  -0.22927   0.74047
F     1.68733  -0.40495   1.68517
C    -0.53256  -0.37946   1.06708
F    -0.84506  -0.76350   2.30268
C    -1.73405  -0.22619   0.18530
O    -2.61993  -1.05226   0.17861
O    -1.72292   0.90249  -0.50261
C    -2.77855   1.08562  -1.46279
H     4.19351   1.04911  -1.60731
H     2.63915   1.55424  -2.36818
H     3.17040  -0.15904  -2.47058
H    -2.74142   0.28446  -2.21472
H    -3.75603   1.08083  -0.96083
H    -2.59144   2.05851  -1.93000
