28
Generated by autodE on: 2022-06-16. E = -554.485355 Ha. Imaginary frequency = -469.4 cm-1
C    -1.84126   2.73508  -0.20500
C    -1.58142   1.34893   0.30874
C    -2.38624   0.27569  -0.08243
C    -2.47674  -0.98054   0.74329
N    -1.35004  -0.44928  -1.79185
N    -0.43022   0.48110  -1.90611
N     0.25550   0.96484  -0.87729
C     0.98692   0.05641  -0.09988
C     1.38193  -1.22331  -0.54724
C     2.17274  -2.04521   0.25927
C     2.59115  -1.62234   1.52396
C     2.22341  -0.34456   1.96510
C     1.44188   0.48627   1.16540
H    -2.74898   3.16464   0.25663
H    -1.00302   3.41550   0.00208
H    -2.01470   2.72391  -1.29470
H    -1.02564   1.25545   1.24357
H    -3.25583   0.50705  -0.70545
H    -3.25643  -0.88937   1.51995
H    -1.52314  -1.19306   1.25213
H    -2.74046  -1.85687   0.12867
H    -0.98855  -1.16457  -1.15539
H    -0.68375   1.21358  -2.57236
H     1.09063  -1.57183  -1.53937
H     2.46580  -3.03019  -0.11347
H     3.20344  -2.27220   2.15281
H     2.55551   0.01317   2.94311
H     1.17614   1.48760   1.50889
