39
Generated by autodE on: 2022-05-29. E = -898.123322 Ha
C     4.18258   0.39770  -0.11285
O     2.95011  -0.16990   0.36902
C     1.88966  -0.06535  -0.42140
O     1.90446   0.44028  -1.52098
C     0.59857  -0.56347   0.28592
C     0.94731  -1.73533   1.10950
N     1.23540  -2.67188   1.72938
C    -0.51645  -0.86088  -0.74244
C    -1.57438  -1.93321  -0.38411
C    -2.16414  -1.73966   1.03065
C    -3.01601  -0.44672   0.88808
C    -2.80403  -0.04580  -0.58415
C    -2.74714  -1.43708  -1.25203
C    -1.35485   0.46892  -0.85447
C    -1.28046   1.12678  -2.23294
C    -0.77501   1.37893   0.27078
C     0.01247   2.53084  -0.23172
N     0.65399   3.44846  -0.53804
N     0.02057   0.49891   1.11704
C     0.82203   1.10569   2.16532
H     4.49460  -0.10786  -1.03721
H     4.05049   1.47206  -0.30220
H     4.91837   0.23423   0.68193
H    -0.05612  -1.11926  -1.70279
H    -1.22009  -2.95401  -0.58058
H    -2.79467  -2.60798   1.27433
H    -1.40716  -1.66199   1.81878
H    -4.08373  -0.65274   1.05588
H    -2.72852   0.33604   1.60203
H    -3.56298   0.64906  -0.96970
H    -3.66743  -2.02025  -1.09778
H    -2.51907  -1.41125  -2.32677
H    -0.24167   1.31798  -2.53133
H    -1.82777   2.08234  -2.23564
H    -1.73528   0.47688  -2.99314
H    -1.57988   1.83158   0.87164
H     0.16597   1.72458   2.79536
H     1.25886   0.31957   2.79764
H     1.64144   1.74581   1.78769
