19
Generated by autodE on: 2022-07-26. E = -585.861963 Ha
C     2.60482  -1.05088  -1.79100
O     1.69915  -1.11027  -0.68171
C     0.64683  -0.27523  -0.71945
O     0.46255   0.53087  -1.61849
C    -0.25396  -0.51032   0.40379
C    -0.11139  -1.68983   1.16682
N     0.02106  -2.66171   1.80067
N    -1.36931   0.26903   0.61233
C    -2.52880  -0.37617   1.26893
C    -1.50253   1.54640   0.28985
C    -0.43070   2.40965  -0.01613
N     0.40195   3.20611  -0.19341
H     2.09050  -1.31726  -2.72606
H     3.03450  -0.04300  -1.88483
H     3.39388  -1.78003  -1.57371
H    -3.37392   0.31846   1.26263
H    -2.25598  -0.61045   2.30639
H    -2.77846  -1.29879   0.73172
H    -2.49738   1.98552   0.36845
