19
Generated by autodE on: 2022-05-29. E = -585.866337 Ha
C     3.71654   0.55958   0.04548
O     2.48143   0.17490  -0.57154
C     1.37668   0.26102   0.18702
O     1.39819   0.64694   1.34890
C     0.19409  -0.15830  -0.55390
C     0.34232  -0.57765  -1.89436
N     0.48219  -0.92148  -3.00137
N    -1.06773  -0.15952  -0.00297
C    -2.16314  -0.60924  -0.89369
C    -1.34428   0.20992   1.23916
C    -2.65212   0.19801   1.76299
N    -3.70139   0.21796   2.27352
H     4.48826   0.42711  -0.72153
H     3.93116  -0.08037   0.91374
H     3.67772   1.61062   0.36670
H    -1.95530  -1.63600  -1.21757
H    -2.20478   0.05641  -1.76429
H    -3.11273  -0.57605  -0.35403
H    -0.51964   0.53629   1.87202
