39
Generated by autodE on: 2022-05-29. E = -898.026193 Ha. Imaginary frequency = -322.2 cm-1
C     3.75175  -0.68552  -1.36910
O     2.80060  -0.79554  -0.30256
C     1.96080   0.24110  -0.13841
O     1.99797   1.24186  -0.83215
C     1.01702  -0.00701   0.95277
C     1.35425  -1.04881   1.85749
N     1.62480  -1.92149   2.58254
C    -0.43523  -0.93745  -0.95976
C    -1.28181  -2.11901  -0.50850
C    -1.88631  -1.88956   0.89952
C    -2.85206  -0.69169   0.67516
C    -2.69898  -0.39208  -0.83589
C    -2.54185  -1.83906  -1.38260
C    -1.29648   0.14069  -1.19018
C    -1.15507   1.04229  -2.38692
C    -0.65555   1.68261   0.47854
C    -0.10474   2.70863  -0.34386
N     0.14561   3.66714  -0.95820
N     0.05469   0.89706   1.34437
C    -0.48414   0.75946   2.71138
H     3.23692  -0.59434  -2.33655
H     4.40444   0.18632  -1.21788
H     4.34169  -1.60887  -1.34103
H     0.50545  -1.08232  -1.48951
H    -0.79162  -3.09313  -0.62958
H    -2.43855  -2.79014   1.20617
H    -1.11801  -1.71446   1.65850
H    -3.89239  -0.98291   0.88210
H    -2.63490   0.17571   1.30736
H    -3.51307   0.21228  -1.25726
H    -3.39425  -2.49966  -1.15023
H    -2.33742  -1.87169  -2.46289
H    -0.10161   1.26106  -2.60728
H    -1.70122   1.98970  -2.27625
H    -1.58037   0.52316  -3.26400
H    -1.59691   2.03678   0.90629
H    -1.26567   1.50887   2.86280
H    -0.89347  -0.24168   2.89382
H     0.32679   0.94687   3.42760
