21
Generated by autodE on: 2022-05-29. E = -607.926299 Ha
C     3.78641  -0.13635   0.10016
N     2.38356   0.11218   0.37271
C     1.46574   0.09136  -0.60824
O     1.74348  -0.11642  -1.79744
C     0.05111   0.31526  -0.23319
C    -0.67282  -0.00937   0.85923
C    -0.26345  -0.60282   2.07106
N     0.05470  -1.08462   3.08370
C    -2.15396   0.27760   0.44699
C    -2.52199  -0.78495  -0.60976
C    -1.79652  -0.46458  -1.68480
C    -0.99969   0.78815  -1.26481
O    -1.93683   1.42346  -0.38113
H     3.94078  -1.15108  -0.29947
H     4.17740   0.58175  -0.63760
H     4.35212  -0.03139   1.03333
H     2.09440   0.31179   1.32480
H    -2.85634   0.46499   1.26454
H    -3.18867  -1.62880  -0.43824
H    -1.69581  -0.97217  -2.64290
H    -0.63603   1.45522  -2.05177
