37
Generated by autodE on: 2022-05-29. E = -1025.273914 Ha. Imaginary frequency = -376.9 cm-1
C     2.32953   2.81764  -1.36430
N     2.13241   1.54024  -0.70705
C     1.28438   1.41369   0.32864
O     0.72027   2.38057   0.85961
C     1.04470   0.05216   0.86994
C     1.44415  -1.18870   0.50142
C     2.22585  -1.60464  -0.59623
N     2.86232  -1.96179  -1.50549
C     0.78194  -2.14175   1.52537
O     0.83684  -1.30127   2.69424
C     0.14612  -0.18529   2.08734
C    -1.14317  -0.88254   1.60489
C    -0.73710  -2.15903   1.23349
C    -1.18975  -2.32003  -0.85851
C    -2.56614  -2.90086  -0.72326
N    -1.03967  -1.03458  -1.21197
N    -1.75838  -0.11964  -0.55539
C    -1.52425   1.16008  -0.97381
O    -0.85652   1.50453  -1.94712
O    -2.17223   2.03131  -0.17601
C    -2.03971   3.41643  -0.50414
H     2.53956   3.60196  -0.62355
H     1.43287   3.11110  -1.93458
H     3.18004   2.73705  -2.05204
H     2.50777   0.71086  -1.15449
H     1.27492  -3.10644   1.67509
H     0.02590   0.66018   2.76880
H    -2.13398  -0.55250   1.89980
H    -1.31031  -3.06384   1.42919
H    -0.41067  -2.97068  -1.26741
H    -3.01276  -2.98679  -1.72942
H    -2.51496  -3.90748  -0.28755
H    -3.22307  -2.27281  -0.10853
H    -0.14226  -0.73687  -1.60922
H    -2.65829   3.95809   0.22203
H    -2.40183   3.61381  -1.52417
H    -0.99301   3.73876  -0.41580
