51
Generated by autodE on: 2022-06-24. E = -1146.814655 Ha
C     5.06631  -1.48461  -1.29210
C     4.29846  -0.51241  -0.76000
C     4.89408   0.70778  -0.10971
C     2.83817  -0.63552  -0.81421
C     1.96223   0.25924  -0.32115
C     0.48311   0.07223  -0.39036
C    -0.32050   1.25356  -1.04984
C     0.23199   2.56676  -0.67745
N     0.63502   3.61902  -0.39888
C    -0.24507   1.07106  -2.59833
C     0.91022   1.68140  -3.32374
O    -1.09713   0.40312  -3.14940
N    -1.67619   1.08412  -0.55422
C    -1.75366   0.10771   0.53074
C    -2.58130   0.74628   1.67684
O    -2.76682   1.96991   1.69152
N    -3.02157  -0.07512   2.63316
C    -3.78561   0.41189   3.76439
C    -2.42164  -1.20584   0.05065
O    -2.76620  -2.09152   0.85285
N    -2.58249  -1.33180  -1.26683
C    -3.13058  -2.53618  -1.85606
C    -0.24678  -0.14583   0.97337
C     0.06286  -1.54723   1.49797
C     0.18470   0.88002   2.03301
H     6.15811  -1.42539  -1.27127
H     4.61850  -2.36527  -1.76248
H     4.57491   0.79177   0.94243
H     5.99232   0.67820  -0.13777
H     4.55777   1.62876  -0.61446
H     2.44946  -1.53595  -1.30364
H     2.32576   1.16698   0.16698
H     0.26904  -0.81289  -1.00579
H     0.78279   2.77646  -3.34595
H     1.85201   1.47769  -2.79061
H     0.95532   1.29586  -4.34985
H    -2.10026   1.95978  -0.24938
H    -2.94690  -1.07496   2.43091
H    -4.76950   0.80272   3.45533
H    -3.24485   1.22230   4.27578
H    -3.93952  -0.41278   4.47128
H    -2.24863  -0.57123  -1.86420
H    -4.17685  -2.69268  -1.54807
H    -3.09348  -2.44311  -2.94844
H    -2.55461  -3.42526  -1.55404
H    -0.14631  -2.32728   0.75331
H     1.13165  -1.60405   1.75374
H    -0.51628  -1.76795   2.40526
H     1.26832   0.81358   2.20248
H    -0.05877   1.91316   1.75685
H    -0.31141   0.66341   2.98928
