23
Generated by autodE on: 2022-06-24. E = -351.521382 Ha
C    -3.69947  -0.70966   0.32842
C    -2.57389   0.03396   0.25119
C    -2.62371   1.53921   0.31236
C    -1.27539  -0.62067   0.10492
C    -0.07728   0.00912   0.01133
C     1.18274  -0.69119  -0.13281
C     2.41747  -0.13845  -0.24011
C     2.69016   1.33891  -0.22968
C     3.63756  -1.00396  -0.38169
H    -3.66004  -1.80246   0.28393
H    -4.68378  -0.24596   0.43803
H    -2.02946   1.92227   1.15860
H    -2.19720   1.98863  -0.59985
H    -3.65614   1.89922   0.42427
H    -1.29334  -1.71665   0.06932
H    -0.05074   1.10169   0.04500
H     1.11577  -1.78569  -0.15592
H     3.36948   1.59625   0.60224
H     3.21456   1.63638  -1.15493
H     1.78639   1.95460  -0.13615
H     3.38967  -2.07555  -0.38389
H     4.17871  -0.76827  -1.31573
H     4.35084  -0.81206   0.44007
