40
Generated by autodE on: 2022-06-18. E = -844.933647 Ha
C     0.73030  -1.13179  -2.19446
C     0.36192  -0.57847  -0.81542
C     1.58805  -0.71437   0.09510
C     2.18847  -1.97057   0.28614
C     3.32823  -2.10921   1.08072
C     3.90433  -0.99024   1.69044
C     3.33140   0.26686   1.48700
C     2.18793   0.40290   0.69290
O     0.11375   0.84315  -1.02767
C    -1.08836   1.28376  -0.44756
C    -2.04206   1.62580  -1.53837
N    -2.74451   1.91318  -2.41434
C    -0.82481   2.55214   0.27213
N    -0.59636   3.54938   0.81633
C    -1.61524   0.13442   0.50126
C    -3.14295   0.13765   0.60386
C    -1.06336   0.33204   1.92329
C    -1.00205  -1.13033  -0.22337
C    -1.92525  -1.62544  -1.35306
C    -0.83706  -2.30707   0.74485
H    -0.04039  -0.88697  -2.93511
H     0.85708  -2.22215  -2.16114
H     1.68036  -0.68475  -2.52096
H     1.76379  -2.85660  -0.18623
H     3.77018  -3.09880   1.22007
H     4.79659  -1.09762   2.31178
H     3.77570   1.15375   1.94545
H     1.76062   1.39292   0.53855
H    -3.65015   0.06543  -0.36513
H    -3.46905  -0.70897   1.22538
H    -3.47916   1.06379   1.09497
H     0.03095   0.36975   1.96167
H    -1.40222  -0.49317   2.56206
H    -1.45724   1.26127   2.35815
H    -1.46894  -2.48301  -1.86471
H    -2.87882  -1.97125  -0.93290
H    -2.14620  -0.86181  -2.11049
H    -0.47111  -3.19238   0.20512
H    -0.14563  -2.10401   1.56922
H    -1.81778  -2.56439   1.17326
