22
Generated by autodE on: 2022-06-18. E = -608.897009 Ha
C     0.81892  -1.90536  -0.60486
C     0.11204  -0.66869  -0.21095
O     0.76519   0.42908  -0.03532
C     2.11184   0.72147  -0.10456
C     2.38280   2.09704  -0.11005
N     2.62537   3.24308  -0.12728
C     3.14155  -0.21927   0.01533
N     4.05090  -0.94956   0.13332
C    -1.32168  -0.55106  -0.00990
C    -2.17571  -1.66045  -0.19800
C    -3.54888  -1.53148  -0.00386
C    -4.09341  -0.30215   0.37973
C    -3.25651   0.80576   0.57247
C    -1.88555   0.68713   0.38380
H     1.44796  -2.26922   0.22407
H     0.12614  -2.70105  -0.89026
H     1.48870  -1.68554  -1.45254
H    -1.77177  -2.62633  -0.49874
H    -4.19779  -2.39652  -0.15374
H    -5.17077  -0.20522   0.53136
H    -3.68036   1.76548   0.87493
H    -1.23657   1.54862   0.54095
