18
Generated by autodE on: 2022-06-18. E = -235.968088 Ha
C     0.68108   1.28452   1.33091
C     0.56254   0.14436   0.34815
C     1.85064  -0.63559   0.23814
C    -0.56224  -0.14416  -0.34862
C    -1.85529   0.62578  -0.22596
C    -0.67657  -1.27482  -1.34283
H     1.53295   1.93368   1.06036
H     0.90285   0.90077   2.34321
H    -0.21176   1.91742   1.39958
H     2.16576  -0.99348   1.23466
H     1.79720  -1.50538  -0.42738
H     2.66740   0.01612  -0.12136
H    -1.83692   1.42409   0.52558
H    -2.68341  -0.05861   0.03128
H    -2.12829   1.07976  -1.19576
H    -1.01016  -0.88852  -2.32257
H    -1.45135  -1.99436  -1.02178
H     0.25386  -1.83255  -1.50333
