40
Generated by autodE on: 2022-06-18. E = -844.849773 Ha. Imaginary frequency = -308.2 cm-1
C     0.71916  -1.47982  -2.24106
C     0.53315  -0.53770  -1.09042
C     1.58478  -0.52078  -0.05525
C     2.12185  -1.72623   0.44620
C     3.14169  -1.71037   1.39508
C     3.67700  -0.49656   1.84016
C     3.20650   0.70099   1.29597
C     2.17948   0.68899   0.35251
O    -0.02578   0.60846  -1.49751
C    -0.74348   1.53752  -0.79557
C    -1.81191   2.07735  -1.54018
N    -2.72501   2.50321  -2.13506
C    -0.33803   2.24008   0.35164
N    -0.11679   2.86195   1.31980
C    -1.76651  -0.38689   0.77410
C    -3.07423   0.34555   0.66848
C    -1.08705  -0.25095   2.10276
C    -1.42409  -1.42574  -0.10123
C    -2.27244  -1.64625  -1.33315
C    -0.85932  -2.70419   0.48025
H    -0.08741  -1.36656  -2.97401
H     0.76412  -2.52231  -1.90064
H     1.68142  -1.25979  -2.73496
H     1.74575  -2.68329   0.09407
H     3.52900  -2.65528   1.78244
H     4.47639  -0.48736   2.58455
H     3.64888   1.65386   1.59477
H     1.87984   1.62815  -0.10528
H    -3.47238   0.41336  -0.34904
H    -3.81275  -0.21739   1.27288
H    -3.01617   1.35643   1.09795
H    -0.04062  -0.58022   2.08884
H    -1.62478  -0.86903   2.84630
H    -1.12590   0.78697   2.46197
H    -1.83931  -2.42076  -1.98015
H    -3.27842  -1.99738  -1.04204
H    -2.40276  -0.73033  -1.92669
H    -0.34627  -3.31429  -0.27635
H    -0.18764  -2.54764   1.33014
H    -1.71193  -3.30607   0.84543
