16
Generated by autodE on: 2022-05-31. E = -446.128258 Ha
C     2.38667   0.25392  -0.70513
C     1.03249  -0.04165  -0.17254
C     0.25366   0.59236   0.70510
F     0.49026   1.70963   1.39927
C    -1.12054  -0.09677   0.70105
C    -1.76984   0.19754  -0.67561
C    -1.01385  -0.46754  -1.55408
C     0.08217  -1.15073  -0.69973
O    -0.68169  -1.45168   0.49192
H     2.83422   1.12200  -0.19912
H     2.33681   0.47315  -1.78676
H     3.06502  -0.60812  -0.58699
H    -1.74000   0.02095   1.59716
H    -2.62356   0.85403  -0.83986
H    -1.07905  -0.50679  -2.64098
H     0.56494  -2.04210  -1.11650
