29
Generated by autodE on: 2022-07-27. E = -857.261366 Ha
C    -3.36237   2.74298  -0.60469
O    -2.44449   2.31019   0.40871
C    -1.65424   1.27425   0.09785
O    -1.69063   0.69805  -0.97594
C    -0.82881   0.92525   1.25924
N     0.08855  -0.02324   1.27946
C     0.51721  -0.45960   2.63649
C     0.69984  -0.55768   0.16031
C     1.12560  -1.95082   0.13743
O     1.92575  -2.43675  -0.65017
O     0.50817  -2.70126   1.07651
C     0.94317  -4.05824   1.19812
C     0.96810   0.27294  -1.01605
O     1.20116  -0.15221  -2.13554
O     1.00738   1.59114  -0.73394
C     1.10495   2.48239  -1.84723
H    -4.07191   1.93942  -0.84991
H    -2.81750   3.03881  -1.51321
H    -3.89401   3.60317  -0.18238
H    -1.06324   1.41466   2.20305
H    -0.19808  -1.19015   3.02927
H     0.53217   0.42657   3.28216
H     1.51847  -0.89372   2.58198
H     0.73611  -4.61780   0.27408
H     2.02060  -4.10625   1.41551
H     0.37186  -4.48529   2.03105
H     0.28150   2.30640  -2.55485
H     1.03255   3.49460  -1.43168
H     2.06556   2.35707  -2.36806
