29
Generated by autodE on: 2022-05-31. E = -857.257069 Ha
C     5.16801   0.74336   0.07398
O     3.75223   0.90673   0.20160
C     2.98719  -0.13394  -0.19304
O     3.47412  -1.16600  -0.63292
C     1.58922   0.23678   0.00314
N     0.51454  -0.50481  -0.24991
C     0.68621  -1.87970  -0.79201
C    -0.77514  -0.10019  -0.02011
C    -1.88678  -0.93535  -0.55012
O    -1.98361  -1.31652  -1.70283
O    -2.79170  -1.23120   0.38911
C    -3.97793  -1.90800  -0.05046
C    -1.08942   1.16699   0.61884
O    -0.29741   1.93248   1.16088
O    -2.40476   1.45778   0.53336
C    -2.83613   2.66851   1.16094
H     5.51855  -0.10294   0.68333
H     5.44672   0.57180  -0.97648
H     5.61380   1.67780   0.43453
H     1.40811   1.22591   0.40755
H     0.49497  -1.86118  -1.87027
H     1.70513  -2.21085  -0.59823
H    -0.02949  -2.54357  -0.29786
H    -3.72737  -2.89030  -0.47613
H    -4.50492  -1.30636  -0.80555
H    -4.60348  -2.02972   0.84136
H    -2.62404   2.64686   2.24023
H    -2.33791   3.54040   0.71176
H    -3.91800   2.72518   0.99197
