43
Generated by autodE on: 2022-10-21. E = -1012.725985 Ha
C    -3.08329  -2.48079   1.39494
N    -2.18975  -1.63837   0.62914
C    -2.59838  -0.69030  -0.21667
O    -3.76625  -0.41928  -0.49707
C    -1.43084   0.11193  -0.85935
C    -1.86592   0.51071  -2.21702
N    -2.12921   0.80688  -3.30770
C    -1.11825   1.40363  -0.02140
O    -2.09170   1.57620   0.97457
C    -1.99339   2.79888   1.68757
C     0.30689   1.18204   0.49293
O     0.95949   2.42003   0.64641
C     1.96817   2.44064   1.64282
C     0.93469   0.25804  -0.56553
C     2.16284  -0.48504  -0.09710
C     2.07207  -1.43546   0.93175
C     3.21602  -2.08619   1.39671
C     4.46717  -1.79378   0.83999
C     4.56429  -0.85237  -0.18832
C     3.41560  -0.20546  -0.65602
N    -0.18110  -0.63606  -0.86890
C     0.01642  -1.58612  -1.94807
H    -4.11087  -2.32333   1.04450
H    -3.03568  -2.23896   2.46889
H    -2.81928  -3.54079   1.26503
H    -1.17875  -1.74517   0.70557
H    -1.09803   2.28147  -0.69113
H    -2.89279   2.87769   2.31411
H    -1.95623   3.66091   0.99747
H    -1.10195   2.82837   2.33656
H     0.24916   0.64620   1.45638
H     2.32259   3.47795   1.72525
H     2.82228   1.79289   1.38415
H     1.56795   2.12058   2.62205
H     1.20801   0.88219  -1.44019
H     1.09744  -1.66374   1.37018
H     3.13331  -2.82390   2.19861
H     5.36251  -2.30204   1.20594
H     5.53629  -0.62237  -0.63136
H     3.48968   0.53005  -1.46103
H     0.20546  -1.09406  -2.92235
H     0.87662  -2.22888  -1.71420
H    -0.87107  -2.22772  -2.04906
