29
Generated by autodE on: 2022-10-26. E = -704.888537 Ha
C    -4.63470  -0.06421  -0.95758
N    -3.55329   0.80034  -0.53551
C    -2.28606   0.32142  -0.38638
O    -2.05384  -0.90012  -0.49707
C    -1.24672   1.30842  -0.10278
C    -1.53729   2.67796  -0.09521
N    -1.83245   3.81465  -0.09037
N     0.10060   0.90120   0.00192
C     1.11500   1.79858  -0.57255
C     0.40411  -0.25601   0.54818
C     1.65723  -0.98495   0.49333
C     1.87940  -1.91235   1.53746
C     3.04245  -2.67650   1.57873
C     3.99684  -2.55266   0.56302
C     3.77380  -1.66577  -0.49643
C     2.61939  -0.88660  -0.53718
H    -5.58620   0.46928  -0.83428
H    -4.66177  -0.97561  -0.34278
H    -4.54433  -0.37478  -2.01386
H    -3.69826   1.80292  -0.58580
H     2.08620   1.61615  -0.10382
H     1.17636   1.65427  -1.65981
H     0.81274   2.83268  -0.36995
H    -0.39946  -0.72106   1.11576
H     1.12693  -2.01841   2.32231
H     3.20250  -3.37768   2.40059
H     4.90670  -3.15653   0.58868
H     4.50382  -1.58569  -1.30486
H     2.45589  -0.23094  -1.39052
