48
Generated by autodE on: 2022-06-23. E = -1239.761647 Ha
C     3.55352   2.93944  -0.52860
O     2.88692   1.80358  -1.09778
C     1.83289   1.33360  -0.43030
O     1.37273   1.87355   0.55958
C     1.18498   0.14033  -1.13188
N    -0.17938   0.44397  -1.52529
C    -0.36456   1.48548  -2.51658
C    -1.07236   0.28263  -0.39206
C    -2.45563  -0.30179  -0.79301
C    -2.52443  -1.23690  -1.95939
O    -3.44093   0.02531  -0.15348
C    -1.38976   1.60499   0.34686
O    -1.63539   2.64312  -0.23162
O    -1.41748   1.49080   1.67265
C    -1.68502   2.68559   2.42048
C    -0.31977  -0.75541   0.52891
N    -1.13088  -1.89135   0.93135
C    -1.84757  -1.74903   2.18770
C    -0.86571  -3.15236   0.44083
C     0.04278  -3.42955  -0.51867
C     0.85766  -2.34470  -1.14958
C     0.99676  -1.09800  -0.23616
C     2.16296  -1.30103   0.72991
N     2.04184  -2.32512   1.59241
O     3.15418  -0.56249   0.71241
H     4.37025   3.18903  -1.21559
H     3.95532   2.68337   0.46280
H     2.86074   3.78791  -0.43507
H     1.78994  -0.09871  -2.01724
H    -0.01361   2.48277  -2.19419
H     0.18856   1.20618  -3.42796
H    -1.42833   1.57529  -2.77562
H    -3.55464  -1.59873  -2.07125
H    -2.20914  -0.71316  -2.87455
H    -1.84018  -2.08662  -1.82257
H    -0.90224   3.43310   2.22740
H    -1.67657   2.38934   3.47549
H    -2.66593   3.09937   2.14679
H    -0.03793  -0.21888   1.44017
H    -2.47102  -0.84468   2.17153
H    -2.50400  -2.61748   2.33482
H    -1.15786  -1.67874   3.04978
H    -1.46538  -3.94418   0.89653
H     0.16293  -4.46047  -0.85427
H     1.86493  -2.70538  -1.41303
H     0.39684  -2.00991  -2.09418
H     1.29922  -3.01143   1.48148
H     2.82803  -2.54560   2.19713
