20
Generated by autodE on: 2022-06-23. E = -457.715337 Ha
C    -3.06165  -0.34358   0.77020
N    -1.77362   0.22025   0.40055
C    -1.70808   1.53490  -0.07793
C    -0.57494   2.07980  -0.54801
C     0.73465   1.33325  -0.61200
C     0.56116  -0.08746  -0.09993
C     1.69016  -1.03147  -0.06367
N     2.87661  -0.56040  -0.52338
O     1.59540  -2.20147   0.35984
C    -0.64274  -0.53896   0.35194
H    -3.70217  -0.50857  -0.11324
H    -2.90672  -1.30576   1.27463
H    -3.59114   0.33078   1.46011
H    -2.64894   2.08644  -0.03518
H    -0.60142   3.11539  -0.89471
H     1.50874   1.87235  -0.02785
H     1.12261   1.33583  -1.65118
H     2.99281   0.37973  -0.87910
H     3.67921  -1.18020  -0.51940
H    -0.73957  -1.56506   0.71039
