28
Generated by autodE on: 2022-06-23. E = -782.005318 Ha
C     4.23641  -0.08084   1.00251
O     3.28806  -0.57553   0.04424
C     2.00801  -0.55492   0.41273
O     1.61358  -0.22602   1.51228
C     1.16435  -1.12418  -0.66792
N    -0.10997  -0.88610  -0.80934
C    -0.86667  -1.78539  -1.71412
C    -0.71919   0.28527  -0.31817
C     0.03653   1.50631  -0.46379
C    -0.64805   2.83936  -0.26440
O     1.24237   1.50009  -0.78141
C    -2.08507   0.22536   0.15963
O    -2.81907   1.18029   0.39083
O    -2.49338  -1.04595   0.39589
C    -3.84710  -1.21352   0.82178
H     4.01424   0.96804   1.24639
H     5.21881  -0.16134   0.52398
H     4.20722  -0.68648   1.91963
H     1.61922  -1.87555  -1.31655
H    -1.68858  -1.22865  -2.17382
H    -0.18188  -2.15058  -2.48868
H    -1.25926  -2.63214  -1.14036
H    -0.97674   2.94369   0.78069
H    -1.54442   2.93950  -0.89093
H     0.07465   3.63089  -0.50219
H    -4.54740  -0.80934   0.07551
H    -4.01994  -0.71202   1.78552
H    -3.99853  -2.29435   0.93046
