28
Generated by autodE on: 2022-07-27. E = -781.997501 Ha
C     3.97318   0.21623   1.14457
O     3.14602  -0.31914   0.10282
C     1.82418  -0.30654   0.32331
O     1.31688   0.12021   1.34749
C     1.13153  -0.93410  -0.80356
N    -0.18018  -1.05232  -0.91509
C    -0.63314  -2.02677  -1.94120
C    -1.11597  -0.29811  -0.23162
C    -2.41636  -0.84111   0.14929
C    -2.62149  -2.34182   0.24811
O    -3.35378  -0.09876   0.46507
C    -0.81225   1.10660   0.09243
O    -1.33665   1.75406   0.98104
O     0.08342   1.65652  -0.75291
C     0.56199   2.96183  -0.41931
H     5.00421   0.13760   0.78153
H     3.71506   1.26834   1.33541
H     3.85029  -0.36330   2.07102
H     1.74217  -1.42356  -1.56032
H    -1.66774  -1.81275  -2.21792
H     0.00729  -1.90802  -2.82341
H    -0.53062  -3.04802  -1.55663
H    -1.69584  -2.91000   0.40289
H    -3.30297  -2.51882   1.09225
H    -3.11914  -2.71923  -0.65885
H     0.98921   2.96757   0.59416
H     1.33926   3.19693  -1.15621
H    -0.24844   3.70327  -0.47697
