48
Generated by autodE on: 2022-06-23. E = -1239.712238 Ha. Imaginary frequency = -332.4 cm-1
C     2.88863   2.35817   1.09707
O     2.22344   1.59989   0.07499
C     1.10316   0.97266   0.43346
O     0.62372   1.02819   1.54621
C     0.58557   0.12306  -0.70476
N    -0.73815   0.25900  -1.04994
C    -1.12413  -0.21104  -2.37480
C    -1.67630   1.05595  -0.30361
C    -2.91757   0.52287   0.15513
C    -3.26426  -0.91861  -0.17495
O    -3.79073   1.18350   0.77168
C    -1.38616   2.46054  -0.18106
O    -2.00077   3.31646   0.45777
O    -0.26095   2.82630  -0.88677
C     0.21034   4.15371  -0.68981
C     0.51924  -1.97557   0.99541
N    -0.53635  -2.75130   0.98666
C    -1.32055  -2.99632   2.19874
C    -0.96767  -3.39207  -0.20679
C    -0.25863  -3.29423  -1.33514
C     1.03124  -2.53634  -1.40648
C     1.24700  -1.62405  -0.19024
C     2.69591  -1.30936   0.13671
N     3.54611  -1.30983  -0.90384
O     3.06177  -1.04615   1.28849
H     3.76542   2.80547   0.61575
H     3.19884   1.69244   1.91460
H     2.22462   3.14216   1.48609
H     1.24956   0.16341  -1.57522
H    -0.27224  -0.14553  -3.07039
H    -1.94294   0.41387  -2.75436
H    -1.46788  -1.26020  -2.36288
H    -2.40653  -1.54312  -0.42989
H    -3.80602  -1.35643   0.67617
H    -3.95074  -0.92418  -1.03878
H     0.36664   4.36649   0.37873
H     1.16611   4.22326  -1.22493
H    -0.49608   4.89420  -1.09686
H     0.82029  -1.55425   1.95394
H    -2.34678  -2.63732   2.04154
H    -0.86561  -2.46323   3.04062
H    -1.34422  -4.07547   2.40452
H    -1.88782  -3.96516  -0.10660
H    -0.60136  -3.83009  -2.22209
H     1.85411  -3.27216  -1.47513
H     1.08499  -1.95976  -2.34457
H     3.24435  -1.45952  -1.85961
H     4.51366  -1.04923  -0.73812
