36
Generated by autodE on: 2022-06-14. E = -846.394330 Ha
C    -2.67079  -2.03773   1.50370
C    -1.30267  -2.09997   0.88573
O    -0.69679  -3.16548   0.80015
C    -0.67401  -0.83619   0.39454
C     0.62341  -0.88289  -0.00732
C     1.44741  -2.15391   0.07345
C     1.50658  -2.98848  -1.17397
O     2.15834  -2.35502   1.04666
C     1.37242   0.27318  -0.55700
C     2.67502   0.55415  -0.10481
C     3.38057   1.64568  -0.61487
C     2.80793   2.45583  -1.59969
C     1.52300   2.16826  -2.07363
C     0.80790   1.08910  -1.55579
C    -1.45397   0.43242   0.42500
C    -2.58996   0.60175  -0.38280
C    -3.30072   1.80401  -0.36416
C    -2.88760   2.85176   0.46519
C    -1.76007   2.69005   1.27663
C    -1.04807   1.48890   1.25619
H    -3.42225  -1.80445   0.73312
H    -2.90962  -3.00551   1.96283
H    -2.72285  -1.23191   2.25167
H     2.15842  -2.46462  -1.89484
H     1.94346  -3.97129  -0.94967
H     0.51588  -3.09604  -1.63560
H     3.12542  -0.07527   0.66386
H     4.38427   1.86162  -0.24168
H     3.36326   3.30620  -2.00211
H     1.07434   2.78871  -2.85284
H    -0.19020   0.86688  -1.93335
H    -2.90775  -0.20913  -1.04215
H    -4.17802   1.92468  -1.00407
H    -3.44366   3.79210   0.47908
H    -1.43234   3.50349   1.92833
H    -0.16407   1.36440   1.88505
