36
Generated by autodE on: 2022-05-31. E = -1512.458158 Ha
C    -3.79031  -0.83532   1.42879
C    -3.09337  -1.46631   0.26499
O    -3.02521  -2.67030   0.09796
C    -2.40129  -0.54615  -0.75705
C    -2.79462  -0.95505  -2.17349
O    -2.82648   0.80889  -0.49169
C    -1.79671   1.71987  -0.79439
C    -1.92363   2.85440   0.14502
N    -2.03161   3.73529   0.88872
C    -1.96184   2.25543  -2.17184
N    -2.10672   2.65325  -3.25028
C    -0.43522   0.95453  -0.67579
C     0.28955   1.15261   0.69081
O    -0.49653   0.33955   1.55858
C    -0.31752  -0.88762   0.84873
C     1.20280  -0.93393   0.70148
C     1.98200  -2.19849   0.53715
F     1.53081  -3.15084   1.37113
F     3.28820  -2.02991   0.78397
F     1.86420  -2.68324  -0.71460
C     1.58189   0.34381   0.58332
C     2.91589   0.95378   0.27795
F     2.75470   2.20625  -0.18607
F     3.59626   0.26844  -0.65434
F     3.69393   1.02699   1.36975
C    -0.86144  -0.53957  -0.57757
H    -4.17347  -1.61492   2.09923
H    -4.61597  -0.20189   1.06740
H    -3.09433  -0.16904   1.96139
H    -3.87371  -0.80558  -2.32246
H    -2.24439  -0.36184  -2.91761
H    -2.55420  -2.01581  -2.32351
H     0.21396   1.19444  -1.52285
H     0.38029   2.18007   1.05363
H    -0.78045  -1.73376   1.36312
H    -0.39688  -1.17474  -1.33795
