17
Generated by autodE on: 2022-05-31. E = -530.441112 Ha
C    -2.70371   0.81188  -0.54615
C    -2.26770  -0.30475   0.35617
O    -3.04390  -1.01775   0.97595
C    -0.80354  -0.55740   0.50146
C    -0.25925  -1.61941   1.36142
O    -0.08191   0.24817  -0.19389
C     1.24235   0.39096  -0.37466
C     2.23174  -0.42467   0.20676
N     3.11464  -1.05311   0.64370
C     1.59666   1.44934  -1.23450
N     1.91235   2.32236  -1.94336
H    -2.27342   1.76747  -0.20715
H    -2.33842   0.63968  -1.57101
H    -3.79891   0.87029  -0.54267
H    -1.08952  -2.14059   1.85037
H     0.41173  -1.19189   2.12566
H     0.32932  -2.33952   0.76818
