17
Generated by autodE on: 2022-07-27. E = -530.441135 Ha
C    -1.08883  -1.63177   2.10545
C    -0.80437  -2.05782   0.69528
O    -1.00992  -3.18711   0.27379
C    -0.23730  -1.04419  -0.24187
C     0.08267  -1.34548  -1.64577
O    -0.06126   0.10597   0.30501
C     0.41302   1.28241  -0.14084
C     0.42967   2.30331   0.82992
N     0.45183   3.16438   1.61884
C     0.87192   1.52722  -1.44914
N     1.27113   1.81761  -2.50826
H    -1.79430  -0.78594   2.11532
H    -1.50956  -2.47971   2.65945
H    -0.16362  -1.28504   2.59277
H    -0.48604  -0.68637  -2.32336
H     1.15555  -1.18037  -1.84336
H    -0.17114  -2.39096  -1.85197
