19
Generated by autodE on: 2022-05-31. E = -981.905186 Ha
F     2.40270   0.13247  -0.11889
C     1.60795  -0.94519  -0.06804
F     2.18281  -1.82613   0.77287
F     1.61587  -1.51347  -1.29088
C     0.21718  -0.62849   0.36837
C    -0.54137   0.45957   0.21568
C    -0.29550   1.78930  -0.41243
F     0.02142   2.72221   0.50375
F     0.68512   1.77709  -1.32664
F    -1.41519   2.21107  -1.03411
C    -1.93993   0.04800   0.75758
C    -2.51641  -0.95761  -0.26333
C    -1.76178  -2.05082  -0.12607
C    -0.74334  -1.69117   0.97759
O    -1.53683  -0.83586   1.81030
H    -2.58562   0.85946   1.10716
H    -3.32410  -0.74242  -0.96119
H    -1.77590  -2.98920  -0.67835
H    -0.27371  -2.50812   1.53312
