36
Generated by autodE on: 2022-05-31. E = -1512.356441 Ha. Imaginary frequency = -193.1 cm-1
C    -3.62873  -1.04688   1.44534
C    -3.34922  -1.46478   0.03102
O    -3.40774  -2.62421  -0.35283
C    -2.96866  -0.40353  -0.95213
C    -3.06529  -0.65138  -2.41093
O    -2.94679   0.78614  -0.41641
C    -2.43499   1.92404  -0.91160
C    -2.19999   2.92223   0.06115
N    -1.95926   3.74607   0.85150
C    -2.45131   2.28719  -2.27853
N    -2.42870   2.65812  -3.38486
C    -0.11747   0.62350  -1.04939
C     0.42150   1.10827   0.30928
O    -0.43735   0.39323   1.20659
C    -0.18135  -0.90461   0.66048
C     1.36631  -0.92771   0.75684
C     2.13186  -2.19451   0.91450
F     1.95289  -2.72893   2.13554
F     3.45033  -2.04352   0.72973
F     1.69677  -3.10360   0.01863
C     1.74780   0.33459   0.54446
C     3.10766   0.93725   0.38317
F     3.03573   2.28029   0.39267
F     3.67610   0.58200  -0.78443
F     3.94874   0.57412   1.36312
C    -0.51545  -0.66124  -0.82637
H    -3.76322  -1.94112   2.06612
H    -4.54680  -0.43654   1.46970
H    -2.81784  -0.41874   1.84068
H    -4.04159  -0.27610  -2.76785
H    -2.27736  -0.15646  -2.98931
H    -3.02338  -1.73324  -2.58177
H     0.05433   1.13004  -1.99685
H     0.44053   2.18245   0.51011
H    -0.70837  -1.70309   1.19100
H    -0.66451  -1.45684  -1.55275
