34
Generated by autodE on: 2022-06-19. E = -1010.688542 Ha
C     2.33665   1.33394   2.15083
O     1.52170   1.23072   0.97035
C     2.14191   0.97888  -0.17307
O     3.34481   0.89075  -0.30464
C     1.18013   0.73228  -1.33373
O    -0.10819   1.25664  -1.07512
N    -1.04600   0.15821  -0.96157
C    -2.17793   0.50727  -0.20665
C    -3.19731  -0.45189  -0.04086
C    -4.35770  -0.12032   0.65238
C    -4.53709   1.16664   1.17886
C    -3.53028   2.11671   1.00004
C    -2.35330   1.79843   0.31413
C    -0.26280  -1.03711  -0.70185
C     0.11255  -1.30326   0.76484
O    -0.60199  -0.97893   1.69541
C     1.37724  -2.03868   0.99756
C     2.31141  -2.21284   0.04276
C     2.15686  -1.67431  -1.32504
O     2.96634  -1.92281  -2.20282
C     0.95708  -0.78668  -1.59198
H     1.63807   1.47238   2.98301
H     3.01485   2.19455   2.06854
H     2.91920   0.41194   2.28576
H     1.60785   1.21834  -2.22154
H    -3.07141  -1.45621  -0.44916
H    -5.13543  -0.87744   0.77992
H    -5.45182   1.42111   1.71835
H    -3.65127   3.12541   1.40327
H    -1.56780   2.54111   0.19113
H    -0.81692  -1.92395  -1.04718
H     1.52297  -2.41426   2.01353
H     3.23852  -2.75605   0.24205
H     0.68084  -0.90927  -2.64596
