22
Generated by autodE on: 2022-07-27. E = -628.968870 Ha
C     3.50711  -0.54368   2.06641
O     2.47414  -0.24558   1.11653
C     2.87665   0.25928  -0.05386
O     4.05039   0.47055  -0.33642
C     1.82470   0.56075  -1.01254
O     0.53886   0.40417  -0.89935
N    -0.10134  -0.08087   0.14531
C    -1.46548  -0.08785  -0.09908
C    -2.25663  -0.58457   0.96116
C    -3.64223  -0.63982   0.83833
C    -4.26483  -0.20411  -0.33766
C    -3.48372   0.28884  -1.39273
C    -2.09742   0.35129  -1.28610
H     2.99541  -0.94004   2.95096
H     4.06727   0.36648   2.32634
H     4.20090  -1.29401   1.65973
H     2.10746   0.97943  -1.97776
H    -1.75719  -0.92008   1.87217
H    -4.24237  -1.02518   1.66585
H    -5.35184  -0.24730  -0.43352
H    -3.96554   0.62979  -2.31233
H    -1.49870   0.73643  -2.11146
