22
Generated by autodE on: 2022-06-19. E = -628.975659 Ha
C     3.70859   1.75833  -0.56322
O     2.59363   0.88799  -0.33101
C     2.88386  -0.40530  -0.11306
O     4.01944  -0.85957  -0.10372
C     1.71474  -1.23289   0.11444
O     0.55279  -0.66162   0.08378
N    -0.56462  -1.33208   0.27797
C    -1.65147  -0.47855   0.19369
C    -2.91225  -1.08626   0.38566
C    -4.07520  -0.32323   0.32371
C    -4.00574   1.05207   0.07049
C    -2.75584   1.65879  -0.12104
C    -1.58361   0.91161  -0.06234
H     4.38541   1.76062   0.30386
H     4.26519   1.44423  -1.45852
H     3.28454   2.75780  -0.71376
H     1.78610  -2.30528   0.30738
H    -2.95175  -2.15942   0.58244
H    -5.04434  -0.80446   0.47407
H    -4.91859   1.64952   0.02247
H    -2.69688   2.73178  -0.31908
H    -0.61461   1.38811  -0.21147
