12
Generated by autodE on: 2022-06-19. E = -381.636089 Ha
O     0.30304  -2.64189  -0.20061
C     0.16350  -1.42663  -0.10844
C    -1.18434  -0.80816  -0.08158
C    -1.33673   0.52379   0.01983
C    -0.16350   1.42662   0.10848
O    -0.30304   2.64189   0.20059
C     1.18434   0.80816   0.08157
C     1.33673  -0.52379  -0.01983
H    -2.03359  -1.49235  -0.14773
H    -2.31901   1.00157   0.04162
H     2.03359   1.49235   0.14771
H     2.31901  -1.00157  -0.04165
