34
Generated by autodE on: 2022-06-19. E = -1010.619865 Ha. Imaginary frequency = -176.8 cm-1
C     2.74739   0.77884   2.41833
O     1.77266   0.93225   1.37461
C     2.24184   1.23384   0.16747
O     3.42516   1.38895  -0.09130
C     1.23358   1.39541  -0.89184
O    -0.06827   1.47190  -0.75526
N    -0.68979   0.74794   0.17660
C    -2.06517   0.89598   0.06596
C    -2.81175   0.28427   1.09598
C    -4.20409   0.33335   1.06880
C    -4.86447   0.99512   0.02882
C    -4.12255   1.61001  -0.99188
C    -2.73306   1.56378  -0.98529
C    -0.12497  -1.25837  -1.07217
C    -0.27144  -2.02956   0.17033
O    -1.37200  -2.39811   0.58224
C     0.97081  -2.37326   0.90365
C     2.18503  -2.12620   0.38039
C     2.34138  -1.46231  -0.93647
O     3.44908  -1.34334  -1.45583
C     1.11475  -0.95136  -1.58469
H     2.18293   0.49508   3.31352
H     3.28224   1.72465   2.58628
H     3.46643  -0.00910   2.15394
H     1.57570   1.88806  -1.80211
H    -2.27990  -0.21487   1.90602
H    -4.77699  -0.14178   1.86806
H    -5.95562   1.03777   0.01149
H    -4.63929   2.12830  -1.80290
H    -2.15889   2.03667  -1.78166
H    -1.03685  -1.07344  -1.64086
H     0.84266  -2.87393   1.86640
H     3.10872  -2.41151   0.88927
H     1.23196  -0.56741  -2.59893
