18
Generated by autodE on: 2022-06-18. E = -235.968070 Ha
C     1.42111   1.34980   0.21143
C     0.66934   0.04583   0.09131
C     1.59329  -1.14347   0.19966
C    -0.66945  -0.04586  -0.09109
C    -1.59326   1.14352  -0.19967
C    -1.42109  -1.34984  -0.21154
H     2.19204   1.42218  -0.57676
H     0.79001   2.24410   0.14564
H     1.96594   1.39128   1.17173
H     2.37339  -1.09545  -0.58124
H     1.09245  -2.11507   0.11330
H     2.13035  -1.12527   1.16507
H    -2.37401   1.09523   0.58054
H    -1.09236   2.11502  -0.11248
H    -2.12944   1.12590  -1.16559
H    -2.19408  -1.42112   0.57471
H    -1.96331  -1.39248  -1.17327
H    -0.79025  -2.24413  -0.14300
