18
Generated by autodE on: 2022-06-18. E = -568.614443 Ha
O    -1.19957   1.80202   1.52297
C    -1.50070   0.87910   0.78752
O    -2.85151   0.53738   0.57405
N    -2.97671  -0.51320  -0.27056
N    -1.75292  -0.82001  -0.57871
C    -0.78556  -0.06630  -0.01536
C     0.64777  -0.21872  -0.21289
C     1.53561   0.60003   0.51493
C     2.91406   0.46950   0.34595
C     3.43296  -0.47336  -0.54653
C     2.55813  -1.28770  -1.27439
C     1.17900  -1.16437  -1.11359
H    -1.61809  -1.60847  -1.21932
H     1.13565   1.33539   1.21261
H     3.58802   1.11061   0.91888
H     4.51286  -0.57361  -0.67628
H     2.95239  -2.02588  -1.97646
H     0.52078  -1.80956  -1.69929
