36
Generated by autodE on: 2022-06-18. E = -804.531013 Ha. Imaginary frequency = -101.1 cm-1
C    -3.21834  -0.67147   0.20898
C    -2.11014  -0.20867  -0.66130
C    -1.71474  -1.12114  -1.76953
N    -0.99227  -2.03105   1.40612
N    -0.57238  -0.91539   1.67332
C     0.17696   0.03292   0.84717
C     1.16348  -0.46282  -0.08436
C     2.06493   0.43392  -0.72481
C     2.98945  -0.02864  -1.65138
C     3.05652  -1.39150  -1.96719
C     2.19391  -2.29499  -1.33759
C     1.26347  -1.84569  -0.40771
C     0.35679   1.35420   1.64370
O     0.89095   2.33170   1.08716
O    -0.09486   1.30293   2.81738
C    -1.54969   1.06899  -0.53650
C    -0.71504   1.63798  -1.64300
C    -2.16082   2.08684   0.39171
H    -4.10236  -0.85533  -0.42913
H    -3.49125   0.02356   1.00928
H    -2.97032  -1.65310   0.65664
H    -2.16756  -2.11395  -1.65510
H    -2.03485  -0.69373  -2.73686
H    -0.62049  -1.23488  -1.83953
H    -0.70089  -0.42794   2.59720
H     2.01852   1.48661  -0.46320
H     3.67105   0.67769  -2.12975
H     3.79219  -1.75065  -2.69055
H     2.25586  -3.36125  -1.56431
H     0.60815  -2.55541   0.09310
H    -0.01663   2.38825  -1.25168
H    -1.39527   2.15603  -2.34401
H    -0.16017   0.88688  -2.21498
H    -2.34696   1.69760   1.39972
H    -1.51448   2.96833   0.47489
H    -3.12831   2.41468  -0.02664
