52
Generated by autodE on: 2022-06-02. E = -1300.935065 Ha
C     3.86480   3.86729  -0.11168
N     3.39753   2.56346   0.31116
C     2.09284   2.25519   0.29342
O     1.20712   3.06352  -0.03475
C     1.69227   0.88281   0.70220
C     2.30446  -0.32546   0.74622
C     3.69187  -0.70330   0.44927
O     4.65402   0.05251   0.44255
O     3.79350  -2.00823   0.18894
C     5.10160  -2.51176  -0.12408
C     1.17771  -1.33344   0.97389
O     0.27207  -0.56861   1.77935
C     0.21731   0.57148   0.91346
C    -0.25951  -0.03556  -0.44238
C     0.40243  -1.44527  -0.37275
C    -0.79851  -2.43125  -0.35582
C    -0.62457  -3.68832   0.47744
N    -1.97785  -1.65527   0.06451
C    -1.78334  -0.32982  -0.52819
C    -2.21800  -0.36298  -2.02034
C    -3.42553  -1.18779  -2.36465
O    -1.62142   0.28835  -2.85971
C    -2.67063   0.74182   0.09305
C    -2.43592   2.09477  -0.20637
C    -3.24715   3.09321   0.33443
C    -4.31154   2.75598   1.17796
C    -4.55667   1.41297   1.47321
C    -3.74479   0.41122   0.93068
H     3.35337   4.66543   0.44765
H     4.94329   3.93730   0.07531
H     3.67841   4.03859  -1.18526
H     4.06495   1.80736   0.48512
H     5.78441  -2.35108   0.72239
H     4.97298  -3.58333  -0.31320
H     5.49984  -2.01016  -1.01757
H     1.45765  -2.27205   1.45918
H    -0.39232   1.37241   1.33710
H     0.06870   0.58024  -1.28451
H     1.08944  -1.66250  -1.19972
H    -0.96320  -2.73382  -1.40435
H    -0.53399  -3.45123   1.54944
H    -1.49049  -4.35585   0.35184
H     0.27887  -4.23699   0.17089
H    -1.92002  -1.53962   1.07835
H    -3.15230  -2.25444  -2.33815
H    -3.77384  -0.92747  -3.37273
H    -4.22793  -1.04423  -1.62756
H    -1.60290   2.37205  -0.85462
H    -3.04490   4.14052   0.09801
H    -4.94617   3.53771   1.60192
H    -5.38648   1.13766   2.12853
H    -3.95119  -0.63403   1.16083
