26
Generated by autodE on: 2022-06-02. E = -557.222612 Ha
C     3.37027  -2.13116   0.06962
C     2.00333  -1.56018   0.02201
N     1.79002  -0.27920   0.04534
C     0.64579   0.50722  -0.00466
C     0.96877   1.89198  -0.03799
C    -0.12160   2.93960  -0.02497
O     2.17413   2.27849  -0.05474
C    -0.69229  -0.10334  -0.00845
C    -1.04603  -1.10463   0.92233
C    -2.32309  -1.66749   0.92512
C    -3.28681  -1.24130   0.00423
C    -2.95436  -0.25016  -0.92430
C    -1.67207   0.30315  -0.93772
H     3.48084  -2.79322   0.94628
H     3.55464  -2.75827  -0.81996
H     4.13764  -1.34438   0.11831
H     1.13658  -2.22208  -0.04090
H     2.60974   0.35347   0.07665
H    -1.07333   2.57729   0.38427
H    -0.30624   3.30221  -1.05030
H     0.23174   3.79833   0.56558
H    -0.31791  -1.43302   1.66730
H    -2.57129  -2.43719   1.66031
H    -4.28722  -1.68036   0.00928
H    -3.69463   0.08698  -1.65426
H    -1.41770   1.05593  -1.68598
