52
Generated by autodE on: 2022-06-02. E = -1300.850767 Ha. Imaginary frequency = -272.0 cm-1
C     4.44776   3.42301  -0.68446
N     3.74760   2.23596  -0.24083
C     2.42552   2.10083  -0.42595
O     1.71677   2.98271  -0.94029
C     1.78580   0.83695   0.01891
C     2.21205  -0.41868   0.29749
C     3.55683  -0.99821   0.31825
O     4.60934  -0.37269   0.35612
O     3.51047  -2.33341   0.30023
C     4.76443  -3.03121   0.31923
C     0.91329  -1.25055   0.44258
O     0.06134  -0.26525   1.03810
C     0.24472   0.72743   0.01625
C    -0.10868  -0.07120  -1.24608
C     0.28440  -1.36113  -0.96393
C    -1.60678  -2.53913  -0.54289
C    -1.25891  -3.63853   0.40188
N    -2.39411  -1.54382  -0.11760
C    -2.72324  -0.38452  -0.77968
C    -2.67932  -0.34103  -2.22532
C    -2.78308   0.99652  -2.93515
O    -2.52885  -1.36058  -2.93233
C    -3.31554   0.67856   0.06130
C    -4.42215   1.43572  -0.37873
C    -4.99177   2.41929   0.43052
C    -4.48738   2.66344   1.71219
C    -3.40700   1.90651   2.17444
C    -2.82635   0.93112   1.36156
H     5.49427   3.36104  -0.36183
H     4.42059   3.52634  -1.78234
H     3.99504   4.32917  -0.25321
H     4.27043   1.42185   0.09367
H     5.32404  -2.78640   1.23351
H     5.36553  -2.76218  -0.56120
H     4.51497  -4.09801   0.29879
H     0.98858  -2.15576   1.05033
H    -0.30493   1.64993   0.22190
H    -0.22592   0.39037  -2.22263
H     0.61022  -2.10528  -1.68916
H    -1.63851  -2.74039  -1.60696
H    -1.17744  -3.27604   1.43849
H    -2.02423  -4.43494   0.37370
H    -0.30308  -4.09953   0.11269
H    -2.50392  -1.48821   0.89502
H    -3.78836   1.11430  -3.37106
H    -2.06917   0.98045  -3.77244
H    -2.57551   1.86108  -2.29283
H    -4.86225   1.23582  -1.35560
H    -5.84912   2.98775   0.06165
H    -4.93719   3.43098   2.34626
H    -3.00172   2.08267   3.17396
H    -1.96618   0.37281   1.73103
