23
Generated by autodE on: 2022-06-17. E = -351.515935 Ha
C     0.14458  -2.16660  -2.23867
C     0.78722  -0.98043  -2.24261
C     1.77876  -0.63189  -3.32526
C     0.58116   0.06431  -1.22640
C    -0.02045  -0.08307  -0.02097
C    -0.19357   0.99995   0.92424
C    -0.77764   0.92956   2.14759
C    -1.35822  -0.32254   2.74088
C    -0.88487   2.14873   3.01909
H    -0.60001  -2.42128  -1.47921
H     0.34611  -2.91742  -3.00777
H     1.46093   0.27756  -3.86393
H     2.76941  -0.40760  -2.89368
H     1.89250  -1.44573  -4.05571
H     0.97804   1.05464  -1.48157
H    -0.39048  -1.07254   0.26524
H     0.19237   1.97504   0.60301
H    -2.42544  -0.17148   2.98131
H    -1.27560  -1.20090   2.08797
H    -0.85996  -0.55733   3.69811
H    -0.44464   3.03879   2.54610
H    -1.94126   2.36653   3.25868
H    -0.38096   1.98208   3.98815
