18
Generated by autodE on: 2022-06-17. E = -493.604451 Ha
C     3.64530   0.18108  -0.87787
O     2.46435  -0.54692  -0.52268
C     1.34907   0.17400  -0.33572
O     1.31177   1.39669  -0.45503
C     0.19351  -0.63864   0.02071
C     0.17512  -2.11410   0.18024
N    -0.91833   0.06945   0.20790
C    -2.14684  -0.35336   0.54277
C    -3.19106   0.56819   0.69258
N    -4.07943   1.32053   0.82294
H     3.49772   0.72190  -1.82423
H     4.43910  -0.56659  -0.99032
H     3.91087   0.89867  -0.08760
H     1.16656  -2.54063  -0.00446
H    -0.54495  -2.57623  -0.51944
H    -0.14728  -2.39509   1.19948
H    -0.78504   1.08030   0.06880
H    -2.32515  -1.41604   0.69843
