41
Generated by autodE on: 2022-06-17. E = -845.112705 Ha. Imaginary frequency = -361.0 cm-1
C    -2.57074  -0.63961   3.54122
O    -2.73535  -0.55433   2.11831
C    -1.83582   0.17114   1.45143
O    -0.91982   0.77089   1.99647
C    -2.01835   0.10350  -0.01775
C    -3.38352  -0.16472  -0.59328
C    -1.06589  -1.76510  -0.47234
C    -0.18633  -1.53072  -1.54384
C    -0.51544  -2.04341  -2.92709
C     1.16912  -1.07270  -1.29392
C     1.64356  -0.58321  -0.11450
C     2.98032  -0.05758   0.05238
C     3.50713   0.49749   1.17449
C     2.75459   0.67264   2.46421
C     4.92691   0.98976   1.19851
C    -0.94503   0.83599  -1.99545
C     0.13942   1.50390  -2.58637
N     1.07440   2.00106  -3.08467
N    -1.18053   0.96347  -0.66704
H    -2.62610   0.35968   3.99601
H    -3.39366  -1.26697   3.90227
H    -1.60369  -1.10156   3.78752
H    -3.88525  -0.95474  -0.02327
H    -4.00133   0.74870  -0.54290
H    -3.33000  -0.48743  -1.64121
H    -1.96999  -2.34553  -0.66817
H    -0.64437  -1.90266   0.52569
H    -1.60201  -2.07551  -3.09527
H    -0.06075  -1.42349  -3.71499
H    -0.13245  -3.07206  -3.06135
H     1.83851  -1.05430  -2.16188
H     0.98224  -0.56916   0.75509
H     3.62630  -0.11474  -0.83262
H     2.81201   1.72356   2.79898
H     1.69420   0.39873   2.39895
H     3.21879   0.07223   3.26761
H     5.44048   0.82497   0.23962
H     4.96696   2.06900   1.43372
H     5.50506   0.48439   1.99360
H    -1.73859   0.46484  -2.63962
H    -0.41486   1.32118  -0.08968
