28
Generated by autodE on: 2022-05-28. E = -752.679041 Ha. Imaginary frequency = -249.2 cm-1
C    -2.52069  -1.00861   1.40643
C    -2.24401  -0.99832  -0.08233
O    -2.62608  -1.94637  -0.79897
C    -1.60348   0.13405  -0.66586
O    -1.20914   1.12983   0.14629
C    -0.63045   2.21994  -0.25941
C    -0.91584   2.80721  -1.59314
C     1.46568   1.20142  -0.87009
C     2.31046   0.86284   0.38752
C     1.39075   0.27379   1.47236
C     1.06409  -0.91162   0.96004
F     0.24250  -1.85291   1.42033
C     1.74623  -1.03659  -0.39957
O     2.97611  -0.34232  -0.08877
C     1.09037  -0.01344  -1.35805
H    -1.85550  -0.35262   1.98045
H    -2.44974  -2.03895   1.78140
H    -3.55780  -0.66404   1.56216
H    -1.65050   0.31656  -1.73699
H    -0.30570   2.84611   0.57467
H    -0.36451   3.74975  -1.70697
H    -0.66246   2.14410  -2.43280
H    -2.00029   3.02258  -1.65948
H     1.54366   2.14495  -1.40356
H     3.02953   1.62281   0.71065
H     1.03981   0.77450   2.37168
H     1.90763  -2.04971  -0.78312
H     0.65165  -0.26798  -2.31889
