55
Generated by autodE on: 2022-06-27. E = -1095.791788 Ha
C     1.28085   2.88094   0.19143
C     1.66018   2.03795   1.16141
C     2.64509   2.43196   2.22801
C     1.11858   0.62733   1.27314
C    -0.22843   0.34377   0.59990
C    -1.39463   0.96131   1.30240
C    -2.45829   1.54844   0.72247
C    -3.58247   2.10465   1.55462
C    -2.64679   1.69603  -0.76309
C    -0.24974  -1.21460   0.48297
C    -0.55634  -1.91681   1.81633
C    -1.25148  -1.59752  -0.60475
C    -0.88318  -1.61820  -1.95944
C    -1.82968  -1.84069  -2.96252
C    -3.17246  -2.04532  -2.63142
C    -3.55193  -2.03579  -1.28679
C    -2.60053  -1.81909  -0.28541
N     1.13804  -1.44765   0.04487
C     1.60105  -2.81149  -0.12301
C     2.05627  -0.50851   0.67346
C     2.84264  -1.11956   1.76826
N     3.40999  -1.65644   2.62700
C     3.07077   0.08872  -0.33695
O     4.16373   0.51989   0.03969
N     2.63471   0.12948  -1.59680
C     3.35884   0.81971  -2.64415
H     1.69161   3.89365   0.14160
H     0.55314   2.60664  -0.57514
H     3.50380   1.74201   2.24202
H     2.17445   2.37411   3.22466
H     3.02260   3.45356   2.07676
H     1.01613   0.40533   2.34542
H    -0.17753   0.70111  -0.43522
H    -1.37334   0.90381   2.39669
H    -4.53747   1.61378   1.29595
H    -3.40528   1.97199   2.63217
H    -3.72472   3.18116   1.35332
H    -1.79418   1.33601  -1.35217
H    -2.83022   2.75305  -1.02284
H    -3.53912   1.13480  -1.09038
H    -1.51052  -1.58355   2.24376
H    -0.61196  -3.00576   1.67321
H     0.22700  -1.71394   2.56041
H     0.15853  -1.45829  -2.23698
H    -1.51411  -1.85298  -4.00866
H    -3.91528  -2.21438  -3.41459
H    -4.59708  -2.19548  -1.01062
H    -2.92664  -1.80464   0.75385
H     0.87748  -3.37123  -0.73169
H     2.56369  -2.81277  -0.65738
H     1.74028  -3.35417   0.83111
H     1.71080  -0.26106  -1.76128
H     2.87724   0.61442  -3.60795
H     4.40288   0.47545  -2.68618
H     3.36335   1.90887  -2.47146
