23
Generated by autodE on: 2022-06-27. E = -351.521384 Ha
C    -2.60692   1.07583  -2.51910
C    -2.12002   0.62799  -1.34090
C    -3.03474   0.30247  -0.18786
C    -0.67969   0.45189  -1.16596
C    -0.06799   0.01413  -0.03682
C     1.36718  -0.14149   0.08468
C     2.05306  -0.56600   1.17603
C     1.41637  -0.95674   2.47957
C     3.55140  -0.67551   1.14815
H    -3.67974   1.21728  -2.67709
H    -1.94009   1.31146  -3.35428
H    -2.92682  -0.75095   0.11977
H    -2.79216   0.91442   0.69682
H    -4.08696   0.47909  -0.45187
H    -0.05772   0.70156  -2.03404
H    -0.68138  -0.23640   0.83284
H     1.94862   0.11615  -0.80886
H     0.32212  -0.87123   2.48025
H     1.81046  -0.33065   3.29959
H     1.68013  -1.99788   2.73671
H     3.97231  -0.37852   0.17634
H     3.87236  -1.71000   1.36660
H     4.00483  -0.04393   1.93324
