32
Generated by autodE on: 2022-06-27. E = -744.226765 Ha
C     3.00116  -2.03034  -1.11974
N     2.42230  -1.10316  -0.17083
C     1.48618  -0.18722  -0.56143
O     0.94904  -0.26732  -1.68601
C     1.15828   0.85460   0.39427
C     1.88794   1.06571   1.56500
N     2.51489   1.22428   2.54699
N     0.09507   1.74582   0.09059
C     0.40908   3.18304   0.08780
C    -1.06692   1.30847  -0.34568
C    -2.00274   2.24757  -1.03401
C    -1.49283  -0.08428  -0.10640
C    -1.32356  -0.67084   1.16290
C    -1.78804  -1.96108   1.40641
C    -2.40603  -2.69433   0.38510
C    -2.57454  -2.12001  -0.87701
C    -2.13082  -0.81835  -1.11974
H     3.65776  -1.53474  -1.85794
H     3.59562  -2.77558  -0.57508
H     2.21009  -2.55437  -1.67499
H     2.92441  -0.93988   0.69527
H     0.76588   3.48060  -0.90936
H     1.20668   3.36114   0.81778
H    -0.46991   3.77605   0.36324
H    -2.79894   1.69571  -1.54528
H    -1.48029   2.89125  -1.75639
H    -2.48356   2.90366  -0.28750
H    -0.84244  -0.10665   1.96255
H    -1.66831  -2.39882   2.39996
H    -2.75925  -3.71004   0.57746
H    -3.05524  -2.68515  -1.67853
H    -2.25739  -0.37892  -2.11043
