32
Generated by autodE on: 2022-07-27. E = -744.225037 Ha
C     4.98324   1.42173   0.79644
N     3.85493   0.51867   0.78593
C     2.64648   0.83133   0.23347
O     2.47129   1.89419  -0.40019
C     1.58203  -0.14185   0.42434
C     1.69794  -1.22377   1.29979
N     1.79974  -2.13305   2.03774
N     0.33850   0.03718  -0.24483
C     0.40619   0.16325  -1.71313
C    -0.80677   0.01048   0.40907
C    -0.82552   0.11418   1.89261
C    -2.08726  -0.16983  -0.30419
C    -2.26485  -1.23506  -1.20666
C    -3.49319  -1.42027  -1.84079
C    -4.55214  -0.54037  -1.59473
C    -4.38384   0.51858  -0.69649
C    -3.16500   0.69583  -0.04199
H     4.71301   2.33032   0.24565
H     5.86502   0.97106   0.31168
H     5.26783   1.70681   1.82344
H     3.94633  -0.36033   1.28339
H     0.52208  -0.82974  -2.16645
H    -0.49524   0.65239  -2.09583
H     1.28107   0.77716  -1.94516
H    -0.71249  -0.88350   2.35321
H     0.00916   0.73446   2.25245
H    -1.78800   0.52028   2.22865
H    -1.44672  -1.93166  -1.39472
H    -3.62398  -2.25766  -2.52970
H    -5.51072  -0.68347  -2.09867
H    -5.20755   1.20853  -0.50079
H    -3.03957   1.52291   0.65930
