39
Generated by autodE on: 2022-06-02. E = -1640.089640 Ha
C     5.62194   0.64315   0.29731
O     4.25277   0.45505  -0.08663
C     3.48338   1.55329  -0.13698
O     3.88472   2.67300   0.11689
C     2.11292   1.20912  -0.52778
C     0.98869   1.94889  -0.43265
Cl    0.75386   3.53826   0.14326
C    -0.16737   1.01934  -0.78317
O     0.46382   0.15851  -1.73895
C     1.61151  -0.17540  -0.93691
C     0.95749  -0.78140   0.33792
C    -0.33019   0.08940   0.45605
C    -1.47240  -0.98435   0.30335
C    -2.83396  -0.45154  -0.02323
C    -3.51573  -0.84839  -1.17972
C    -4.77435  -0.31334  -1.47176
C    -5.36008   0.61798  -0.61068
C    -4.68116   1.01649   0.54608
C    -3.42303   0.48764   0.83801
N    -0.90989  -2.01158  -0.60513
C     0.31341  -2.18369   0.16842
C     1.20105  -3.24435  -0.30073
N     1.92928  -4.05549  -0.69166
O    -0.21267  -2.52871   1.47717
C    -1.35454  -1.78557   1.60746
O    -2.03219  -1.79802   2.59542
H     6.07921  -0.35270   0.28153
H     5.68217   1.07394   1.30728
H     6.13213   1.30831  -0.41437
H    -1.08032   1.47857  -1.17392
H     2.31144  -0.81675  -1.48136
H     1.63166  -0.76596   1.20036
H    -0.42691   0.65633   1.38820
H    -3.06695  -1.57785  -1.85485
H    -5.29750  -0.62806  -2.37764
H    -6.34347   1.03491  -0.84011
H    -5.13231   1.74514   1.22349
H    -2.89494   0.80392   1.73956
H    -0.68049  -1.58271  -1.50650
