19
Generated by autodE on: 2022-06-02. E = -995.131158 Ha
C    -3.48399  -0.07912   1.60215
O    -2.13309  -0.43540   1.28402
C    -1.58155   0.17739   0.22137
O    -2.17175   0.99777  -0.45904
C    -0.20723  -0.27121   0.01193
C     0.73927   0.21774  -0.81205
Cl    0.69157   1.50927  -1.92472
C     2.03495  -0.55985  -0.48064
C     2.47398  -0.09111   0.92556
C     1.54958  -0.58908   1.75127
C     0.55703  -1.34017   0.83577
O     1.45892  -1.83626  -0.17402
H    -3.55773   0.99492   1.82763
H    -3.75353  -0.67052   2.48486
H    -4.15415  -0.32041   0.76399
H     2.78988  -0.60628  -1.27195
H     3.32835   0.55228   1.13053
H     1.43735  -0.46984   2.82817
H    -0.05060  -2.13394   1.27936
