20
Generated by autodE on: 2022-06-02. E = -644.893774 Ha
N     4.76555   0.64924   0.56900
C     3.67175   0.33575   0.30976
C     2.35965  -0.04174  -0.00274
N     1.22820   0.52245   0.41364
C     0.13852  -0.12301  -0.09582
C    -1.24398   0.23673   0.16545
C    -2.28620  -0.46656  -0.47670
C    -3.61797  -0.13002  -0.23699
C    -3.94200   0.90799   0.64239
C    -2.91579   1.60972   1.28488
C    -1.58141   1.28092   1.05297
C     0.65192  -1.18847  -0.90476
O     0.16011  -2.06879  -1.58683
O     2.06698  -1.07756  -0.79894
H     1.20558   1.33587   1.03058
H    -2.04133  -1.27542  -1.16412
H    -4.41040  -0.68512  -0.74443
H    -4.98643   1.16861   0.82729
H    -3.15557   2.42119   1.97576
H    -0.80365   1.84304   1.57440
