69
Generated by autodE on: 2022-06-11. E = -1517.298145 Ha
C    -9.88013  14.67957   1.37136
C    -9.05366  14.00875   2.48272
C    -9.89843  13.48371   3.64750
C    -9.24591  13.02895   4.80423
C    -9.97372  12.54501   5.89080
C   -11.37211  12.51767   5.84109
C   -12.02756  12.98827   4.70188
C   -11.29604  13.47425   3.61338
N    -8.20924  15.09371   3.04256
N    -7.00095  14.84472   2.84221
C    -6.82564  13.60589   2.14619
C    -8.02665  13.01448   1.93619
C    -8.33010  11.66382   1.29546
C    -8.20338  11.74711  -0.24312
C    -7.91993  12.93074  -0.93238
C    -7.78885  12.94064  -2.32622
C    -7.93943  11.76240  -3.05743
C    -8.22778  10.57155  -2.37999
C    -8.36111  10.56732  -0.99178
C    -9.76077  11.18579   1.64861
C   -10.00758  10.44874   2.81815
C   -11.29252  10.00695   3.13715
C   -12.36741  10.28817   2.28927
C   -12.13784  11.01539   1.11986
C   -10.84814  11.45353   0.80409
C    -7.29748  10.57354   1.77971
C    -6.71815  10.65868   3.20894
C    -5.22416  11.01036   3.26726
C    -4.81173  12.47893   3.13118
C    -5.35774  13.25984   1.89747
C    -5.10017  12.46780   0.68296
N    -4.77327  11.87212  -0.25737
C    -4.59603  14.58873   1.63860
C    -4.90203  15.31055   0.47414
C    -4.26554  16.52065   0.19875
C    -3.31049  17.02773   1.08694
C    -3.00444  16.31426   2.24732
C    -3.64343  15.09999   2.52450
H   -10.51127  15.46570   1.80594
H    -9.20919  15.14016   0.63492
H   -10.51809  13.95264   0.85900
H    -8.15582  13.05184   4.85529
H    -9.44780  12.18868   6.77968
H   -11.94581  12.13452   6.68821
H   -13.11868  12.97166   4.65045
H   -11.83035  13.81996   2.72986
H    -7.77655  13.86236  -0.38855
H    -7.56303  13.88021  -2.83643
H    -7.83454  11.76783  -4.14491
H    -8.35165   9.63955  -2.93696
H    -8.59923   9.63174  -0.48307
H    -9.19642  10.22191   3.50689
H   -11.45285   9.44456   4.05983
H   -13.37369   9.94320   2.53828
H   -12.96387  11.24112   0.44106
H   -10.69108  12.00239  -0.12433
H    -7.79459   9.60442   1.64836
H    -6.46774  10.55896   1.06747
H    -6.83484   9.66913   3.67690
H    -7.29072  11.35230   3.83948
H    -4.69444  10.41508   2.50388
H    -4.82233  10.67528   4.23712
H    -3.71386  12.51460   3.09668
H    -5.12712  13.04769   4.01877
H    -5.65023  14.92312  -0.22169
H    -4.51604  17.06892  -0.71237
H    -2.80854  17.97443   0.87417
H    -2.26317  16.70215   2.94997
H    -3.39405  14.57169   3.44370
