69
Generated by autodE on: 2022-06-11. E = -1517.210146 Ha. Imaginary frequency = -393.4 cm-1
C    -9.44702  14.62059  -0.72650
C    -8.78380  14.62630   0.62603
C    -9.59616  14.62230   1.86161
C    -9.09111  15.12679   3.07774
C    -9.82723  15.01704   4.25534
C   -11.08877  14.41020   4.24770
C   -11.61082  13.93314   3.04219
C   -10.88023  14.04594   1.85766
N    -7.65819  15.36723   0.69128
N    -6.52022  15.30593   0.91938
C    -6.28157  13.26842   1.31459
C    -7.32986  12.66829   0.99914
C    -7.99465  11.33686   0.83262
C    -9.02918  11.38692  -0.31428
C    -8.58388  11.61184  -1.62788
C    -9.47963  11.66636  -2.69637
C   -10.85171  11.50865  -2.47367
C   -11.30936  11.29698  -1.17172
C   -10.40574  11.23302  -0.10433
C    -8.63467  10.86657   2.14885
C    -8.68895  11.67713   3.28619
C    -9.26228  11.21945   4.47793
C    -9.78899   9.92958   4.55373
C    -9.73726   9.10395   3.42402
C    -9.16642   9.56749   2.23817
C    -6.89639  10.29568   0.41268
C    -5.83025   9.89313   1.43932
C    -4.53325  10.71724   1.51865
C    -4.51009  11.90943   2.48130
C    -4.91225  13.30213   1.90274
C    -3.98067  13.64341   0.81132
N    -3.25434  13.87242  -0.06431
C    -4.81607  14.33787   3.03936
C    -3.76648  15.25727   3.13513
C    -3.71043  16.15732   4.20518
C    -4.70268  16.14679   5.18843
C    -5.75026  15.22336   5.10032
C    -5.80271  14.32349   4.03509
H   -10.05615  15.53064  -0.86385
H    -8.69868  14.56809  -1.52710
H   -10.11236  13.75810  -0.81927
H    -8.11067  15.60187   3.10927
H    -9.40938  15.40725   5.18651
H   -11.66168  14.31673   5.17283
H   -12.59819  13.46600   3.01944
H   -11.30437  13.66132   0.93154
H    -7.52154  11.76951  -1.82083
H    -9.10450  11.84467  -3.70710
H   -11.55634  11.55568  -3.30730
H   -12.37855  11.18237  -0.97704
H   -10.79007  11.07584   0.90200
H    -8.28841  12.68595   3.24214
H    -9.29593  11.88306   5.34513
H   -10.23667   9.56692   5.48207
H   -10.14453   8.09076   3.46658
H    -9.14381   8.90955   1.36790
H    -7.43861   9.38921   0.10479
H    -6.39473  10.66924  -0.49106
H    -6.27412   9.81004   2.44497
H    -5.53166   8.86778   1.16806
H    -4.22428  11.03427   0.50733
H    -3.74215  10.03307   1.86354
H    -3.49806  12.03428   2.89569
H    -5.18142  11.71957   3.33197
H    -2.98790  15.28323   2.37046
H    -2.88691  16.87291   4.26373
H    -4.66114  16.85446   6.01968
H    -6.53451  15.20379   5.86090
H    -6.62302  13.60929   3.97066
