16
Generated by autodE on: 2022-06-04. E = -2920.439889 Ha
C    -2.23564  -0.40985   1.21579
C    -0.81886   0.00684   1.09048
C    -0.02273   0.21811   0.03542
Br   -0.40193   0.04618  -1.79724
C     1.39933   0.45919   0.59363
C     1.88071  -0.88747   1.18635
C     1.10096  -1.08510   2.25339
C     0.16137   0.14258   2.29003
O     1.05314   1.16450   1.79712
H    -2.29820  -1.39916   1.70353
H    -2.80243   0.29152   1.85112
H    -2.72741  -0.47542   0.23463
H     2.09620   1.02014  -0.03826
H     2.65062  -1.52497   0.75306
H     1.05577  -1.93130   2.93815
H    -0.28731   0.41161   3.25298
