34
Generated by autodE on: 2022-06-04. E = -691.254527 Ha
C     4.23383   1.58984   0.38905
N     3.14881   0.98030  -0.34735
C     2.36870   0.00522   0.23655
O     2.72533  -0.46564   1.34977
C     1.18900  -0.39628  -0.48386
C     0.70564   0.34797  -1.68991
N     0.38711  -1.39996   0.06341
C     1.04891  -2.63610   0.52731
C    -0.94923  -1.38320   0.03076
C    -1.69926  -2.67712   0.16639
C    -1.69910  -0.12139  -0.05724
C    -2.93925  -0.06059  -0.72675
C    -3.69645   1.11241  -0.73616
C    -3.24453   2.25097  -0.06359
C    -2.01730   2.20494   0.61112
C    -1.24860   1.04408   0.60338
H     4.74629   2.31030  -0.26243
H     4.96685   0.83536   0.71273
H     3.89142   2.12397   1.29482
H     2.76756   1.50589  -1.12334
H     0.23085   1.32709  -1.47774
H     1.54261   0.53734  -2.38320
H    -0.04081  -0.24910  -2.23521
H     0.72818  -2.88949   1.54640
H     2.12812  -2.48721   0.50994
H     0.78237  -3.46022  -0.14891
H    -1.50343  -3.15448   1.14093
H    -1.41111  -3.40593  -0.61016
H    -2.77933  -2.50974   0.09845
H    -3.30960  -0.93765  -1.26042
H    -4.64709   1.13425  -1.27450
H    -3.83826   3.16788  -0.06717
H    -1.65430   3.08544   1.14692
H    -0.29219   1.02783   1.12860
