50
Generated by autodE on: 2022-06-04. E = -3611.681417 Ha. Imaginary frequency = -250.9 cm-1
C     3.43574  -1.35130   1.78282
N     2.33514  -1.64468   0.88834
C     2.51289  -1.54012  -0.46573
O     3.66181  -1.33047  -0.91677
C     1.35369  -1.60578  -1.36583
C     1.71737  -1.52462  -2.83314
C     0.50092   0.71234  -0.89010
C     1.03922   1.05232   0.51172
O     0.19169   0.21562   1.32836
C    -1.05095   0.74929   0.81248
C    -0.85241   2.26373   1.08981
C    -1.96071   3.21535   1.34162
C     0.46345   2.42885   0.90172
Br    1.47469   4.01492   0.86025
C    -0.85038   0.53625  -0.69550
C    -1.06453  -1.80420  -1.42243
C    -1.23889  -1.27198  -2.82475
C    -2.29429  -2.37201  -0.81078
C    -3.31115  -2.91393  -1.62420
C    -4.49705  -3.40066  -1.07055
C    -4.70652  -3.34576   0.30997
C    -3.71402  -2.80029   1.13166
C    -2.52662  -2.32162   0.58013
N     0.15633  -2.19328  -0.95699
C     0.20971  -3.28774   0.04618
H     3.09858  -1.49442   2.81832
H     3.80968  -0.31604   1.67685
H     4.28345  -2.02729   1.59675
H     1.40828  -1.41559   1.23728
H     1.05266  -2.13882  -3.44934
H     2.73812  -1.91403  -2.95943
H     1.71908  -0.50181  -3.24769
H     1.00806   1.01766  -1.80334
H     2.10207   0.89885   0.71598
H    -1.92374   0.29078   1.28927
H    -2.67198   3.20218   0.49636
H    -2.53417   2.93097   2.24015
H    -1.59278   4.24383   1.46774
H    -1.64743   0.72319  -1.40962
H    -0.48041  -0.54140  -3.10880
H    -2.22127  -0.79190  -2.91337
H    -1.20640  -2.09663  -3.55830
H    -3.16978  -2.97358  -2.70370
H    -5.26155  -3.82614  -1.72512
H    -5.63690  -3.72057   0.74283
H    -3.86790  -2.73963   2.21167
H    -1.77577  -1.88848   1.23809
H     0.02392  -2.95607   1.07260
H    -0.54399  -4.03690  -0.21940
H     1.19556  -3.75510  -0.00375
