26
Generated by autodE on: 2022-06-02. E = -490.101595 Ha
C     2.32043   0.64412  -1.90660
C     0.83050   0.59936  -1.53274
C     0.03654   1.55651  -2.44149
C     0.60333   0.94395  -0.12482
C     0.16314   0.90904   1.00604
C    -0.61861   0.35562   2.10964
F     0.23352  -0.36263   2.97199
C    -1.65221  -0.60807   1.51516
C    -1.11179  -1.60978   0.47357
C    -1.07533  -1.17748  -1.02133
C     0.29393  -0.86329  -1.66175
H     2.71239   1.67071  -1.83959
H     2.91580   0.00116  -1.24057
H     2.45684   0.29038  -2.94062
H    -1.04038   1.52214  -2.21987
H     0.37967   2.59418  -2.31102
H     0.18378   1.27315  -3.49552
H    -1.11048   1.12269   2.72767
H    -2.09333  -1.15291   2.36616
H    -2.46064  -0.00103   1.07530
H    -1.75976  -2.49753   0.53952
H    -0.11308  -1.95356   0.79284
H    -1.50051  -2.00878  -1.60546
H    -1.76664  -0.33244  -1.18011
H     1.04954  -1.54378  -1.23479
H     0.24861  -1.08617  -2.74115
