55
Generated by autodE on: 2022-06-06. E = -4128.998393 Ha
C     3.04556  -7.27079   2.07656
N     2.43501  -6.53137   0.99018
C     2.13363  -5.23580   1.10642
O     2.22977  -4.62532   2.17606
C     1.62190  -4.46783  -0.16316
C     0.72490  -5.32531  -1.06976
C     0.72229  -5.19402  -2.46359
C    -0.18895  -5.90135  -3.25182
C    -1.12095  -6.75514  -2.65631
C    -1.13940  -6.88287  -1.26410
C    -0.22986  -6.16903  -0.48062
N     0.79700  -3.37500   0.37341
C     1.17449  -2.13684  -0.32404
C     0.17418  -1.81698  -1.45588
C     1.09520  -1.08579   0.71022
N     0.93878  -0.33708   1.58243
C     2.59494  -2.39180  -0.88912
C     2.80851  -3.73751  -0.87072
C     4.02618  -4.49407  -1.36021
Cl    3.62296  -6.19850  -1.91019
Br    5.27733  -4.76434   0.23419
C     4.89717  -3.93472  -2.48346
C     4.18680  -3.64190  -3.80335
C     3.21379  -2.46144  -3.77268
C     3.69033  -1.25703  -2.95952
C     3.47478  -1.22947  -1.39155
C     4.79401  -1.21957  -0.57872
C     2.88215   0.17361  -1.10957
H     2.45591  -7.16115   2.99830
H     4.06904  -6.91198   2.27756
H     3.08852  -8.33246   1.80394
H     2.39573  -6.95733   0.07146
H     1.43891  -4.53500  -2.94861
H    -0.16609  -5.78247  -4.33766
H    -1.83117  -7.31304  -3.27111
H    -1.86938  -7.53755  -0.78197
H    -0.27607  -6.26620   0.60541
H     1.09439  -3.29166   1.34985
H     0.13098  -2.67258  -2.13983
H    -0.82425  -1.65952  -1.02423
H     0.46396  -0.92640  -2.02591
H     5.69218  -4.67305  -2.65233
H     5.40085  -3.02919  -2.13701
H     3.68491  -4.54818  -4.17609
H     4.98975  -3.41427  -4.52359
H     3.05816  -2.12764  -4.81101
H     2.22192  -2.77360  -3.41795
H     3.15629  -0.38356  -3.35768
H     4.75791  -1.07023  -3.16272
H     4.56923  -1.02165   0.48036
H     5.36744  -2.14897  -0.60609
H     5.44067  -0.40781  -0.94560
H     3.55599   0.91182  -1.56885
H     1.89062   0.32631  -1.55396
H     2.83628   0.40653  -0.04046
