55
Generated by autodE on: 2022-06-06. E = -4128.919425 Ha. Imaginary frequency = -283.0 cm-1
C     3.02377  -7.78799   1.61724
N     2.25558  -6.81522   0.87105
C     2.12724  -5.53279   1.25353
O     2.49604  -5.10299   2.35739
C     1.48826  -4.59797   0.26065
C     0.52858  -5.14181  -0.75691
C     0.62768  -4.94362  -2.14131
C    -0.33682  -5.46410  -3.00646
C    -1.41741  -6.19411  -2.50461
C    -1.52864  -6.40062  -1.12642
C    -0.56344  -5.87994  -0.26253
N     1.31074  -3.39154   0.82926
C     0.99706  -2.22263   0.22299
C    -0.08582  -2.12661  -0.82955
C     1.19480  -1.07886   1.05224
N     1.36626  -0.12234   1.69849
C     3.01326  -2.42544  -1.13050
C     3.26182  -3.65179  -1.04299
C     4.28015  -4.63026  -1.40966
Cl    3.59644  -6.19922  -2.07471
Br    5.32360  -5.13154   0.26469
C     5.32930  -4.12834  -2.40522
C     4.82203  -3.70060  -3.78733
C     3.89227  -2.47576  -3.86729
C     4.29752  -1.31107  -2.94772
C     3.38601  -1.08923  -1.69535
C     4.18775  -0.31219  -0.63258
C     2.17198  -0.25256  -2.13218
H     3.07407  -7.48104   2.66868
H     4.05170  -7.86866   1.22549
H     2.54447  -8.77546   1.55429
H     2.03574  -7.03174  -0.09567
H     1.45994  -4.37213  -2.54466
H    -0.24037  -5.29479  -4.08136
H    -2.17019  -6.60053  -3.18420
H    -2.37144  -6.96425  -0.71963
H    -0.66149  -6.03934   0.81341
H     1.85591  -3.33344   1.70006
H     0.23590  -2.49183  -1.80970
H    -0.96210  -2.71547  -0.51766
H    -0.39972  -1.08214  -0.93937
H     6.07325  -4.92775  -2.53318
H     5.84662  -3.29208  -1.91415
H     4.34301  -4.56061  -4.28170
H     5.73264  -3.48212  -4.37042
H     3.88895  -2.13798  -4.91549
H     2.85472  -2.77565  -3.65308
H     4.29764  -0.36334  -3.50759
H     5.33370  -1.45019  -2.60465
H     3.56804  -0.06296   0.23921
H     5.05289  -0.89960  -0.28893
H     4.56198   0.62785  -1.06945
H     2.52967   0.68399  -2.58609
H     1.56266  -0.78203  -2.87883
H     1.53099   0.01634  -1.28428
