53
Generated by autodE on: 2022-06-03. E = -1227.626800 Ha
C    -4.25081   3.30542   0.50605
O    -3.28127   2.27398   0.76536
C    -2.00347   2.59530   0.61110
O    -1.60127   3.68849   0.29192
C    -1.10148   1.38218   0.93984
C    -1.24222   1.20614   2.40089
N    -1.31215   1.10969   3.55479
N     0.30840   1.68898   0.70271
C     0.89341   0.67742   0.16465
C     2.35013   0.69651  -0.09184
C     3.01365  -0.41304  -0.64564
C     4.38868  -0.36978  -0.88362
C     5.12112   0.77881  -0.57230
C     4.47086   1.88850  -0.01883
C     3.09939   1.84716   0.22059
C     0.00069  -0.50655  -0.20253
C     0.38459  -1.75420   0.58767
C     0.88337  -1.63533   1.89669
C     1.21514  -2.76295   2.65017
C     1.05496  -4.04218   2.10954
C     0.56112  -4.17589   0.80976
C     0.23053  -3.04430   0.05782
C    -0.09154  -0.72592  -1.75832
C     0.00890   0.62099  -2.49937
C    -1.32398   1.32421  -2.11827
C    -2.06564   0.26265  -1.27027
C    -1.58640  -1.03055  -1.95937
C    -1.45333   0.06165   0.14925
C    -2.35151  -0.86326   0.97151
H    -4.17106   3.64254  -0.53681
H    -4.09068   4.15439   1.18505
H    -5.22925   2.84759   0.68723
H     2.46433  -1.32119  -0.88740
H     4.88904  -1.24039  -1.31318
H     6.19714   0.81045  -0.75880
H     5.03774   2.78926   0.22736
H     2.58879   2.70842   0.65128
H     1.01849  -0.64806   2.34249
H     1.60254  -2.63902   3.66425
H     1.31498  -4.92658   2.69585
H     0.43115  -5.16847   0.37168
H    -0.15084  -3.18282  -0.95314
H     0.61374  -1.47983  -2.12456
H     0.89620   1.20925  -2.23445
H     0.06225   0.42949  -3.58100
H    -1.15492   2.27652  -1.60585
H    -1.92554   1.55092  -3.01039
H    -3.15130   0.41446  -1.22684
H    -1.93220  -1.95242  -1.47805
H    -1.86294  -1.06663  -3.02370
H    -1.88021  -1.16778   1.91394
H    -3.29282  -0.34603   1.20724
H    -2.59447  -1.77831   0.41806
