30
Generated by autodE on: 2022-06-03. E = -543.362515 Ha
C    -1.23519   0.12503   2.39215
C    -1.34220  -0.26087   0.95460
C    -0.39854  -0.32255  -0.02269
C     1.04605  -0.08250   0.05923
C     1.73785   0.48236  -1.03421
C     3.11085   0.72681  -0.97082
C     3.83485   0.40228   0.18130
C     3.16939  -0.17805   1.26660
C     1.79605  -0.42133   1.20647
C    -1.14775  -0.50839  -1.34380
C    -1.88396   0.83883  -1.63303
C    -2.95344   0.89250  -0.50390
C    -2.69504  -0.43760   0.27704
C    -2.32630  -1.38421  -0.87980
H    -2.03319   0.84303   2.64829
H    -1.37836  -0.74683   3.05550
H    -0.26715   0.58136   2.64213
H     1.18885   0.74556  -1.94032
H     3.61949   1.17369  -1.82884
H     4.91005   0.59031   0.22922
H     3.72676  -0.45447   2.16529
H     1.30134  -0.90685   2.04865
H    -0.54259  -0.88269  -2.17956
H    -2.35337   0.81317  -2.62845
H    -1.19135   1.69227  -1.61070
H    -3.97446   0.90285  -0.91539
H    -2.84794   1.77107   0.14947
H    -3.51597  -0.73582   0.94351
H    -3.12151  -1.48395  -1.63596
H    -2.01213  -2.38145  -0.53683
