23
Generated by autodE on: 2022-06-03. E = -684.190642 Ha
C     4.80795   0.13959  -0.94894
O     3.82091  -0.15321   0.04515
C     2.53267   0.01588  -0.31933
O     2.19179   0.39905  -1.43066
C     1.61968  -0.31003   0.75790
C     2.03582  -0.75005   2.02972
N     2.38543  -1.11452   3.08453
N     0.30099  -0.17781   0.50430
C    -0.80819  -0.02854   0.17943
C    -2.16097   0.14496  -0.19756
C    -2.85004  -0.91359  -0.82992
C    -4.17787  -0.73196  -1.20298
C    -4.81616   0.48835  -0.94877
C    -4.13392   1.53768  -0.32056
C    -2.80499   1.37594   0.05773
H     4.74291   1.19061  -1.26733
H     4.68527  -0.51297  -1.82618
H     5.77885  -0.04883  -0.47523
H    -2.33434  -1.85627  -1.01862
H    -4.71983  -1.54269  -1.69322
H    -5.85916   0.62328  -1.24393
H    -4.64218   2.48419  -0.12750
H    -2.25501   2.18157   0.54605
