53
Generated by autodE on: 2022-06-03. E = -1227.530660 Ha. Imaginary frequency = -338.2 cm-1
C    -4.02259   4.06135   0.70970
O    -3.08763   3.08426   1.18180
C    -1.90060   3.02979   0.54866
O    -1.59997   3.76362  -0.38078
C    -1.05818   1.96692   1.08752
C    -1.30652   1.48199   2.39371
N    -1.50127   1.08382   3.47439
N     0.18152   1.78519   0.57417
C     0.87671   0.91474   0.08590
C     2.30399   0.69398  -0.02989
C     2.85704  -0.13450  -1.02208
C     4.23486  -0.33669  -1.06729
C     5.06658   0.26767  -0.11863
C     4.52121   1.08712   0.87670
C     3.14705   1.30482   0.92307
C    -0.36766  -0.83344  -0.41112
C     0.40968  -1.78820   0.43659
C     0.61964  -1.56365   1.81186
C     1.34667  -2.46564   2.58981
C     1.89233  -3.61826   2.01546
C     1.69594  -3.85462   0.65273
C     0.96557  -2.95210  -0.12579
C    -0.33154  -0.92677  -1.96352
C    -0.40004   0.47666  -2.60953
C    -1.82798   0.95589  -2.23521
C    -2.40972  -0.24859  -1.45323
C    -1.77069  -1.42783  -2.23737
C    -1.70253  -0.47694  -0.11875
C    -2.53210  -0.89780   1.04710
H    -4.28613   3.86878  -0.34069
H    -3.60508   5.07469   0.80066
H    -4.91033   3.96102   1.34498
H     2.21378  -0.61338  -1.75609
H     4.66164  -0.97497  -1.84336
H     6.14508   0.09778  -0.15326
H     5.17024   1.55760   1.61823
H     2.70955   1.93909   1.69565
H     0.22618  -0.66407   2.28399
H     1.49559  -2.25827   3.65239
H     2.46784  -4.32083   2.62261
H     2.11435  -4.74951   0.18529
H     0.82654  -3.16542  -1.18583
H     0.48065  -1.54638  -2.35697
H     0.38694   1.15565  -2.25675
H    -0.28128   0.38052  -3.69911
H    -1.82636   1.88209  -1.65601
H    -2.43877   1.13069  -3.13367
H    -3.50360  -0.23963  -1.36365
H    -1.97644  -2.41030  -1.78709
H    -2.04419  -1.44642  -3.30543
H    -1.95869  -1.09455   1.95742
H    -3.31723  -0.16125   1.27413
H    -3.05003  -1.83580   0.76677
