38
Generated by autodE on: 2022-10-22. E = -1719.420752 Ha
C    -2.67592  -1.30887  -1.93340
O    -1.80997  -0.35951  -1.29437
C    -1.10480  -0.68658  -0.15436
C    -2.12734  -0.93142   1.00623
F    -2.91298   0.13661   1.15745
F    -1.57108  -1.22362   2.18135
F    -2.90816  -1.97298   0.68215
O    -0.40328  -1.90042  -0.27583
N     0.77306  -1.67178  -1.04786
C     0.49722  -1.69681  -2.48926
C     1.32934  -0.45302  -0.45993
C     2.26389  -0.88726   0.75075
C     2.08906  -2.23832   1.37102
O     3.16629  -0.13704   1.05760
C     2.38682   0.20694  -1.39732
C     3.46733  -0.70222  -1.92908
O     2.39681   1.39340  -1.61509
C     0.05604   0.42806   0.00647
C     0.26385   0.98092   1.45462
F     0.53815   0.01285   2.33935
F    -0.82544   1.62431   1.89231
F     1.28626   1.83809   1.50671
C    -0.32659   1.68739  -0.87129
F     0.41567   2.76392  -0.59270
F    -0.22646   1.46076  -2.18017
F    -1.59143   2.05410  -0.60348
H    -2.33754  -2.33936  -1.77150
H    -3.70622  -1.19072  -1.56861
H    -2.63678  -1.07571  -3.00524
H     0.02106  -0.78963  -2.88463
H     1.44503  -1.87075  -3.01270
H    -0.14288  -2.56527  -2.68407
H     2.53507  -2.98668   0.69661
H     1.03423  -2.49941   1.50721
H     2.63039  -2.25419   2.32574
H     3.47164  -0.63241  -3.02715
H     4.43218  -0.31463  -1.56930
H     3.35935  -1.75010  -1.62561
