19
Generated by autodE on: 2022-10-22. E = -514.655563 Ha
C     2.49573   0.12720  -0.13916
C     1.22934   0.51720   0.56287
O     1.19532   1.28818   1.50421
C    -0.06510  -0.01877  -0.01370
C    -1.03110   0.86510  -0.69786
C    -0.62862   2.31068  -0.81686
O    -2.09750   0.45526  -1.14520
N    -0.25512  -1.31438   0.18702
C    -1.42764  -2.06270  -0.31625
O     0.58545  -1.98917   0.84602
H     2.46653  -0.91704  -0.47757
H     3.36233   0.30464   0.51238
H     2.58334   0.77064  -1.03281
H    -1.37751   2.84675  -1.41293
H    -0.55368   2.76165   0.18454
H     0.36322   2.40112  -1.28821
H    -1.52065  -1.92515  -1.39861
H    -1.23921  -3.10782  -0.05361
H    -2.33475  -1.68791   0.17221
