19
Generated by autodE on: 2022-10-22. E = -1204.767308 Ha
C     2.78387   1.43021   0.37410
O     1.59123   1.21843  -0.42111
C     0.85700   0.11178  -0.27785
C    -0.42913   0.23992   0.11518
C    -0.89671   1.63081   0.51058
F    -0.09568   2.18061   1.43868
F    -2.13388   1.60304   1.03343
F    -0.93124   2.47041  -0.53553
C    -1.48073  -0.84019   0.17051
F    -1.90869  -1.03604   1.42971
F    -2.55518  -0.49207  -0.56247
F    -1.06076  -2.02138  -0.29060
C     1.55174  -1.20703  -0.66810
F     1.03137  -1.71931  -1.78952
F     2.85075  -0.98876  -0.90194
F     1.46607  -2.12493   0.30012
H     2.74821   2.47781   0.69928
H     3.67651   1.25616  -0.23974
H     2.78748   0.77251   1.25350
