36
Generated by autodE on: 2022-06-18. E = -1069.224522 Ha
C    -3.17517   2.30046   1.10645
O    -2.46939   1.12665   0.67335
C    -1.86405   1.19565  -0.50687
O    -1.91360   2.15244  -1.24692
C    -1.11236  -0.11153  -0.80916
C    -2.15611  -1.20033  -1.11784
C    -1.80687  -2.60439  -0.74066
O    -3.18983  -0.88102  -1.67559
C    -0.11772   0.03639  -1.98853
C     1.18635  -0.54837  -1.44131
C     1.03758  -0.28947   0.07040
C     1.41410   1.15787   0.43914
O     0.64179   1.92683   0.96841
O     2.64994   1.46186   0.07220
C     3.10812   2.79345   0.36680
C     1.83084  -1.27606   0.93817
O     2.78518  -0.97009   1.61812
O     1.33959  -2.50239   0.83690
C     1.99688  -3.53228   1.59640
O    -0.33986  -0.48839   0.33139
H    -2.47592   3.14325   1.20540
H    -3.60908   2.04953   2.08089
H    -3.96739   2.55889   0.38965
H    -1.75012  -2.67825   0.35676
H    -0.80840  -2.86690  -1.12323
H    -2.56654  -3.29451  -1.12890
H    -0.01532   1.10116  -2.23428
H    -0.46437  -0.48623  -2.88924
H     2.08316  -0.07911  -1.86102
H     1.23663  -1.63203  -1.60754
H     2.47003   3.53358  -0.13610
H     4.13364   2.84952  -0.01435
H     3.09234   2.96733   1.45194
H     1.44996  -4.45690   1.38164
H     3.04602  -3.62433   1.28227
H     1.95068  -3.29900   2.66942
