30
Generated by autodE on: 2022-06-18. E = -990.483778 Ha
C    -2.18625  -3.18382   1.62246
O    -1.34686  -2.18143   1.02469
C    -1.95078  -1.07124   0.61551
O    -3.14519  -0.85498   0.68617
C    -0.99653  -0.08987   0.04197
O     0.24721  -0.35506   0.23825
C     1.37174   0.21045  -0.20391
C     1.35430   0.94923  -1.45618
C     2.64125   1.43904  -2.05659
O     0.27796   1.10386  -2.04768
C     2.57039  -0.28463   0.48747
O     3.70738   0.06701   0.22161
O     2.27441  -1.14623   1.46915
C     3.38399  -1.67473   2.20795
C    -1.46589   1.26613  -0.37825
O    -0.99113   2.26505   0.12186
O    -2.48689   1.22718  -1.21292
C    -3.03797   2.49643  -1.61181
H    -2.68466  -2.77996   2.51524
H    -1.51876  -4.00820   1.89619
H    -2.94214  -3.52531   0.90089
H     3.34003   0.60832  -2.23040
H     2.40851   1.94361  -3.00305
H     3.13894   2.13725  -1.36711
H     3.93909  -0.86431   2.70237
H     2.95193  -2.34923   2.95610
H     4.06258  -2.22907   1.54338
H    -2.26884   3.09286  -2.12239
H    -3.41130   3.04158  -0.73369
H    -3.86036   2.26267  -2.29642
