36
Generated by autodE on: 2022-06-18. E = -1069.114709 Ha. Imaginary frequency = -185.5 cm-1
C    -2.67539   2.79855   1.02111
O    -2.13208   1.48345   0.81902
C    -1.87138   1.13782  -0.44079
O    -2.19010   1.77838  -1.41663
C    -1.30038  -0.25379  -0.47728
C    -2.19751  -1.34213  -0.94017
C    -1.75820  -2.75444  -0.67819
O    -3.22966  -1.05530  -1.53395
C     0.16648  -0.14852  -2.52919
C     1.41869  -0.29911  -2.02994
C     0.90457  -0.21994   0.53641
C     1.20452   1.21908   0.49231
O     0.41278   2.04736   0.07099
O     2.42736   1.52710   0.91501
C     2.80309   2.91046   0.82418
C     1.83124  -1.27892   0.99194
O     3.00638  -1.10871   1.25508
O     1.22848  -2.47307   1.05272
C     2.05369  -3.58323   1.43041
O    -0.29950  -0.66611   0.25074
H    -1.97493   3.55558   0.64076
H    -2.80426   2.90756   2.10378
H    -3.64268   2.89793   0.50875
H    -1.66221  -2.92737   0.40505
H    -0.76670  -2.93513  -1.12045
H    -2.49644  -3.44386  -1.10596
H    -0.24354   0.83628  -2.76016
H    -0.40156  -1.01371  -2.87913
H     2.07912   0.55575  -1.86626
H     1.86184  -1.29089  -1.90524
H     2.76067   3.25036  -0.22052
H     3.83046   2.96432   1.20132
H     2.13641   3.53094   1.43993
H     1.39744  -4.46090   1.41962
H     2.87610  -3.71380   0.71225
H     2.46853  -3.43054   2.43723
