55
Generated by autodE on: 2022-06-08. E = -1800.555475 Ha
C    -2.44285  -2.47227   0.63478
C    -2.82234  -1.02121   0.68705
O    -3.98864  -0.67885   0.64060
C    -1.70014   0.07659   0.74846
C    -1.99964   1.03557   1.97595
C    -3.40350   1.43633   2.33990
O    -1.06119   1.40157   2.64984
N    -0.38929  -0.53303   0.83392
C     0.05139  -1.11053   2.09481
C     0.64223   0.02312  -0.04703
C     1.56779   0.98149   0.74762
C     1.19965   2.29946   1.05618
C     2.00447   3.10823   1.86054
C     3.19302   2.60859   2.39939
C     3.55872   1.28822   2.13021
C     2.75330   0.48754   1.31539
C     1.47705  -1.07095  -0.73142
C     1.09074  -2.41370  -0.70117
C     1.80678  -3.37962  -1.41759
C     2.91261  -3.01101  -2.18567
C     3.30022  -1.66678  -2.23000
C     2.59144  -0.70762  -1.50599
C    -0.21540   0.73835  -1.17105
C     0.44153   1.94178  -1.66591
N     1.00316   2.83941  -2.14019
C    -0.58010  -0.15070  -2.46348
C    -1.16523   0.81823  -3.47934
C    -2.38163   1.11880  -3.01319
C    -2.54218   0.29615  -1.74984
O    -1.73291  -0.85466  -2.01299
C    -1.67916   0.91849  -0.59583
Cl   -2.15080   2.65343  -0.36771
H    -3.36350  -3.06927   0.64100
H    -1.88797  -2.65546  -0.29530
H    -1.79599  -2.77219   1.46805
H    -3.34586   2.33801   2.96406
H    -3.84569   0.62302   2.93892
H    -4.05119   1.59617   1.47376
H     0.64589  -0.41562   2.70684
H    -0.81529  -1.40776   2.69737
H     0.65763  -2.01139   1.91398
H     0.26697   2.71905   0.68586
H     1.69238   4.13388   2.07073
H     3.82330   3.24047   3.02962
H     4.47494   0.87223   2.55593
H     3.05623  -0.54245   1.12876
H     0.21403  -2.70493  -0.12797
H     1.49005  -4.42447  -1.37654
H     3.46965  -3.76346  -2.74880
H     4.16021  -1.36305  -2.83158
H     2.90511   0.33656  -1.55361
H     0.21338  -0.82232  -2.79101
H    -0.63170   1.22764  -4.33554
H    -3.11262   1.83077  -3.39241
H    -3.55932   0.03420  -1.45828
