41
Generated by autodE on: 2022-06-08. E = -941.101517 Ha
C     4.00856   0.62443  -1.51192
C     2.69633  -0.11745  -1.39781
O     2.22781  -0.67832  -2.41828
C     1.99605  -0.15016  -0.15406
C     2.36584   0.50257   1.06735
C     1.53813   0.24027   2.31768
O     3.34106   1.27740   1.16101
N     0.80177  -0.96863  -0.13754
C     1.04555  -2.41718  -0.17946
C    -0.39693  -0.44488  -0.01982
C    -0.62187   0.99014  -0.28601
C    -1.41868   1.74425   0.59200
C    -1.66620   3.09258   0.32845
C    -1.15125   3.68451  -0.82795
C    -0.38440   2.92682  -1.72267
C    -0.11001   1.58857  -1.45275
C    -1.56476  -1.24799   0.38391
C    -1.49655  -2.13519   1.47476
C    -2.63359  -2.83369   1.87739
C    -3.83976  -2.67135   1.18750
C    -3.91447  -1.79091   0.10286
C    -2.78918  -1.06711  -0.28717
H     3.85028   1.70615  -1.38138
H     4.42536   0.43516  -2.51125
H     4.72375   0.31866  -0.73543
H     1.18837  -0.79824   2.39955
H     0.65109   0.89443   2.33451
H     2.15441   0.48912   3.19216
H     1.80673  -2.59210  -0.94790
H     0.13240  -2.96257  -0.43941
H     1.42832  -2.75767   0.79236
H    -1.82828   1.27532   1.48809
H    -2.26977   3.67881   1.02444
H    -1.35520   4.73652  -1.04010
H    -0.00025   3.38277  -2.63765
H     0.47273   0.99063  -2.15368
H    -0.56359  -2.25567   2.02552
H    -2.57836  -3.50688   2.73532
H    -4.72625  -3.22742   1.50080
H    -4.85576  -1.66097  -0.43507
H    -2.84754  -0.37000  -1.12445
