14
Generated by autodE on: 2022-06-08. E = -859.428384 Ha
N     3.04166  -1.19047  -0.31103
C     1.94803  -0.86500  -0.07116
C     0.62724  -0.49121   0.23281
C    -0.01298   0.66931  -0.01555
Cl    0.55114   2.07713  -0.79091
C    -1.47287   0.45226   0.44889
C    -2.09988  -0.54775  -0.54709
C    -1.48636  -1.70729  -0.29590
C    -0.49189  -1.39661   0.84220
O    -1.22450  -0.40181   1.57363
H    -2.03613   1.35382   0.70881
H    -2.83481  -0.29059  -1.30811
H    -1.58340  -2.67166  -0.79232
H    -0.14875  -2.22142   1.47355
