43
Generated by autodE on: 2022-06-20. E = -975.624007 Ha
C     3.35131   2.80488   1.46032
N     2.42103   1.93792   0.76755
C     2.82409   0.98794  -0.08686
O     4.01270   0.77921  -0.36333
C     1.72525   0.12021  -0.69550
N     0.41397   0.75951  -0.63533
C     0.17145   1.78552  -1.63475
C    -0.62944  -0.24837  -0.46346
C    -0.95260  -0.86199  -1.78345
N    -1.12637  -1.23704  -2.86800
C    -1.89664   0.33101   0.17321
C    -1.75941   1.24069   1.23157
C    -2.88844   1.76003   1.86670
C    -4.16862   1.37543   1.45284
C    -4.30934   0.46926   0.39949
C    -3.17836  -0.05022  -0.23855
C     0.08568  -1.25823   0.46289
C    -0.54727  -2.60926   0.59773
O    -1.55972  -2.96130   0.02743
C     1.58325  -1.27886   0.01867
C     1.88743  -2.39738  -0.98845
C     2.47947  -1.45485   1.24860
H     3.98200   2.23666   2.16377
H     4.01730   3.31722   0.74850
H     2.78753   3.55896   2.02325
H     1.41800   2.02535   0.90943
H     2.04210  -0.05293  -1.74010
H     0.18843   1.38757  -2.66847
H     0.94379   2.56326  -1.55738
H    -0.80542   2.25755  -1.45636
H    -0.76218   1.54415   1.55397
H    -2.76764   2.47012   2.68811
H    -5.05228   1.78331   1.94910
H    -5.30381   0.16332   0.06660
H    -3.30276  -0.75719  -1.06013
H     0.05271  -0.81915   1.47404
H    -0.02190  -3.29666   1.29996
H     1.78127  -3.38951  -0.52288
H     1.22907  -2.35482  -1.86732
H     2.92599  -2.29848  -1.33905
H     2.25062  -2.41278   1.73994
H     2.32011  -0.65120   1.98140
H     3.54056  -1.46129   0.96432
