29
Generated by autodE on: 2022-07-27. E = -704.876991 Ha
C     5.35210   0.88342  -0.81025
N     4.09235   0.17823  -0.72062
C     2.93918   0.82767  -0.41011
O     2.93824   2.05191  -0.18186
C     1.77940  -0.05992  -0.35934
N     0.50925   0.29697  -0.15484
C     0.17728   1.72220   0.08170
C    -0.53246  -0.59726  -0.23423
C    -0.26782  -1.85167  -0.81923
N    -0.07363  -2.89437  -1.31553
C    -1.87425  -0.37290   0.32817
C    -2.08111   0.27792   1.56353
C    -3.36810   0.43210   2.07970
C    -4.47502  -0.07886   1.39404
C    -4.28133  -0.75006   0.18184
C    -2.99906  -0.89318  -0.34684
H     6.15330   0.15792  -0.99702
H     5.57380   1.42225   0.12475
H     5.34949   1.62367  -1.62817
H     4.06589  -0.81163  -0.93953
H     1.95347  -1.12537  -0.50688
H    -0.89811   1.86245  -0.03654
H     0.49665   2.01984   1.08678
H     0.72077   2.32291  -0.65091
H    -1.22987   0.64929   2.13572
H    -3.50416   0.94202   3.03644
H    -5.48023   0.03830   1.80510
H    -5.13664  -1.15822  -0.36188
H    -2.86033  -1.40871  -1.29986
