23
Generated by autodE on: 2022-06-02. E = -646.321509 Ha
C     3.35638  -2.22599  -0.62629
N     2.63018  -1.03357  -0.24532
C     1.28825  -0.98572  -0.28216
O     0.57881  -1.94056  -0.63613
C     0.67283   0.30763   0.13490
N    -0.64388   0.31789   0.07890
C    -1.80740   0.20721  -0.01489
C    -3.23760   0.06991  -0.11582
C    -3.69722  -1.27291  -0.60621
O    -3.96991   1.00334   0.18335
C     1.36742   1.51186   0.58154
C     0.52403   2.70359   0.95633
O     2.60173   1.55385   0.65066
H     4.43109  -2.03762  -0.51352
H     3.15534  -2.50376  -1.67380
H     3.08084  -3.08551   0.00617
H     3.11097  -0.18777   0.06430
H    -4.38935  -1.69913   0.13720
H    -2.85837  -1.96202  -0.77622
H    -4.25410  -1.12771  -1.54605
H    -0.16843   2.44650   1.77378
H    -0.08867   3.02922   0.10038
H     1.17925   3.52455   1.27307
