51
Generated by autodE on: 2022-06-02. E = -1242.634789 Ha. Imaginary frequency = -362.5 cm-1
C    -4.14668  -0.99672  -0.63865
N    -3.00915  -0.98776   0.25318
C    -1.83850  -1.56926  -0.05047
O    -1.62701  -2.20141  -1.09747
C    -0.74547  -1.39970   0.95748
C    -0.92098  -0.84758   2.29535
C     0.08611  -1.15733   3.37252
O    -1.89366  -0.12243   2.55870
N     0.36809  -2.08534   0.64221
C     1.37908  -1.96555  -0.00526
C     2.53298  -2.84521  -0.35331
C     2.37687  -3.65519  -1.59708
O     3.51367  -2.81198   0.36427
C     1.53259   0.04634  -0.68128
C     1.57286  -0.21347  -2.08590
N     1.69759  -0.45519  -3.21856
C     2.84951   0.50226  -0.01266
C     3.01472   2.00894  -0.35750
C     1.89012   2.68079   0.48201
C     1.17626   1.45807   1.15117
C     2.39664   0.56944   1.44916
C     0.48522   0.75547  -0.01513
C    -0.77476   1.25312  -0.56177
C    -1.25959   0.89105  -1.83939
C    -2.45225   1.41579  -2.32882
C    -3.20648   2.30855  -1.55932
C    -2.75426   2.66366  -0.28571
C    -1.55693   2.14593   0.20696
H    -4.85036  -1.81138  -0.39369
H    -3.80947  -1.13292  -1.67356
H    -4.68222  -0.04115  -0.56193
H    -3.02621  -0.44665   1.12008
H     0.87449  -1.85091   3.05926
H    -0.46090  -1.59325   4.22326
H     0.53807  -0.21740   3.72447
H     1.41748  -4.19571  -1.57544
H     3.22258  -4.34724  -1.70205
H     2.33890  -2.96792  -2.45985
H     3.71348  -0.12802  -0.25135
H     2.91400   2.19233  -1.43707
H     4.01215   2.35446  -0.04964
H     1.19852   3.28373  -0.12115
H     2.30698   3.32675   1.26850
H     0.53315   1.71824   1.99785
H     2.16280  -0.40847   1.88073
H     3.12849   1.07652   2.09361
H    -0.71341   0.17880  -2.45236
H    -2.80105   1.11809  -3.32023
H    -4.14209   2.71720  -1.94741
H    -3.33635   3.35217   0.33123
H    -1.22559   2.43735   1.20228
