23
Generated by autodE on: 2022-06-21. E = -351.521382 Ha
C     3.69331   0.00156  -0.81246
C     2.57418   0.22869  -0.09014
C     2.63792   0.87248   1.27137
C     1.26920  -0.15382  -0.62583
C     0.07742   0.01389   0.00062
C    -1.19058  -0.38560  -0.57493
C    -2.41891  -0.25940  -0.01195
C    -3.64900  -0.72523  -0.73824
C    -2.67424   0.33316   1.34478
H     4.68212   0.27733  -0.43546
H     3.64378  -0.46608  -1.80069
H     2.05107   1.80571   1.29755
H     3.67408   1.10795   1.55242
H     2.21116   0.21136   2.04391
H     1.27648  -0.61521  -1.62073
H     0.06269   0.47211   0.99319
H    -1.13622  -0.83759  -1.57274
H    -3.41377  -1.14909  -1.72555
H    -4.36151   0.10791  -0.87610
H    -4.18558  -1.49017  -0.14841
H    -1.76457   0.66849   1.85930
H    -3.18394  -0.40220   1.99227
H    -3.36054   1.19449   1.26254
