24
Generated by autodE on: 2022-06-21. E = -664.304346 Ha
C    -3.17280  -2.20261  -0.95791
N    -1.87162  -1.62566  -0.67808
C    -1.75600  -0.43702  -0.06162
O    -2.72637   0.22527   0.31622
C    -0.34988   0.04825   0.20329
N    -0.27746   0.96842   1.09139
C    -0.27726   1.73368   2.04152
C    -0.36778   3.12561   2.10127
N    -0.42941   4.27368   2.31613
C     0.88667  -0.46367  -0.42629
C     2.07056  -0.54291   0.33102
C     3.24923  -1.00708  -0.25053
C     3.26597  -1.39405  -1.59533
C     2.09716  -1.30671  -2.35698
C     0.91304  -0.84175  -1.78171
H    -3.03336  -3.12045  -1.54139
H    -3.71175  -2.44849  -0.02857
H    -3.79428  -1.50149  -1.53536
H    -1.03869  -2.15435  -0.91356
H     2.06025  -0.24552   1.38174
H     4.15935  -1.07063   0.35006
H     4.18998  -1.75919  -2.04914
H     2.10607  -1.59367  -3.41077
H     0.01455  -0.75435  -2.39358
