47
Generated by autodE on: 2022-06-21. E = -1015.829439 Ha. Imaginary frequency = -319.7 cm-1
C     4.07261   0.80203  -1.81473
C     3.45283  -0.16905  -1.10439
C     4.18214  -0.93157  -0.02801
C     2.04899  -0.46473  -1.34586
C     1.30099  -1.36262  -0.64352
C    -0.09571  -1.58895  -0.86285
C    -0.88914  -2.47186  -0.12956
C    -2.25586  -2.82568  -0.67285
C    -0.27962  -3.50846   0.78756
C    -1.61054  -1.10536   1.50033
C    -2.35579  -1.68905   2.53599
N    -2.91935  -2.33806   3.32775
N    -1.42465   0.07471   1.20259
C    -0.96816   0.85855   0.23773
C    -1.84738   1.01574  -0.96602
O    -1.39425   1.38419  -2.05914
N    -3.15041   0.70679  -0.80560
C    -4.04243   0.62050  -1.94518
C     0.26808   1.60376   0.42965
C     0.65525   2.66280  -0.42004
C     1.87701   3.30729  -0.23604
C     2.74334   2.91442   0.78940
C     2.36877   1.87043   1.64409
C     1.15080   1.22160   1.46592
H     3.53777   1.36819  -2.58299
H     5.12203   1.05524  -1.64167
H     5.22982  -0.60821   0.04825
H     3.70280  -0.78144   0.95318
H     4.16665  -2.01611  -0.22565
H     1.55896   0.11522  -2.13576
H     1.77958  -1.91788   0.16694
H    -0.55212  -1.07382  -1.71068
H    -2.96649  -3.08152   0.12871
H    -2.17555  -3.71754  -1.32085
H    -2.68069  -2.00755  -1.27149
H    -1.02561  -3.89644   1.49699
H     0.57054  -3.12160   1.36529
H     0.07884  -4.36693   0.19161
H    -3.48888   0.39861   0.09877
H    -3.67292  -0.10742  -2.68548
H    -4.14215   1.59502  -2.44817
H    -5.03138   0.30092  -1.59531
H    -0.00251   2.97260  -1.22853
H     2.15808   4.12313  -0.90594
H     3.70219   3.41943   0.92491
H     3.03636   1.55334   2.44825
H     0.87717   0.40019   2.13029
