35
Generated by autodE on: 2022-10-06. E = -1044.695369 Ha
C    -4.45582   1.26155   1.05506
N    -3.32042   1.00850   0.19396
C    -2.06739   1.31745   0.56631
O    -1.79062   1.92561   1.61029
C    -1.00061   0.82876  -0.40336
N     0.33268   1.27543  -0.01798
C     1.24381   0.25631  -0.57446
C     1.45812   0.47134  -2.08126
C     2.61996   0.32021   0.08203
O     3.39892  -0.64262   0.02954
N     2.95981   1.49166   0.64431
C     4.24129   1.69295   1.28856
C     0.53008  -1.10142  -0.31866
C     0.78497  -1.63404   1.10290
O     0.95215  -2.87197   1.24424
O     0.77141  -0.78561   2.04312
C    -0.96297  -0.74296  -0.48701
C    -1.67014  -1.23627  -1.76473
O    -2.86355  -0.82540  -1.91285
O    -1.06454  -1.98293  -2.56789
H    -5.38145   1.05108   0.50365
H    -4.47408   2.31278   1.38035
H    -4.43951   0.63191   1.96211
H    -3.39495   0.35744  -0.60632
H    -1.25421   1.22235  -1.39916
H     0.37021   1.13118   0.99646
H     1.82526   1.49021  -2.27705
H     2.19832  -0.24976  -2.45681
H     0.52753   0.31673  -2.64426
H     2.25995   2.22607   0.65789
H     5.07193   1.51090   0.58839
H     4.30297   2.72769   1.64741
H     4.36982   1.01303   2.14674
H     0.81904  -1.86487  -1.04888
H    -1.54374  -1.15968   0.35070
