52
Generated by autodE on: 2022-10-22. E = -1263.033356 Ha
C    -3.19653   1.04001   3.04483
N    -2.67073   0.32359   1.89823
C    -1.91572   0.93532   0.97547
O    -1.73257   2.15434   0.96961
C    -1.29190   0.04565  -0.15620
C    -2.39018  -0.93802  -0.59261
C    -3.25805  -0.53402  -1.74755
O    -2.59307  -1.95902   0.04594
N    -0.84102   0.87356  -1.26675
C     0.46194   1.43194  -0.91184
C     1.24623   2.07038  -2.03880
C     0.47944   2.57344  -3.22627
O     2.44946   2.24660  -1.90630
C     1.19940   0.32275  -0.13945
C     1.91155   0.96099   1.05530
O     1.49883   1.93716   1.65052
O     3.04921   0.35389   1.38876
C     3.75633   0.87943   2.52032
C     2.11391  -0.65208  -0.94166
C     1.45110  -1.04620  -2.27561
C     0.27478  -1.95536  -1.83008
C     0.41599  -1.99618  -0.29530
C     1.94587  -1.96136  -0.14197
C     0.03417  -0.64360   0.36306
O     0.09544  -0.68467   1.77768
C    -0.30162  -1.85552   2.47639
H    -2.38656   1.38157   3.71052
H    -3.76741   1.92314   2.72214
H    -3.86037   0.37217   3.60721
H    -2.74869  -0.68747   1.87624
H    -4.03361  -1.29180  -1.91452
H    -2.65775  -0.38835  -2.65635
H    -3.72650   0.43819  -1.51732
H    -1.50929   1.62232  -1.44453
H     0.33379   2.27307  -0.20758
H    -0.30201   3.27399  -2.88664
H     1.15316   3.07600  -3.93198
H    -0.04027   1.73858  -3.72100
H     4.64880   0.25364   2.63511
H     3.13049   0.82126   3.42238
H     4.04402   1.92536   2.34179
H     3.13416  -0.27158  -1.05037
H     2.17776  -1.60344  -2.88494
H     1.11775  -0.19386  -2.87872
H     0.39001  -2.97825  -2.21714
H    -0.69447  -1.58755  -2.18279
H    -0.10593  -2.84399   0.15723
H     2.28163  -1.89471   0.89889
H     2.43689  -2.81806  -0.62707
H    -1.25305  -2.26262   2.10474
H    -0.42369  -1.55796   3.52728
H     0.46855  -2.64259   2.42201
