25
Generated by autodE on: 2022-10-22. E = -647.575839 Ha
C    -3.81927  -1.48634   0.22131
N    -2.81211  -0.45262   0.11506
C    -1.50539  -0.74062   0.09979
O    -1.06843  -1.90846   0.17612
C    -0.53956   0.39158  -0.01398
N     0.72452  -0.08501  -0.01207
C     1.95801   0.36667  -0.08307
C     3.01504  -0.64789  -0.03357
C     4.42813  -0.14944  -0.11774
O     2.73122  -1.84337   0.07152
C    -0.91500   1.79153  -0.11313
C     0.14863   2.85046  -0.22724
O    -2.11139   2.13081  -0.10564
H    -3.76352  -2.19230  -0.62320
H    -4.81043  -1.01657   0.22127
H    -3.70406  -2.06693   1.15088
H    -3.05267   0.53816   0.04682
H     0.68297  -1.12776   0.07128
H     2.18700   1.42312  -0.17311
H     4.62665   0.55407   0.70768
H     4.57184   0.41112  -1.05627
H     5.13213  -0.98995  -0.07170
H    -0.33933   3.83121  -0.28770
H     0.76458   2.69430  -1.12745
H     0.82088   2.83144   0.64555
