27
Generated by autodE on: 2022-10-22. E = -615.427522 Ha
C     3.52600  -1.09149  -0.31072
O     2.09924  -1.04107  -0.38617
C     1.51999   0.15967  -0.13925
O     2.19310   1.14144   0.14845
C     0.07804   0.09385  -0.32258
C    -0.94592   0.82825   0.21883
O    -1.03120   1.76525   1.15864
C     0.07956   2.06663   2.00803
C    -2.25301   0.25194  -0.28170
C    -2.41075  -1.10731   0.47845
C    -1.28333  -1.98395  -0.13949
C    -0.60920  -1.00433  -1.14549
C    -1.83539  -0.23773  -1.67782
H     3.80697  -2.12403  -0.55122
H     3.87464  -0.83330   0.70042
H     3.98167  -0.39927  -1.03460
H    -0.31296   2.71951   2.79771
H     0.47668   1.14061   2.45179
H     0.87688   2.57345   1.45133
H    -3.10803   0.93272  -0.18849
H    -2.31394  -0.97396   1.56549
H    -3.40750  -1.52675   0.27791
H    -0.56327  -2.34991   0.60576
H    -1.69891  -2.85602  -0.66693
H     0.03952  -1.48457  -1.88658
H    -1.56874   0.58133  -2.36174
H    -2.58722  -0.88967  -2.14808
