39
Generated by autodE on: 2022-06-20. E = -1027.359635 Ha
C    -0.95867  -2.23581   1.99489
N    -1.02978  -1.14758   1.03361
C    -1.55883   0.06196   1.35101
C    -1.78187   1.07531   0.46687
C    -2.28359   2.34682   1.00995
N    -2.46033   3.35727   0.12121
O    -2.53619   2.52197   2.21949
C    -1.47766   0.90774  -1.00025
C    -1.24227  -0.56284  -1.38087
C    -0.23785  -0.69839  -2.52847
C    -0.39507  -1.96078  -3.27752
N    -0.50904  -2.95655  -3.86116
O     1.05849  -0.65373  -1.92400
C     1.00281  -1.00581  -0.54073
C     1.84253  -2.20565  -0.35115
N     2.49723  -3.15245  -0.20694
C     1.53025   0.12961   0.33064
C     1.80516   1.38402  -0.22384
C     2.22106   2.43653   0.59605
C     2.37311   2.24037   1.97118
C     2.12690   0.97876   2.52217
C     1.71399  -0.07515   1.70544
C    -0.53084  -1.37553  -0.28696
H     0.03565  -2.70665   1.98055
H    -1.14353  -1.84478   3.00365
H    -1.70831  -3.01539   1.77444
H    -1.81570   0.19981   2.40279
H    -2.78782   4.25246   0.46697
H    -2.24571   3.26831  -0.86353
H    -0.60226   1.51587  -1.28196
H    -2.31332   1.27994  -1.61461
H    -2.19463  -1.05086  -1.62431
H    -0.30389   0.13268  -3.24628
H     1.68859   1.53660  -1.29614
H     2.42697   3.41426   0.15453
H     2.69305   3.06559   2.61153
H     2.25803   0.81177   3.59360
H     1.53749  -1.05757   2.14521
H    -0.63950  -2.44435  -0.51626
