19
Generated by autodE on: 2022-07-27. E = -569.540448 Ha
N    -1.77417  -1.70944  -3.60088
C    -1.72766  -0.78154  -2.88747
C    -1.74476   0.36754  -2.08943
O    -1.01886   0.53392  -1.00675
C    -0.12766  -0.17341  -0.35991
C     0.27410  -1.44573  -0.84003
N     0.64809  -2.49321  -1.19056
C     0.42243   0.39602   0.85798
C     0.01790   1.67464   1.30033
C     0.54659   2.20664   2.47261
C     1.48046   1.48172   3.22455
C     1.88530   0.21454   2.79157
C     1.36516  -0.32826   1.61850
H    -2.38734   1.21559  -2.32123
H    -0.71000   2.24266   0.71978
H     0.22750   3.19695   2.80522
H     1.89010   1.90427   4.14455
H     2.61210  -0.35742   3.37243
H     1.68698  -1.31847   1.28995
