19
Generated by autodE on: 2022-06-20. E = -569.543892 Ha
N     3.72471   1.13664  -2.56507
C     3.18377   0.62014  -1.66365
C     2.57693  -0.01100  -0.57474
O     1.27145   0.11695  -0.46857
C     0.44851  -0.35909   0.43614
C     0.98699  -1.13964   1.48856
N     1.45876  -1.77897   2.34241
C    -0.96205  -0.05694   0.30593
C    -1.88033  -0.54457   1.26065
C    -3.23760  -0.25593   1.13816
C    -3.70175   0.51875   0.06943
C    -2.79485   1.00586  -0.88114
C    -1.43648   0.72470  -0.77047
H     3.13439  -0.58788   0.16582
H    -1.52632  -1.14930   2.09843
H    -3.93839  -0.63898   1.88304
H    -4.76650   0.74323  -0.02369
H    -3.15209   1.61128  -1.71715
H    -0.73446   1.10612  -1.51304
