52
Generated by autodE on: 2022-06-26. E = -1296.401634 Ha
C     3.02032   3.25724  -0.94251
N     2.08757   2.22798  -0.52786
C     2.49202   0.98003  -0.27552
O     3.67162   0.60978  -0.31595
C     1.36366  -0.02217   0.08305
C     2.03875  -1.40869   0.18441
O     2.02786  -2.22881  -0.70888
O     2.60719  -1.61176   1.36698
C     3.24395  -2.88019   1.59069
C     0.61353   0.40152   1.37416
C     1.36527   0.24378   2.66960
O     0.89379  -0.15565   3.71468
C    -0.80423  -0.18932   1.22627
C    -0.83884  -1.68653   1.58232
C    -1.83115   0.54697   2.08898
C    -1.02699   0.05235  -0.33839
C    -1.97964  -1.04333  -0.86321
O    -3.20866  -0.98198  -0.68469
N    -1.38917  -2.08538  -1.45477
C    -2.12380  -3.27820  -1.82398
C    -1.55207   1.49852  -0.57592
O    -0.75301   2.45112  -0.52873
N    -2.85016   1.67598  -0.81161
C    -3.42509   2.99674  -0.97109
N     0.30060  -0.08519  -0.90109
C     0.54719   0.23779  -2.29357
H     3.82942   3.37567  -0.20553
H     3.48088   3.01709  -1.91528
H     2.48148   4.20860  -1.03263
H     1.07492   2.40998  -0.54898
H     4.07676  -3.01313   0.88609
H     2.51691  -3.69482   1.46521
H     3.61417  -2.85274   2.62144
H     0.51094   1.49745   1.30487
H     2.40952   0.62901   2.63188
H    -0.18976  -2.30234   0.94806
H    -0.51792  -1.81496   2.62308
H    -1.86163  -2.07947   1.49384
H    -2.84967   0.22356   1.83038
H    -1.65446   0.31731   3.14842
H    -1.76655   1.63772   1.96626
H    -0.37034  -2.09067  -1.45379
H    -3.04237  -3.00838  -2.36393
H    -1.49541  -3.89931  -2.47438
H    -2.40819  -3.86776  -0.93575
H    -3.43443   0.83669  -0.77781
H    -4.48113   2.89373  -1.24887
H    -3.35832   3.57888  -0.03716
H    -2.90119   3.55963  -1.75819
H     0.51578   1.31956  -2.51179
H    -0.20210  -0.25449  -2.92994
H     1.53228  -0.14954  -2.58877
