14
Generated by autodE on: 2022-06-26. E = -270.683217 Ha
C    -0.99655   1.13453   0.49393
C    -0.80999  -0.30595   0.11230
C    -2.02561  -1.17387   0.19678
C     0.38184  -0.82745  -0.28847
C     1.63416  -0.09632  -0.40879
O     1.81989   1.09107  -0.15167
H    -2.04947   1.35119   0.72223
H    -0.38590   1.38504   1.37677
H    -0.65468   1.80615  -0.30840
H    -1.82281  -2.21707  -0.08206
H    -2.43511  -1.14595   1.22196
H    -2.81980  -0.77224  -0.45699
H     0.43261  -1.88806  -0.55146
H     2.48873  -0.71576  -0.77481
