38
Generated by autodE on: 2022-07-27. E = -1025.650931 Ha
C    -0.08838  -2.66393  -2.10390
N    -0.37961  -1.30479  -1.68918
C    -1.13528  -1.05317  -0.60557
O    -1.79577  -1.91468  -0.01381
C    -1.22922   0.41519  -0.24411
C    -2.58951   1.05077  -0.11631
O    -2.78059   2.25522  -0.31175
N    -3.55932   0.19499   0.23931
C    -4.92231   0.64426   0.43365
N    -0.11630   1.10518  -0.13308
C    -0.04643   2.57511  -0.24516
C     1.05682   0.42791   0.24734
C     2.19020   0.61447  -0.66308
O     1.96623   1.00739  -1.83243
N     3.44169   0.33145  -0.24785
C     4.55781   0.33374  -1.16993
C     0.96008  -0.40267   1.42488
O    -0.05726  -0.61535   2.08226
O     2.15684  -0.92223   1.80100
C     2.16670  -1.72065   2.98826
H     0.31407  -2.64675  -3.12420
H     0.65067  -3.13952  -1.43638
H    -1.00572  -3.26727  -2.08961
H     0.23124  -0.56261  -2.03189
H    -3.29670  -0.77877   0.40274
H    -5.54920  -0.22196   0.67556
H    -5.31050   1.12645  -0.47695
H    -4.98869   1.37460   1.25629
H    -0.53483   3.02378   0.62970
H    -0.54939   2.91219  -1.15569
H     1.01121   2.85285  -0.25024
H     3.55008  -0.06668   0.67905
H     4.70855   1.32975  -1.61468
H     5.46760   0.05408  -0.62441
H     4.40841  -0.38155  -1.99655
H     1.88193  -1.12151   3.86570
H     1.47665  -2.57132   2.89082
H     3.19646  -2.08088   3.09902
