52
Generated by autodE on: 2022-06-26. E = -1296.310655 Ha. Imaginary frequency = -295.1 cm-1
C     4.56662   1.69290  -0.97095
N     3.23536   1.27318  -0.57049
C     2.50895   0.48214  -1.36511
O     2.84562   0.14705  -2.50587
C     1.18724  -0.04558  -0.80750
C     1.36090  -1.39684  -0.19384
O     0.50985  -2.21072   0.10051
O     2.66509  -1.60607   0.03718
C     3.01674  -2.80556   0.73980
C     0.57467   0.81563   1.29234
C     1.57440   0.18749   2.11487
O     2.72665   0.62354   2.24498
C    -0.82091   0.52919   1.36205
C    -1.32258  -0.67235   2.12555
C    -1.70184   1.74707   1.54008
C    -1.20968   0.04289  -0.84590
C    -1.55804  -1.41915  -1.08091
O    -2.40361  -2.02784  -0.41018
N    -1.03169  -1.95688  -2.20064
C    -1.19056  -3.36870  -2.48940
C    -2.40471   0.94443  -1.06140
O    -2.32617   2.13966  -1.37439
N    -3.60321   0.37782  -0.80670
C    -4.80915   1.17736  -0.78938
N     0.04050   0.44172  -1.34770
C     0.18634   1.67282  -2.15819
H     4.53718   2.17497  -1.95824
H     4.94722   2.41080  -0.23414
H     5.26005   0.83700  -1.02778
H     3.00506   1.31473   0.42739
H     2.53854  -2.82035   1.72975
H     2.70658  -3.69061   0.16670
H     4.10704  -2.78016   0.84428
H     0.84870   1.81777   0.94799
H     1.27999  -0.73572   2.65756
H    -2.36028  -0.89340   1.84718
H    -1.31348  -0.43517   3.20431
H    -0.72351  -1.57268   1.95977
H    -1.59429   2.08132   2.58689
H    -2.76440   1.51867   1.38541
H    -1.41094   2.57903   0.88853
H    -0.27619  -1.46238  -2.66284
H    -0.74571  -3.58279  -3.46904
H    -0.69454  -3.99305  -1.72733
H    -2.25539  -3.64052  -2.51523
H    -3.61619  -0.58405  -0.46990
H    -5.65881   0.52928  -0.54100
H    -4.99434   1.64296  -1.77006
H    -4.74782   1.98578  -0.04158
H     0.28140   2.55704  -1.51439
H    -0.68415   1.78564  -2.80256
H     1.07459   1.56334  -2.78376
