16
Generated by autodE on: 2022-10-22. E = -546.541814 Ha
C    -4.16506   0.66830  -0.16733
O    -2.77856   0.95531  -0.41010
C    -1.89563   0.07609   0.05865
O    -2.17931  -0.94087   0.67210
C    -0.51930   0.47351  -0.25124
N     0.42536  -0.32994   0.16751
C     1.78091  -0.24204   0.04456
C     2.58776  -1.26374   0.58827
N     3.26963  -2.10101   1.03218
C     2.36042   0.86004  -0.61834
N     2.82869   1.77628  -1.16911
H    -4.44520  -0.28549  -0.63743
H    -4.72633   1.49456  -0.61752
H    -4.36098   0.61661   0.91343
H    -0.27774   1.38474  -0.79759
H     0.07623  -1.15971   0.67156
