16
Generated by autodE on: 2022-10-26. E = -546.541828 Ha
C    -0.56468  -4.16676   0.37009
O    -0.37651  -2.91977  -0.31694
C    -0.26376  -1.83017   0.44051
O    -0.31193  -1.81783   1.66020
C    -0.07058  -0.62841  -0.37525
N     0.05717   0.50563   0.26602
C     0.24491   1.76980  -0.21272
C     0.32586   1.99443  -1.60332
N     0.39056   2.16890  -2.75551
C     0.35546   2.84122   0.69805
N     0.44931   3.73876   1.43884
H    -0.64646  -4.93081  -0.41108
H     0.29576  -4.37712   1.02172
H    -1.48358  -4.13644   0.97313
H    -0.03086  -0.65893  -1.46369
H     0.00304   0.42067   1.29247
