47
Generated by autodE on: 2022-10-22. E = -1739.912279 Ha. Imaginary frequency = -235.5 cm-1
C    -2.99899  -3.86216   0.76714
O    -2.73390  -2.61119   0.11314
C    -2.54767  -1.55637   0.89300
O    -2.68487  -1.54223   2.10192
C    -2.16734  -0.36103   0.10534
N    -2.34657   0.79740   0.72030
C    -2.00239   2.00645   0.19228
C    -2.15753   2.23489  -1.20706
N    -2.27127   2.40848  -2.35252
C    -1.99559   3.10986   1.09378
N    -1.97680   3.97742   1.86869
C     0.22846   1.29197  -0.23331
C     0.21810   0.05367  -0.10491
C     1.16082  -1.10414  -0.07815
C     0.67776  -2.31823  -0.92005
F     1.71111  -3.06541  -1.33424
F    -0.13357  -3.14099  -0.23767
F     0.01228  -1.91155  -2.01065
C     1.34813  -1.55689   1.39437
F     2.10171  -2.66591   1.46622
F     1.96177  -0.60506   2.11136
F     0.18620  -1.81848   2.00718
C     2.54853  -0.61088  -0.59658
C     2.65507  -0.21232  -2.07454
C     1.65744   0.78853  -2.67175
C     1.60296   2.21356  -2.12014
C     1.10967   2.42907  -0.65062
C     0.45084   3.76461  -0.62711
N     0.01695   4.83910  -0.65559
O     2.25076   2.49579   0.18697
C     1.98579   2.70418   1.57256
H    -3.05732  -4.61143  -0.02994
H    -2.18306  -4.10336   1.46307
H    -3.95006  -3.81133   1.31596
H    -2.15966  -0.40374  -0.98170
H    -2.45699   0.74687   1.73999
H     3.28377  -1.40425  -0.39990
H     2.81697   0.24432   0.03194
H     3.67331   0.19281  -2.19815
H     2.61900  -1.11888  -2.69834
H     0.64288   0.36655  -2.67829
H     1.92910   0.90011  -3.73428
H     0.93073   2.78699  -2.77392
H     2.58968   2.70028  -2.15956
H     2.96242   2.75155   2.07096
H     1.44747   3.65335   1.73761
H     1.39777   1.87720   1.99891
