9
Generated by autodE on: 2022-10-21. E = -321.369908 Ha
C    -1.59573  -1.53625  -0.19460
C    -1.11921  -0.14536   0.07890
O    -1.83217   0.79626   0.36897
C     0.33177   0.05544  -0.02196
N     1.47407   0.29207  -0.08091
O     2.65145   0.52504  -0.14458
H    -1.10790  -2.23614   0.50373
H    -1.29575  -1.83315  -1.21327
H    -2.68711  -1.58537  -0.08731
