24
Generated by autodE on: 2022-10-21. E = -426.769852 Ha
C     2.52904  -1.46552   0.56369
O     1.71720  -0.35734   0.93333
C     0.67310  -0.05052   0.10840
C     0.06377   1.15301   0.05112
C     0.36996   2.39049   0.82545
C    -1.21163   0.92858  -0.75400
C    -2.16921   0.09103   0.15608
C    -1.44742  -1.28680   0.23793
C    -0.17560  -1.06502  -0.64703
C    -0.75018  -0.15550  -1.74890
H     3.37846  -1.48196   1.26024
H     2.91058  -1.36028  -0.46624
H     1.98193  -2.41900   0.64876
H     0.41271   3.28055   0.17360
H     1.33057   2.30593   1.35576
H    -0.41317   2.59375   1.57952
H    -1.66621   1.83665  -1.17432
H    -2.30518   0.56326   1.14024
H    -3.16299  -0.00592  -0.30845
H    -1.17671  -1.57292   1.26473
H    -2.06899  -2.09243  -0.18217
H     0.32539  -1.98738  -0.96411
H    -1.57897  -0.62320  -2.30408
H     0.01524   0.20354  -2.45265
