22
Generated by autodE on: 2022-07-27. E = -550.237676 Ha
C    -1.50419  -2.50321   0.20944
N    -0.72477  -1.66233  -0.40736
C    -0.12685  -0.45546  -0.13586
C     0.77183  -0.08101  -1.23815
O     0.85013  -0.81813  -2.25348
N     1.49138   1.04964  -1.12548
C     2.40052   1.48225  -2.16268
C    -0.37453   0.37457   1.02875
O     0.35073   1.36121   1.30387
N    -1.43083   0.07260   1.83833
C    -1.78282   0.94746   2.94057
H    -1.77327  -3.41669  -0.32048
H    -1.83698  -2.33987   1.23179
H    -0.40696  -1.93471  -1.35846
H     1.38722   1.55496  -0.24407
H     3.20935   0.75128  -2.33151
H     2.85269   2.43624  -1.86334
H     1.88104   1.62909  -3.12378
H    -2.17340  -0.50906   1.46687
H    -2.10934   1.94552   2.59982
H    -2.59892   0.48579   3.51100
H    -0.92198   1.08732   3.60970
