32
Generated by autodE on: 2022-06-04. E = -855.709945 Ha
C    -4.03486  -0.55781   1.04717
N    -2.80025   0.03730   0.56653
C    -1.79683  -0.70584   0.09039
O    -1.82856  -1.94377   0.03271
C    -0.61758   0.07577  -0.43957
C    -1.01747   0.93698  -1.62882
C    -1.05182   0.25281  -2.96277
O    -1.49451   2.04105  -1.41932
C     0.63212   0.05764   0.06728
C     1.64920   0.91439  -0.64912
O     1.37961   1.37495  -1.77054
N     2.81162   1.14593  -0.03237
C     3.83369   1.98054  -0.62962
C     1.05255  -0.69775   1.30476
O     1.84652  -0.18665   2.11548
N     0.57412  -1.93658   1.46569
C     0.88737  -2.71308   2.65022
H    -4.61093  -1.00476   0.22114
H    -3.81941  -1.34692   1.78184
H    -4.64021   0.22167   1.52414
H    -2.72221   1.04932   0.50541
H    -1.93533  -0.41048  -2.97061
H    -0.16229  -0.36980  -3.12111
H    -1.16037   0.99639  -3.76430
H     2.89375   0.80499   0.92779
H     4.11927   1.60134  -1.62259
H     3.48473   3.01902  -0.75325
H     4.71755   1.97871   0.01945
H    -0.14490  -2.27292   0.82191
H     1.97580  -2.82513   2.76709
H     0.49646  -2.23412   3.56260
H     0.43516  -3.70696   2.54894
