54
Generated by autodE on: 2022-06-04. E = -1405.938418 Ha. Imaginary frequency = -260.8 cm-1
C    -3.81030  -3.44685  -1.16982
N    -2.73039  -2.78191  -0.46519
C    -2.31638  -1.55044  -0.81637
O    -2.81472  -0.94426  -1.76817
C    -1.27768  -0.89291   0.10295
C    -1.85138  -0.81638   1.53269
C    -3.17112  -0.09495   1.64857
O    -1.39223  -1.44764   2.47330
C     0.18114  -2.43441   0.23252
N     1.30032  -1.84330  -0.22517
C     1.90956  -0.69833   0.13543
C     2.79695  -0.21001  -0.97695
O     2.93155  -0.91115  -1.99547
N     3.36202   0.99701  -0.84697
C     4.19104   1.55930  -1.89158
C     2.02527  -0.14750   1.50974
O     2.70177   0.88043   1.71367
N     1.43462  -0.78512   2.54260
C     1.44244  -0.16917   3.85877
C    -0.61021   0.24462  -0.40111
C    -0.28752   1.35416   0.51670
O    -0.68674   1.32825   1.70044
N     0.44066   2.39343   0.05967
C     0.82176   3.49533   0.91884
C    -0.38290   0.28991  -1.88083
O     0.05803  -0.69996  -2.48157
N    -0.65315   1.44382  -2.54502
C    -1.64240   2.43783  -2.15552
H    -3.54453  -3.63269  -2.22238
H    -4.72647  -2.83553  -1.15304
H    -4.01274  -4.40707  -0.68025
H    -2.30885  -3.24860   0.33075
H    -3.97382  -0.82868   1.46355
H    -3.28889   0.28933   2.67010
H    -3.26879   0.71299   0.91325
H    -0.15531  -3.25559  -0.39992
H     0.01883  -2.57047   1.29911
H     1.51141  -2.01497  -1.21953
H     3.27120   1.43285   0.07370
H     4.47448   2.58033  -1.60770
H     3.64547   1.59432  -2.84737
H     5.10837   0.96748  -2.04926
H     0.63053  -1.37999   2.36784
H     2.47241  -0.01722   4.21005
H     0.93156   0.80690   3.84948
H     0.92325  -0.83700   4.55706
H     0.83662   2.34167  -0.87156
H     1.45431   3.15657   1.75376
H     1.38403   4.22527   0.32285
H    -0.06581   3.99383   1.33961
H    -0.44650   1.38359  -3.53972
H    -2.17564   2.11380  -1.25313
H    -1.19132   3.42262  -1.96174
H    -2.38416   2.54726  -2.96090
