55
Generated by autodE on: 2022-06-01. E = -1061.726356 Ha
C     3.80388   0.32986   2.49877
C     2.78124  -0.76591   2.37006
O     2.79380  -1.72511   3.12626
C     1.74951  -0.70609   1.21291
C     1.53216   0.73468   0.70959
C     2.49736  -1.50241   0.09547
C     1.87906  -1.49733  -1.31003
C     0.41486  -1.91941  -1.44363
C     0.08581  -3.33619  -0.97599
C     0.36364  -3.63586   0.51587
C    -0.09385  -2.55508   1.45984
C     0.44685  -1.34491   1.70522
C    -0.47446  -0.56844   2.67193
C     0.33575  -0.06051   3.88358
C     0.43461  -0.96113   5.07904
O     0.90148   1.02119   3.84509
C    -1.24758   0.57225   1.92647
C    -1.63667   1.82907   2.65513
O    -1.63127   0.37759   0.78525
N    -1.44220  -1.57237   3.08214
C    -2.70024  -1.16257   3.66287
C    -1.39776  -2.76260   2.21828
C    -1.35073  -4.02227   3.10106
C    -2.59101  -2.86118   1.24749
H     4.56458   0.03441   3.23299
H     4.27690   0.55825   1.53304
H     3.30424   1.24853   2.84204
H     2.46318   1.13784   0.28814
H     1.20794   1.40467   1.51442
H     0.77304   0.75506  -0.08041
H     3.49707  -1.04724   0.00460
H     2.67833  -2.52375   0.44534
H     1.98863  -0.48958  -1.74229
H     2.50308  -2.15994  -1.93545
H     0.13450  -1.83725  -2.50772
H    -0.22734  -1.20287  -0.90910
H    -0.98068  -3.52394  -1.17968
H     0.65009  -4.06772  -1.57969
H     1.42965  -3.84108   0.66606
H    -0.15270  -4.57145   0.77333
H     0.60930  -2.00022   4.77191
H     1.23771  -0.60494   5.73725
H    -0.52139  -0.94268   5.62724
H    -2.52113   2.26367   2.17011
H    -1.82575   1.65418   3.72250
H    -0.80522   2.54809   2.58866
H    -2.52652  -0.44304   4.47783
H    -3.20129  -2.03498   4.10823
H    -3.41270  -0.69843   2.95070
H    -1.35624  -4.94181   2.49702
H    -0.45043  -4.01977   3.73367
H    -2.23511  -4.05464   3.75641
H    -3.53254  -2.99257   1.80252
H    -2.67206  -1.95808   0.62757
H    -2.47782  -3.73166   0.58525
