27
Generated by autodE on: 2022-07-27. E = -557.454832 Ha
C    -0.56915   0.23824   2.55641
C    -0.13557   1.13452   1.40439
O     0.19523   2.31492   1.65189
C    -0.09795   0.54637   0.10333
C     0.38960   1.12315  -1.11181
C     0.87469   2.55778  -1.10459
O     0.43780   0.47246  -2.18159
N    -0.59132  -0.80744  -0.04234
C    -2.04815  -0.96622  -0.16896
C     0.21226  -1.80849  -0.26997
C     1.68404  -1.65545  -0.15887
C    -0.33387  -3.14026  -0.65591
H     0.07255  -0.65516   2.62545
H    -0.50116   0.80688   3.49339
H    -1.60465  -0.11610   2.43041
H     0.08823   3.24716  -0.76477
H     1.71768   2.68398  -0.40860
H     1.19130   2.82164  -2.12348
H    -2.39424  -1.87367   0.34129
H    -2.52992  -0.08896   0.27295
H    -2.31498  -1.01864  -1.23577
H     2.09683  -1.57964  -1.17967
H     2.10980  -2.56142   0.29667
H     1.97266  -0.75911   0.40171
H    -0.85963  -3.59136   0.20320
H    -1.06370  -3.04703  -1.47405
H     0.47513  -3.81416  -0.96068
