27
Generated by autodE on: 2022-06-01. E = -557.454794 Ha
C    -0.50663  -1.07659   2.34940
C    -1.25508  -0.29797   1.27607
O    -2.49680  -0.18321   1.37117
C    -0.48125   0.22383   0.19499
C    -0.94631   0.86575  -0.99628
C    -2.42895   1.12190  -1.16873
O    -0.16103   1.21239  -1.90863
N     0.95945   0.09540   0.26801
C     1.66813   1.10408   1.06986
C     1.61534  -0.71784  -0.51180
C     0.91086  -1.72564  -1.34231
C     3.10175  -0.64622  -0.59278
H     0.23989  -0.44992   2.86279
H     0.03445  -1.93099   1.91107
H    -1.22922  -1.44606   3.08916
H    -2.82746   1.74199  -0.35253
H    -2.99686   0.17959  -1.14669
H    -2.58328   1.62647  -2.13287
H     2.53605   0.66786   1.57897
H     2.00086   1.92014   0.40993
H     0.97140   1.50981   1.80960
H     0.88973  -1.35587  -2.38197
H    -0.11969  -1.89777  -1.01180
H     1.48814  -2.66177  -1.34303
H     3.54711  -0.94694   0.37063
H     3.47796  -1.31424  -1.37600
H     3.43332   0.38331  -0.79806
