39
Generated by autodE on: 2022-06-17. E = -765.070922 Ha
C     4.54880   1.55905   1.24132
C     3.70682   1.16297   0.26505
C     4.08289   1.25329  -1.19040
C     2.38708   0.62739   0.61531
C     1.45542   0.20273  -0.25708
C     0.13825  -0.36177   0.16503
N    -1.00426   0.21950  -0.57070
C    -1.67693   1.28618   0.02059
O    -1.08924   2.04883   0.79959
N    -2.96344   1.45207  -0.36670
C    -3.80673   2.45292   0.25032
N    -1.81178  -0.83785  -1.11805
N    -1.52593  -1.99585  -0.34957
C    -2.37503  -2.00452   0.84060
C    -0.05577  -1.90115  -0.08891
C     0.40805  -2.71090   1.11472
C     0.68742  -2.38581  -1.33883
H     5.53954   1.96184   1.01263
H     4.26534   1.48865   2.29599
H     5.09205   1.67013  -1.31662
H     3.37255   1.88944  -1.74431
H     4.05397   0.26039  -1.66935
H     2.15844   0.58039   1.68668
H     1.63720   0.25050  -1.33412
H     0.00216  -0.16876   1.23911
H    -3.38112   0.65947  -0.84668
H    -4.10343   2.18364   1.27970
H    -3.28283   3.41816   0.29243
H    -4.71717   2.57765  -0.35065
H    -1.46311  -1.01046  -2.06057
H    -3.42196  -1.94952   0.51437
H    -2.23904  -2.94563   1.38816
H    -2.18675  -1.16713   1.53932
H    -0.06828  -2.38566   2.04925
H     0.20757  -3.78303   0.96652
H     1.49440  -2.58195   1.23294
H     0.44612  -3.44331  -1.52085
H     0.42254  -1.81224  -2.23969
H     1.77436  -2.29836  -1.20057
