16
Generated by autodE on: 2022-07-27. E = -413.518406 Ha
C    -0.93972  -3.08647  -1.07265
N    -0.83917  -2.14992   0.02431
N    -0.33661  -1.04650  -0.30086
N    -0.14345  -0.04961   0.51502
C     0.43346   1.01381  -0.18150
O     0.70256   0.97859  -1.39957
N     0.67936   2.09723   0.58307
C     0.39259   2.21465   2.00086
H    -0.54689  -2.68944  -2.02455
H    -0.39191  -4.00589  -0.81310
H    -1.99497  -3.37085  -1.20949
H    -0.03016  -0.85740  -1.28997
H     1.09434   2.88607   0.09872
H    -0.68279   2.11015   2.21256
H     0.93114   1.45781   2.59134
H     0.71549   3.20832   2.33621
