16
Generated by autodE on: 2022-06-17. E = -413.524100 Ha
C     3.06830  -0.69276   0.07343
N     2.49787   0.61741   0.28400
N     1.23876   0.64248   0.20516
N     0.43270  -0.35019  -0.03714
C    -0.89613   0.10419  -0.03942
O    -1.21737   1.28718   0.16443
N    -1.77132  -0.88926  -0.28675
C    -3.20388  -0.70347  -0.35036
H     2.68685  -1.41997   0.81134
H     2.80551  -1.08929  -0.92286
H     4.15809  -0.61771   0.16202
H     0.77774   1.56440   0.34892
H    -1.38309  -1.81445  -0.43930
H    -3.71923  -1.31881   0.40442
H    -3.59780  -0.97534  -1.34281
H    -3.43407   0.35122  -0.15905
