39
Generated by autodE on: 2022-06-17. E = -765.006626 Ha. Imaginary frequency = -434.8 cm-1
C     3.48447   2.76012   0.62481
C     2.85232   1.73786   0.00290
C     3.08336   1.44724  -1.45864
C     1.90031   0.91357   0.73490
C     1.23712  -0.16257   0.22060
C     0.22598  -0.89695   0.91497
N    -1.66052   0.29102   0.12664
C    -1.06713   1.38923  -0.49105
O    -0.77294   1.43330  -1.70185
N    -0.80939   2.40880   0.35524
C    -1.08977   2.41458   1.77865
N    -1.94557  -0.66362  -0.74097
N    -1.98124  -1.87488  -0.21366
C    -2.34958  -2.86670  -1.20999
C    -0.26381  -2.18475   0.49720
C    -0.63879  -3.11883   1.63031
C     0.49930  -2.85305  -0.63689
H     4.18878   3.40493   0.09209
H     3.30679   2.97426   1.68320
H     3.80126   2.15404  -1.89789
H     3.46895   0.42508  -1.60760
H     2.13591   1.51316  -2.01852
H     1.70679   1.20249   1.77343
H     1.44751  -0.45609  -0.80981
H     0.01704  -0.59638   1.94423
H    -0.22307   3.14375  -0.02623
H    -2.16054   2.25683   1.97250
H    -0.52718   1.63905   2.32000
H    -0.80392   3.39457   2.18184
H    -1.56085  -0.53981  -1.69794
H    -1.82492  -2.73959  -2.17591
H    -2.14147  -3.86818  -0.81716
H    -3.43314  -2.80036  -1.39668
H     0.26936  -3.54017   2.09389
H    -1.24893  -3.96132   1.27039
H    -1.20638  -2.58623   2.40748
H     0.10283  -3.85408  -0.85121
H     0.46011  -2.26357  -1.56542
H     1.56039  -2.97167  -0.36548
