38
Generated by autodE on: 2022-06-17. E = -876.353214 Ha
C    -2.82310   3.23566  -0.24044
N    -2.21026   1.93441  -0.39837
C    -2.16776   1.05066   0.62376
O    -2.73228   1.25116   1.70918
N    -1.52146  -0.15495   0.36211
N    -0.61421  -0.19974  -0.73363
C     0.69574  -0.65680  -0.22282
C     1.01315  -2.04806  -0.83864
C     2.11826  -2.86801  -0.25036
O     0.34546  -2.43975  -1.78049
C     1.85275   0.27611  -0.65906
O     3.01825   0.06061  -0.30617
N     1.49860   1.30021  -1.43916
C     2.45798   2.27729  -1.91109
C     0.53740  -0.69676   1.33417
C     0.95877   0.60138   2.02471
C    -0.97901  -0.94038   1.48105
C    -1.40261  -2.40300   1.42053
H    -3.84945   3.14146   0.14491
H    -2.86325   3.72990  -1.21951
H    -2.26045   3.88347   0.45388
H    -1.65077   1.72925  -1.21781
H    -0.93249  -0.90805  -1.40023
H     1.70720  -3.41050   0.61809
H     2.93944  -2.23577   0.10713
H     2.46631  -3.60452  -0.98664
H     0.50695   1.39547  -1.63620
H     3.30565   1.78163  -2.40792
H     1.96447   2.94388  -2.62862
H     2.85837   2.88291  -1.08163
H     1.11022  -1.53047   1.75740
H     0.72747   0.54093   3.09851
H     0.42737   1.47293   1.61209
H     2.03678   0.78007   1.91803
H    -1.34786  -0.49551   2.41139
H    -0.92105  -2.97045   2.23122
H    -2.49354  -2.48496   1.54092
H    -1.13554  -2.87683   0.46440
