26
Generated by autodE on: 2022-07-27. E = -719.004384 Ha
C    -4.07326   2.50942   0.38431
N    -2.65881   2.19713   0.36763
C    -2.21319   0.95565   0.13112
O    -2.93888  -0.02257  -0.08445
N    -0.80019   0.87532   0.15352
N    -0.41822  -0.33382  -0.07776
C     0.80087  -0.85353  -0.14902
C     0.75356  -2.31388  -0.44304
C     2.01337  -3.11248  -0.57333
O    -0.34969  -2.84491  -0.57583
C     2.04550  -0.05883   0.04596
O     3.16526  -0.58810  -0.02214
N     1.88797   1.25424   0.29828
C     3.03528   2.11230   0.50687
H    -4.60075   1.92412   1.15407
H    -4.19721   3.57609   0.60495
H    -4.54182   2.29147  -0.58872
H    -1.97420   2.92958   0.52658
H    -1.18115  -1.03575  -0.23851
H     2.59788  -3.05887   0.35669
H     1.74672  -4.15282  -0.79972
H     2.65212  -2.69586  -1.36542
H     0.93815   1.62714   0.34484
H     2.68389   3.13656   0.68101
H     3.70216   2.10918  -0.37016
H     3.62748   1.78664   1.37734
