23
Generated by autodE on: 2022-10-23. E = -351.521381 Ha
C    -2.97840   1.97177   1.24181
C    -2.30564   1.05387   0.51332
C    -3.01506   0.16614  -0.47706
C    -0.86085   0.90732   0.67826
C    -0.07380   0.02691   0.01017
C     1.35692  -0.07678   0.21272
C     2.21235  -0.92567  -0.41123
C     1.80479  -1.93200  -1.44970
C     3.68016  -0.91084  -0.08989
H    -4.05919   2.10263   1.13849
H    -2.46028   2.61467   1.96011
H    -2.87737  -0.89875  -0.22592
H    -4.09323   0.37833  -0.50180
H    -2.61164   0.30358  -1.49409
H    -0.39208   1.57624   1.41008
H    -0.53430  -0.64316  -0.72088
H     1.78057   0.61205   0.95365
H     2.08634  -2.94973  -1.12617
H     2.35040  -1.74975  -2.39247
H     0.72984  -1.92907  -1.67118
H     4.01261  -1.90170   0.26859
H     3.93095  -0.16166   0.67536
H     4.27682  -0.69872  -0.99537
