22
Generated by autodE on: 2022-10-23. E = -628.969791 Ha
C     4.03022  -0.47612   0.13919
O     2.81573   0.25889   0.34369
C     1.68161  -0.36342   0.00442
O     1.64148  -1.48522  -0.47237
C     0.47534   0.44530   0.26681
O     0.72879   1.58134   0.85758
N    -0.07347   2.56980   1.19303
C    -0.86851  -0.00472  -0.09456
C    -1.09339  -0.62423  -1.34091
C    -2.36587  -1.08082  -1.67957
C    -3.42968  -0.93542  -0.78268
C    -3.21586  -0.32872   0.45913
C    -1.94808   0.13892   0.80300
H     4.84001   0.18346   0.47175
H     4.15546  -0.72533  -0.92460
H     4.02615  -1.40191   0.73284
H    -1.02025   2.29537   0.87999
H    -0.26745  -0.73868  -2.04291
H    -2.52896  -1.55297  -2.65087
H    -4.42539  -1.29535  -1.05148
H    -4.03999  -0.22180   1.16773
H    -1.79227   0.59104   1.78408
