22
Generated by autodE on: 2022-10-26. E = -628.966877 Ha
C    -1.64945   3.40658  -1.12276
O    -1.58584   2.19389  -0.35635
C    -0.44526   1.51137  -0.41908
O     0.51138   1.86142  -1.08976
C    -0.44319   0.26064   0.37997
O    -1.21889   0.06485   1.40639
N    -2.09200   0.89615   1.95243
C     0.47453  -0.84661   0.10575
C     0.74105  -1.80017   1.11392
C     1.58115  -2.88215   0.86451
C     2.17753  -3.04004  -0.39212
C     1.92027  -2.10358  -1.39795
C     1.07863  -1.01771  -1.15844
H    -1.52125   3.19108  -2.19345
H    -0.86909   4.10830  -0.79525
H    -2.64379   3.82688  -0.93434
H    -2.42393   0.31071   2.73250
H     0.29087  -1.67952   2.10009
H     1.77885  -3.60442   1.65992
H     2.83931  -3.88743  -0.58468
H     2.37446  -2.22119  -2.38449
H     0.88174  -0.30478  -1.95708
