45
Generated by autodE on: 2022-10-23. E = -980.489773 Ha. Imaginary frequency = -198.5 cm-1
C    -0.70120  -2.55784   0.20315
C    -0.46330  -1.85202  -0.92689
C     0.43297  -2.40456  -2.00738
C    -0.92933  -0.48834  -1.14408
C    -2.01073   0.14716  -0.54923
C    -3.15507  -0.50848   0.07949
C    -4.22374   0.11460   0.62935
C    -5.39039  -0.67427   1.15411
C    -4.34190   1.60487   0.78311
N    -1.04749   0.90113   1.41847
O     0.16650   0.35310   1.32871
C     0.98991   0.60375   0.33034
C     0.87207   1.81613  -0.51578
O     1.33879   1.90569  -1.64149
O     0.23850   2.82550   0.08244
C     0.04072   4.01222  -0.69803
C     2.14197  -0.29323   0.27912
C     2.19391  -1.40661   1.15117
C     3.26145  -2.30104   1.10347
C     4.30290  -2.11577   0.18893
C     4.26917  -1.01351  -0.67196
C     3.20762  -0.11143  -0.63154
H    -1.27235  -2.14803   1.03714
H    -0.29202  -3.56406   0.32726
H    -0.07879  -2.41625  -2.98440
H     0.77204  -3.42435  -1.77584
H     1.32218  -1.76195  -2.12223
H    -0.41026   0.05908  -1.93264
H    -2.16811   1.18090  -0.86410
H    -3.16195  -1.60187   0.05720
H    -5.24985  -1.75768   1.02544
H    -6.32404  -0.38111   0.64103
H    -5.55390  -0.46796   2.22709
H    -3.46278   2.15322   0.42268
H    -4.48807   1.86442   1.84645
H    -5.23507   1.97953   0.25202
H    -1.47524   0.29214   2.13023
H    -0.53421   3.78042  -1.60631
H     1.00590   4.45708  -0.98005
H    -0.52232   4.70083  -0.05765
H     1.39575  -1.56091   1.87451
H     3.27749  -3.15275   1.78764
H     5.13616  -2.82110   0.15048
H     5.07920  -0.85274  -1.38725
H     3.19430   0.73289  -1.31626
