36
Generated by autodE on: 2022-06-01. E = -821.586370 Ha. Imaginary frequency = -247.3 cm-1
C    -2.25916   2.69050   1.12774
N    -1.95868   1.69498   0.11829
C    -2.24634   0.38692   0.31297
O    -2.95673   0.02656   1.27024
C    -1.74936  -0.59706  -0.67316
C    -0.62520  -2.23946   0.24251
C    -1.67666  -2.87999   1.05299
C     0.56318  -2.27111  -0.15529
C     1.84865  -2.24469  -0.58640
N     2.97783  -2.24460  -0.92610
C     0.39919   0.21824  -1.45711
C     1.06391   0.80654  -0.30441
C     0.68742   0.72410   1.05823
C     1.47896   1.29937   2.04821
C     2.66085   1.97590   1.72201
C     3.05827   2.05490   0.38478
C     2.27519   1.47306  -0.60975
N    -0.82510  -0.26872  -1.65030
C    -1.06290  -0.93121  -2.94672
H    -1.92457   3.67113   0.76751
H    -3.33982   2.73945   1.33112
H    -1.74371   2.46904   2.07748
H    -1.36014   1.96592  -0.65221
H    -2.56050  -1.22166  -1.05160
H    -2.44557  -3.31924   0.39605
H    -1.25037  -3.67819   1.68034
H    -2.18655  -2.13807   1.68304
H     0.97827   0.28639  -2.37830
H    -0.19729   0.17834   1.36820
H     1.16813   1.21478   3.09189
H     3.26869   2.43132   2.50703
H     3.98294   2.56927   0.11368
H     2.59590   1.53379  -1.65194
H    -2.08117  -0.70639  -3.28633
H    -0.95277  -2.01768  -2.81046
H    -0.33628  -0.58084  -3.68705
