41
Generated by autodE on: 2022-05-29. E = -977.424619 Ha
C    -1.15220  -3.86159  -0.41037
O    -0.40123  -2.69282  -0.76924
C    -1.02889  -1.52585  -0.66479
O    -2.20619  -1.43717  -0.38412
C    -0.15860  -0.31175  -1.04775
O    -1.01890   0.42724  -1.91632
N    -0.97798   1.84206  -1.56392
C    -0.75473   1.89344  -0.10130
C    -2.06423   1.68181   0.67619
C    -0.17464   3.26710   0.22991
C     0.23714   0.69397   0.10615
C     0.13268   0.12621   1.50715
O    -0.21433  -1.00248   1.79228
O     0.51525   1.01991   2.41961
C     0.47770   0.60404   3.79377
C     1.74275   0.99293  -0.22667
C     2.60629  -0.20593   0.21454
C     2.18340  -1.31932  -0.78347
C     1.19795  -0.59538  -1.73774
C     1.79989   0.82345  -1.75615
H    -1.47497  -3.79434   0.63861
H    -2.03263  -3.96862  -1.05964
H    -0.47204  -4.71010  -0.54630
H    -1.94489   2.12367  -1.74731
H    -2.50624   0.70295   0.45309
H    -1.90466   1.76003   1.76153
H    -2.78169   2.46646   0.38924
H     0.70387   3.49946  -0.38531
H    -0.93597   4.03908   0.03811
H     0.10506   3.32215   1.29078
H     0.81795   1.46628   4.37811
H    -0.54706   0.32823   4.08033
H     1.14787  -0.25296   3.95108
H     2.07885   1.95041   0.18321
H     3.66733   0.05762   0.09706
H     2.46625  -0.49269   1.26624
H     1.73729  -2.18281  -0.28207
H     3.04300  -1.68024  -1.36650
H     1.05937  -1.08871  -2.70824
H     2.83444   0.83182  -2.13029
H     1.20367   1.55487  -2.31027
