12
Generated by autodE on: 2022-07-26. E = -248.578196 Ha
C     0.76253   1.27308  -0.52509
C    -0.04476   0.34580   0.31410
C    -0.56513   0.74480   1.65187
N    -0.27531  -0.86038  -0.12709
O     0.12363  -1.37678  -1.24100
H     0.57042   1.09744  -1.59263
H     1.84280   1.10183  -0.35326
H     0.55024   2.31851  -0.25774
H    -1.00575  -0.10731   2.19269
H    -1.33146   1.53301   1.54702
H     0.24855   1.16986   2.26479
H    -0.83027  -1.46892   0.49452
