12
Generated by autodE on: 2022-05-29. E = -248.578664 Ha
C     0.44362  -0.99943   1.56035
C     0.28908  -0.17242   0.33138
C     1.43432   0.52039  -0.32113
N    -0.88744  -0.03525  -0.21182
O    -1.16422   0.64851  -1.27035
H    -0.51740  -1.42145   1.89065
H     1.15079  -1.82711   1.38120
H     0.86383  -0.39317   2.38076
H     1.25142   1.60808  -0.36331
H     2.37100   0.33068   0.21856
H     1.54120   0.18359  -1.36681
H    -1.67092  -0.52188   0.25171
