41
Generated by autodE on: 2022-05-29. E = -977.387878 Ha. Imaginary frequency = -365.2 cm-1
C    -1.20863  -4.05547  -0.64714
O    -0.40454  -2.89464  -0.89592
C    -0.84373  -1.73609  -0.38656
O    -1.87709  -1.65451   0.25487
C     0.03868  -0.59382  -0.76189
O    -1.34933   0.22690  -1.78370
N    -1.97938   0.92005  -0.86160
C    -1.30150   1.88928  -0.20251
C    -0.60477   2.96491  -0.98014
C    -1.90940   2.31571   1.10221
C     0.44641   0.46505   0.12390
C     0.29530   0.44402   1.58215
O    -0.40668  -0.29007   2.26157
O     1.05190   1.41226   2.15625
C     0.97995   1.51905   3.57971
C     1.78560   0.95458  -0.45918
C     2.83272  -0.13452  -0.07910
C     2.37825  -1.35612  -0.93142
C     1.17801  -0.78808  -1.75071
C     1.63157   0.66260  -1.96286
H    -2.21155  -3.92806  -1.07965
H    -1.29869  -4.23765   0.43351
H    -0.68983  -4.89110  -1.13082
H    -2.58820   0.33485  -0.27469
H    -0.33538   2.64442  -1.99011
H     0.29160   3.31888  -0.45476
H    -1.29614   3.82230  -1.06139
H    -2.32604   1.46524   1.65775
H    -2.70932   3.05281   0.91964
H    -1.14684   2.80679   1.72140
H     1.64930   2.34256   3.85656
H     1.31295   0.58689   4.05975
H    -0.04652   1.74450   3.90444
H     2.06825   1.97264  -0.17050
H     2.84322  -0.34239   1.00003
H     3.84235   0.19784  -0.36417
H     2.08567  -2.22104  -0.32111
H     3.16994  -1.68544  -1.62033
H     0.90929  -1.37355  -2.63731
H     2.58858   0.72913  -2.50110
H     0.88399   1.27183  -2.47718
