38
Generated by autodE on: 2022-06-01. E = -3512.469353 Ha
C    -4.31840   3.42771   2.59933
O    -3.76298   2.88474   1.39143
C    -2.90722   1.86981   1.52536
O    -2.56449   1.42059   2.60009
C    -2.46314   1.33035   0.17431
N    -3.49754   0.38600  -0.28874
C    -2.97370  -0.77266  -0.44689
C    -3.74609  -1.96525  -0.89812
C    -1.49201  -0.87110  -0.17180
C    -0.64173  -1.03106  -1.47775
O    -0.71567   0.28507  -2.02884
C    -0.13518   0.96141  -0.90151
C     1.16153   0.16986  -0.66567
C     2.34668   0.73482  -0.02562
C     2.23512   1.93755   0.70358
C     3.34658   2.49499   1.33698
C     4.59542   1.87318   1.24545
C     4.72345   0.68809   0.51239
C     3.61390   0.12217  -0.11455
C     0.81498  -1.08142  -1.03886
Br    1.70679  -2.72258  -0.83078
C    -1.12019   0.57955   0.24044
H    -4.98553   4.23959   2.28768
H    -4.88458   2.65662   3.14168
H    -3.52042   3.81859   3.24695
H    -2.43136   2.18269  -0.52048
H    -4.80687  -1.72276  -1.04441
H    -3.32960  -2.35357  -1.84257
H    -3.65419  -2.77509  -0.15536
H    -1.26177  -1.65823   0.55928
H    -0.98075  -1.79412  -2.18661
H    -0.02505   2.03264  -1.10119
H     1.26816   2.43634   0.78706
H     3.23565   3.42259   1.90333
H     5.46626   2.31227   1.73763
H     5.69759   0.20125   0.42451
H     3.73566  -0.79296  -0.69335
H    -0.65195   0.65861   1.22676
