23
Generated by autodE on: 2022-06-01. E = -3112.268676 Ha
Br    0.99130   2.03379   0.21623
C     1.01191   0.16329   0.35337
C     0.02838  -0.74926   0.22304
C    -1.40521  -0.66314  -0.02665
C    -2.16057   0.47997   0.31123
C    -3.52818   0.53319   0.04598
C    -4.17473  -0.54813  -0.56384
C    -3.44042  -1.68962  -0.89922
C    -2.07289  -1.75112  -0.62819
C     0.82357  -2.09415   0.22698
C     1.60945  -2.16544  -1.10017
C     2.56461  -1.23862  -0.98152
C     2.34023  -0.62441   0.42049
O     1.88373  -1.77432   1.14568
H    -1.67560   1.32548   0.79865
H    -4.09559   1.42544   0.32119
H    -5.24627  -0.50228  -0.77146
H    -3.93523  -2.54048  -1.37332
H    -1.51524  -2.64913  -0.90056
H     0.26563  -2.98284   0.53877
H     1.35731  -2.80712  -1.94359
H     3.31396  -0.90628  -1.69888
H     3.18620  -0.12513   0.90453
