38
Generated by autodE on: 2022-06-01. E = -3512.346067 Ha. Imaginary frequency = -283.9 cm-1
C    -3.30343   3.41142   2.78664
O    -3.20555   3.02421   1.41573
C    -3.57835   1.75093   1.12171
O    -4.01346   0.97839   1.97161
C    -3.35799   1.45116  -0.27003
N    -3.69168   0.24664  -0.70835
C    -3.49534  -0.92874  -0.78092
C    -4.05257  -2.24003  -1.09423
C    -1.30766  -0.98002   0.14459
C    -0.54929  -1.13262  -1.19649
O    -0.71050   0.18167  -1.74555
C    -0.17111   0.87328  -0.60521
C     1.22763   0.18813  -0.48651
C     2.39892   0.84489   0.08107
C     2.23355   2.01657   0.85066
C     3.33232   2.65610   1.42601
C     4.62182   2.15050   1.23518
C     4.80261   0.99800   0.46171
C     3.70722   0.35054  -0.10815
C     0.95892  -1.07665  -0.87185
Br    1.99600  -2.64058  -0.80014
C    -1.05067   0.30495   0.52170
H    -2.96636   4.45431   2.83456
H    -4.34107   3.33810   3.14629
H    -2.66008   2.78298   3.42162
H    -3.09061   2.22413  -0.98955
H    -4.99415  -2.15685  -1.65952
H    -3.32282  -2.84206  -1.65545
H    -4.24793  -2.75946  -0.14157
H    -1.61420  -1.81711   0.77058
H    -0.87418  -1.91941  -1.88579
H    -0.16442   1.95758  -0.75333
H     1.23378   2.42370   1.01250
H     3.17939   3.55678   2.02524
H     5.48236   2.65375   1.68199
H     5.80746   0.60137   0.29792
H     3.86785  -0.53841  -0.71783
H    -1.15452   0.75687   1.50543
