49
Generated by autodE on: 2022-06-21. E = -1112.298521 Ha
C    -3.71048  -4.08444  -0.30051
C    -3.15975  -2.98623   0.25508
C    -3.54192  -2.51698   1.63398
C    -2.15183  -2.22265  -0.48889
C    -1.53827  -1.10934  -0.05016
C    -0.48567  -0.38773  -0.82769
C     0.84052  -0.24497  -0.02602
C     1.28852  -1.42735   0.77253
C     1.90529  -2.51061   0.13135
C     2.25368  -3.64936   0.86016
C     1.98319  -3.71722   2.23109
C     1.36518  -2.63931   2.87110
C     1.01661  -1.49714   2.14471
N     0.66405   1.00330   0.66793
C     0.47974   1.81996  -0.54233
C     0.35055   3.31595  -0.36618
O     0.37376   4.06633  -1.34705
N     0.19823   3.74792   0.89484
C    -0.02396   5.14831   1.20033
C     1.67149   1.36569  -1.39808
O     2.32608   1.95083  -2.22424
O     1.87493   0.07589  -1.06417
C    -0.79478   1.12173  -1.18744
C    -2.06090   1.65846  -0.51450
C    -0.89563   1.32888  -2.69777
H    -4.46096  -4.67777   0.22940
H    -3.42199  -4.41709  -1.30237
H    -2.66278  -2.49387   2.29939
H    -3.94271  -1.49006   1.60713
H    -4.30032  -3.17358   2.08310
H    -1.88812  -2.61312  -1.47883
H    -1.78066  -0.70464   0.93527
H    -0.26515  -0.95246  -1.74259
H     2.11320  -2.46001  -0.93858
H     2.73706  -4.48862   0.35488
H     2.25432  -4.61004   2.79935
H     1.15167  -2.68537   3.94141
H     0.52832  -0.65968   2.64426
H     1.51977   1.25881   1.16927
H     0.09036   3.05707   1.63038
H     0.73591   5.77306   0.70919
H     0.04370   5.29160   2.28555
H    -1.01649   5.48528   0.85781
H    -2.93034   1.05984  -0.82262
H    -2.24316   2.69847  -0.82473
H    -1.99598   1.62747   0.58058
H    -1.80376   0.83257  -3.07289
H    -0.03735   0.90300  -3.23807
H    -0.96032   2.39932  -2.94140
