23
Generated by autodE on: 2022-06-21. E = -351.515965 Ha
C     1.01981  -0.75896   2.85147
C     1.29049   0.38551   2.19054
C     2.27159   1.39240   2.73846
C     0.66201   0.75826   0.91297
C     0.00924  -0.06716   0.05905
C    -0.59462   0.37975  -1.17893
C    -1.25677  -0.38147  -2.08696
C    -1.48023  -1.86113  -1.95493
C    -1.83323   0.23436  -3.33038
H     1.52827  -0.99980   3.78926
H     0.28491  -1.48104   2.48470
H     2.70722   1.06356   3.69284
H     3.09175   1.57260   2.02234
H     1.77823   2.36677   2.89815
H     0.75949   1.81373   0.63007
H    -0.06187  -1.13088   0.30679
H    -0.49994   1.45157  -1.39146
H    -1.05150  -2.29417  -1.04212
H    -2.56139  -2.08613  -1.96744
H    -1.04828  -2.39062  -2.82250
H    -1.64503   1.31665  -3.38450
H    -2.92409   0.06608  -3.38065
H    -1.40997  -0.24005  -4.23403
