26
Generated by autodE on: 2022-06-21. E = -760.761052 Ha
C    -5.22453   0.56424  -0.26257
N    -3.89513   0.02633  -0.07707
C    -2.76378   0.74624  -0.26851
O    -2.74949   1.94136  -0.61756
C    -1.52208   0.02732  -0.03619
N    -0.28754   0.64552  -0.19290
C     0.69057  -0.19777   0.07094
C     2.12096   0.02322   0.03218
C     2.65238   1.27287  -0.34550
C     4.03194   1.45888  -0.37328
C     4.89350   0.41032  -0.02843
C     4.36915  -0.83129   0.34582
C     2.99028  -1.02976   0.37766
O     0.17071  -1.37987   0.40607
C    -1.27156  -1.29798   0.35470
O    -1.94939  -2.27860   0.62730
H    -5.14350   1.62405  -0.53175
H    -5.76290   0.03812  -1.06786
H    -5.82054   0.48026   0.66033
H    -3.79117  -0.94546   0.20418
H    -0.18574   1.62045  -0.47407
H     1.99286   2.09913  -0.61808
H     4.43883   2.42873  -0.66663
H     5.97475   0.56273  -0.05213
H     5.03860  -1.65090   0.61499
H     2.57818  -1.99639   0.66948
