49
Generated by autodE on: 2022-06-21. E = -1112.252002 Ha. Imaginary frequency = -506.4 cm-1
C    -4.01252  -1.40699   2.13590
C    -3.20670  -1.87231   1.15785
C    -3.13444  -3.34151   0.83300
C    -2.35999  -0.93775   0.40974
C    -1.50114  -1.30159  -0.56787
C    -0.50019  -0.49218  -1.28870
C     0.99574  -0.40967   0.01988
C     1.14331  -1.74534   0.62129
C     1.81464  -2.75348  -0.08797
C     1.86946  -4.05046   0.42377
C     1.24971  -4.35399   1.64095
C     0.58193  -3.35030   2.35004
C     0.52737  -2.05017   1.84533
N     0.63817   0.70792   0.74739
C     0.83745   1.76964  -0.11842
C     0.39037   3.12824   0.20116
O    -0.39205   3.33721   1.14324
N     0.84473   4.09938  -0.61564
C     0.43799   5.48013  -0.45536
C     1.89381   1.37470  -1.00453
O     2.57745   1.98853  -1.80749
O     2.02371   0.00269  -0.82657
C    -0.68141   0.87168  -1.70887
C    -1.86055   1.69000  -1.25466
C    -0.13634   1.26761  -3.05388
H    -4.64510  -2.07836   2.72329
H    -4.05528  -0.33944   2.37332
H    -3.39073  -3.53107  -0.22249
H    -2.11274  -3.72818   0.98502
H    -3.82152  -3.92207   1.46464
H    -2.43264   0.10351   0.72822
H    -1.44542  -2.36492  -0.81680
H     0.04210  -1.08760  -2.02884
H     2.28634  -2.51935  -1.04355
H     2.39515  -4.82962  -0.13270
H     1.28849  -5.37135   2.03679
H     0.09717  -3.57945   3.30151
H     0.00001  -1.27782   2.40669
H    -0.18871   0.69388   1.34306
H     1.51478   3.84059  -1.33695
H    -0.65906   5.57295  -0.47864
H     0.79176   5.89937   0.50093
H     0.86045   6.07195  -1.27641
H    -1.81915   2.70072  -1.68390
H    -2.79507   1.21264  -1.60165
H    -1.93490   1.79092  -0.16549
H    -0.92792   1.12928  -3.81370
H     0.72525   0.65707  -3.35700
H     0.15074   2.32958  -3.07986
