24
Generated by autodE on: 2022-06-04. E = -667.395710 Ha
C     2.89519   2.03274   2.29622
N     1.96695   1.32762   1.43737
C     2.27447   0.92542   0.19077
O     3.36533   1.09327  -0.36893
C     1.20839   0.22253  -0.56341
O     0.08730   0.03633   0.01091
C    -1.08299  -0.54460  -0.34519
C    -2.06723  -0.49294   0.72617
C    -1.65822   0.17428   2.02201
O    -3.19587  -0.97420   0.59342
C    -1.21686  -1.11811  -1.66694
C    -2.51826  -1.76526  -2.06313
O    -0.26730  -1.07641  -2.46576
H     2.52555   3.04392   2.52927
H     3.03877   1.48980   3.24310
H     3.86006   2.11714   1.78311
H     1.03137   1.14133   1.78690
H     1.38068  -0.12378  -1.58132
H    -0.78229  -0.32749   2.46264
H    -2.50129   0.12519   2.72245
H    -1.38175   1.22688   1.85130
H    -2.41793  -2.13449  -3.09263
H    -2.76523  -2.59597  -1.38573
H    -3.34957  -1.04790  -1.99796
