24
Generated by autodE on: 2022-06-04. E = -630.974506 Ha
N    -0.88610   0.86299   3.28120
C    -1.00614   0.42200   2.20641
C    -1.19754  -0.11749   0.92322
C    -0.32012  -0.31152  -0.09926
C     1.10260  -0.04815  -0.23079
C     1.70133  -0.06076  -1.50888
C     3.05975   0.21655  -1.66132
C     3.84903   0.49858  -0.54275
C     3.27033   0.50538   0.73285
C     1.91330   0.23808   0.89032
C    -1.22928  -0.82499  -1.25519
C    -2.08647   0.37285  -1.70810
C    -2.94584   0.57417  -0.70463
C    -2.59168  -0.50218   0.34145
O    -2.19057  -1.58357  -0.50693
H     1.09902  -0.27708  -2.39225
H     3.50409   0.20965  -2.65901
H     4.91408   0.71022  -0.66208
H     3.88379   0.71991   1.61073
H     1.48079   0.24119   1.89103
H    -0.74284  -1.42777  -2.02720
H    -1.93369   0.93863  -2.62614
H    -3.69826   1.35070  -0.57259
H    -3.35754  -0.79067   1.06794
