48
Generated by autodE on: 2022-06-04. E = -1298.385068 Ha. Imaginary frequency = -192.7 cm-1
C     4.59470   1.96502   0.34489
N     3.59922   0.91199   0.32345
C     3.06141   0.47545  -0.82585
O     3.42694   0.82859  -1.95425
C     1.92141  -0.47072  -0.70684
O     1.57324  -0.82945   0.48559
C     0.48724  -1.57363   0.82833
C     0.07717  -1.31678   2.20363
C     0.93945  -0.38252   3.02200
O    -0.94674  -1.81444   2.67683
C     0.06317  -2.67182  -0.02465
C    -1.14461  -3.47971   0.37016
O     0.69619  -2.95527  -1.05102
C    -1.02478   0.27457  -0.64262
C    -1.82250   0.51329   0.54793
C    -1.44371   1.44923   1.53713
C    -2.23405   1.65131   2.66355
C    -3.42647   0.93584   2.83119
C    -3.82036   0.01319   1.85939
C    -3.02888  -0.19923   0.73116
C    -1.58199  -0.47955  -1.88127
C    -2.28097   0.62466  -2.70324
C    -1.28082   1.34983  -3.21532
C     0.00655   0.67561  -2.70113
O    -0.39907  -0.68963  -2.65727
C     0.08111   0.95632  -1.16482
C     0.65810   2.14824  -0.66883
N     1.17389   3.12842  -0.30550
H     5.05561   2.00348   1.33938
H     4.14087   2.94517   0.12242
H     5.37379   1.76770  -0.40464
H     3.17039   0.61673   1.19625
H     1.61273  -1.05550  -1.56894
H     1.08911   0.57977   2.51290
H     0.45744  -0.21891   3.99384
H     1.93648  -0.82799   3.17282
H    -2.03259  -2.83754   0.45983
H    -1.00009  -3.95519   1.35115
H    -1.30903  -4.24499  -0.40002
H    -0.52101   2.01639   1.43114
H    -1.91911   2.37519   3.41814
H    -4.04377   1.09850   3.71745
H    -4.74802  -0.55019   1.98013
H    -3.35056  -0.93021  -0.01031
H    -2.12131  -1.41248  -1.70117
H    -3.35794   0.77703  -2.75527
H    -1.31227   2.25460  -3.82068
H     0.93822   0.82648  -3.25409
