29
Generated by autodE on: 2022-10-20. E = -1242.594096 Ha
C     2.56998  -1.16449   2.14239
O     2.43818  -0.43016   0.92134
C     1.23334  -0.18235   0.40757
C    -0.04290  -0.48669   0.79125
Cl   -0.62221  -1.35930   2.15676
C    -0.98587   0.10109  -0.24741
C    -1.93264   1.13204   0.45481
C    -1.63616   2.58009   0.22069
O    -2.81758   0.73813   1.17787
C    -1.80469  -1.06671  -0.89632
C    -1.38188  -1.50056  -2.26485
O    -2.69304  -1.59634  -0.27097
N    -0.13575   0.74563  -1.21816
C     1.09424   0.58252  -0.84832
C     2.22604   1.14166  -1.66703
C     1.85081   1.91265  -2.89896
O     3.38316   0.96267  -1.32681
H     3.64775  -1.21944   2.33936
H     2.07064  -0.64278   2.97135
H     2.16344  -2.18051   2.03617
H    -0.57951   2.78720   0.45185
H    -2.29393   3.19616   0.84703
H    -1.78435   2.82004  -0.84340
H    -1.55814  -0.68411  -2.98190
H    -1.94711  -2.39458  -2.55763
H    -0.30049  -1.70825  -2.27455
H     2.76201   2.25669  -3.40424
H     1.25660   1.28070  -3.57666
H     1.21959   2.77360  -2.62934
