21
Generated by autodE on: 2022-10-20. E = -590.919053 Ha
C     3.75216  -0.54750   0.13393
C     2.87886   0.66715   0.07935
O     3.26013   1.82661   0.07207
C     1.45655   0.39089   0.00556
N     0.30121   0.21278  -0.01441
C    -0.97265  -0.15939  -0.03162
C    -1.16421  -1.61964   0.06521
C    -2.56222  -2.17241   0.04657
O    -0.18282  -2.35784   0.15984
C    -1.99507   0.88532  -0.13823
C    -1.50621   2.31224  -0.22526
O    -3.19601   0.61817  -0.15580
H     4.68991  -0.29628   0.64879
H     3.98577  -0.84716  -0.90248
H     3.24363  -1.39009   0.62468
H    -2.50632  -3.26689   0.11599
H    -3.14835  -1.76812   0.88548
H    -3.08604  -1.87443  -0.87368
H    -0.92290   2.57773   0.67138
H    -2.36974   2.98338  -0.31365
H    -0.84362   2.44466  -1.09559
