29
Generated by autodE on: 2022-10-20. E = -1242.452653 Ha. Imaginary frequency = -377.4 cm-1
C     1.05158   3.72939  -0.62274
O     1.29748   2.31381  -0.75747
C     0.31995   1.54971  -0.30368
C    -0.78132   1.32663   0.21619
Cl   -2.31250   1.44374   0.85785
C    -0.50540  -1.40842   0.29773
C    -0.12105  -1.26078   1.73087
C    -1.16770  -1.46608   2.78779
O     1.03730  -0.97234   2.01812
C    -1.80448  -1.83691  -0.24351
C    -1.88330  -2.02574  -1.73712
O    -2.78352  -1.98327   0.48215
N     0.49461  -1.17566  -0.53887
C     1.28947  -0.33657  -0.85975
C     2.63805  -0.19193  -1.46564
C     3.73118   0.10053  -0.49148
O     2.74954  -0.28982  -2.67101
H     0.92231   3.98805   0.43917
H     1.93454   4.23381  -1.03348
H     0.15143   4.00937  -1.19068
H    -1.58701  -2.48067   2.71714
H    -2.00606  -0.76985   2.64524
H    -0.70688  -1.31058   3.77191
H    -1.66022  -1.07404  -2.24662
H    -2.89246  -2.35993  -2.00875
H    -1.13845  -2.76098  -2.07927
H     4.70455   0.04074  -0.99577
H     3.67754  -0.59830   0.35790
H     3.57393   1.11547  -0.09062
