16
Generated by autodE on: 2022-05-29. E = -475.331101 Ha
C     2.42668   0.28250   0.58412
C     0.98780  -0.01036   0.90192
O     0.63717  -0.28013   2.04503
C    -0.02234   0.02884  -0.18478
N     0.28208   0.30311  -1.44955
O     1.36954   0.56713  -1.98269
C    -1.49123  -0.22672  -0.02266
C    -2.06588  -0.55283   1.31930
O    -2.20401  -0.15833  -1.02121
H     2.53006   1.28539   0.14258
H     3.00741   0.21122   1.51277
H     2.81020  -0.42780  -0.16411
H    -0.57143   0.27872  -2.05495
H    -3.14846  -0.69685   1.21035
H    -1.59555  -1.45940   1.72726
H    -1.85442   0.25662   2.03321
