16
Generated by autodE on: 2022-07-26. E = -475.331084 Ha
C    -1.33929  -2.12724   0.00700
C    -0.65696  -1.07819   0.82631
O    -0.65510  -1.12881   2.05403
C     0.04717   0.07029   0.16714
N     0.57758   0.89028   1.06930
O     1.22808   1.93609   0.93045
C     0.15797   0.29455  -1.29598
C     0.90513   1.49526  -1.80332
O    -0.35974  -0.50063  -2.07178
H    -0.61970  -2.61374  -0.66785
H    -2.10923  -1.67262  -0.63352
H    -1.78856  -2.86383   0.68546
H     0.38635   0.55295   2.04156
H     0.45364   2.42262  -1.41846
H     0.87832   1.48228  -2.90059
H     1.94542   1.48425  -1.44351
