40
Generated by autodE on: 2022-05-29. E = -1055.583096 Ha. Imaginary frequency = -383.7 cm-1
C    -0.86859  -3.68395   0.78982
N    -0.13247  -2.59860   0.17399
C     0.07694  -1.42869   0.82802
O    -0.26925  -1.28391   2.01331
C     0.71956  -0.35551   0.04793
C     1.43669  -0.56074  -1.28333
C     2.79311  -1.25216  -0.92581
C     3.56487  -0.13212  -0.16731
C     2.58666   1.08030  -0.23627
C     1.93832   0.86032  -1.61199
C     1.43103   0.71098   0.66117
F     1.63131   0.75272   1.98733
O     0.28185   2.22544   0.57081
N    -0.90993   1.75238   0.76109
C    -1.42053   0.87442  -0.11426
C    -2.53330   0.03936   0.46318
C    -3.18384  -1.00704  -0.38611
O    -2.86183   0.23870   1.62428
C    -1.31367   1.09117  -1.59147
C    -1.25397   2.51553  -2.07522
O    -1.39735   0.14999  -2.36564
H    -1.88339  -3.36795   1.08297
H    -0.35653  -4.05070   1.69333
H    -0.94883  -4.51001   0.07231
H     0.08047  -2.65383  -0.81531
H     0.85014  -1.06628  -2.06008
H     2.64667  -2.15649  -0.32070
H     3.31322  -1.54389  -1.85018
H     4.50529   0.12732  -0.67364
H     3.80445  -0.40184   0.87092
H     3.03108   2.05898  -0.01851
H     2.67594   0.86214  -2.42676
H     1.15015   1.58386  -1.83913
H    -1.21693   1.62470   1.73630
H    -2.43128  -1.68049  -0.81727
H    -3.70558  -0.53120  -1.23162
H    -3.90040  -1.56703   0.22735
H    -2.27494   2.92836  -1.99231
H    -0.94781   2.53369  -3.12890
H    -0.59275   3.13977  -1.46306
