19
Generated by autodE on: 2022-06-20. E = -569.543896 Ha
N     3.82742   1.58531   2.14187
C     3.25008   0.90437   1.38367
C     2.59871   0.07482   0.46697
O     1.29051   0.19363   0.38754
C     0.43047  -0.44098  -0.37370
C     0.92271  -1.41880  -1.27286
N     1.35676  -2.21768  -2.00342
C    -0.97309  -0.10526  -0.25069
C    -1.93098  -0.77661  -1.04094
C    -3.28215  -0.45845  -0.92479
C    -3.70082   0.52851  -0.02568
C    -2.75446   1.19895   0.76067
C    -1.40164   0.89021   0.65479
H     3.12620  -0.64117  -0.16654
H    -1.61233  -1.54855  -1.74471
H    -4.01389  -0.98554  -1.54079
H    -4.76092   0.77565   0.06299
H    -3.07644   1.97075   1.46328
H    -0.66860   1.41494   1.26888
