19
Generated by autodE on: 2022-07-27. E = -569.540475 Ha
N    -2.06952  -3.76964   0.74839
C    -1.89542  -2.88974  -0.00498
C    -1.75010  -1.88432  -0.96678
O    -0.98517  -0.82474  -0.82834
C    -0.18792  -0.35985   0.10008
C    -0.00186  -1.06775   1.31479
N     0.18936  -1.60665   2.33113
C     0.49302   0.89473  -0.16923
C     0.29736   1.57201  -1.39289
C     0.95724   2.77234  -1.63906
C     1.81930   3.31979  -0.67982
C     2.01720   2.65387   0.53444
C     1.36241   1.45157   0.79304
H    -2.28070  -1.92073  -1.91695
H    -0.37228   1.15085  -2.14367
H     0.79870   3.28776  -2.58897
H     2.33445   4.26186  -0.87962
H     2.68757   3.07361   1.28756
H     1.52396   0.93963   1.74378
