35
Generated by autodE on: 2022-06-17. E = -840.846129 Ha
C     3.81852   2.04116  -0.68498
N     2.95353   0.96399  -0.25089
C     1.81649   1.14630   0.44086
O     1.39750   2.25121   0.80705
C     1.06139  -0.14179   0.78589
N    -0.10798   0.13319   1.62475
C    -1.31571  -0.35778   0.96569
C    -2.02443   0.71666   0.15841
O    -1.47231   1.63897  -0.40999
O    -3.34623   0.52110   0.12508
C    -4.11413   1.41818  -0.69059
C    -0.82269  -1.50877   0.03688
C    -1.77181  -1.83193  -1.11705
C    -0.58864  -2.76594   0.88825
C     0.52667  -0.90112  -0.44555
C     1.46547  -1.89123  -1.06386
O     2.66981  -1.91023  -0.88188
H     3.90919   2.05857  -1.78265
H     3.39414   2.99551  -0.35152
H     4.82833   1.93512  -0.25771
H     3.19941   0.00271  -0.48790
H     1.77981  -0.79306   1.31429
H    -0.15436   1.14190   1.76986
H    -2.04424  -0.75555   1.68725
H    -5.15835   1.10021  -0.59144
H    -3.99651   2.45340  -0.33976
H    -3.79402   1.34984  -1.74055
H    -1.89957  -0.97703  -1.79864
H    -2.76192  -2.12271  -0.73543
H    -1.37891  -2.67334  -1.70770
H    -0.13894  -3.56899   0.28349
H     0.07502  -2.56699   1.74180
H    -1.54665  -3.13895   1.28110
H     0.29496  -0.18708  -1.25787
H     0.99744  -2.62710  -1.75620
