14
Generated by autodE on: 2022-06-17. E = -270.687342 Ha
C    -0.80818  -1.60077   0.77157
C    -0.93708  -0.26403   0.10449
C    -2.34604   0.17719  -0.15207
C     0.10482   0.52848  -0.26100
C     1.51162   0.22419  -0.06717
O     2.42086   0.97309  -0.41676
H    -1.30991  -2.36718   0.15671
H    -1.34367  -1.58273   1.73603
H     0.22510  -1.91889   0.95120
H    -2.39451   1.15894  -0.64289
H    -2.86720  -0.56521  -0.78105
H    -2.90723   0.22219   0.79743
H    -0.09681   1.48956  -0.74599
H     1.75759  -0.74217   0.42743
