35
Generated by autodE on: 2022-06-17. E = -840.792786 Ha. Imaginary frequency = -298.1 cm-1
C     4.47532   1.51864  -0.60000
N     3.40878   0.92450   0.18241
C     2.15343   1.41507   0.11647
O     1.84596   2.45515  -0.48525
C     1.12609   0.60126   0.79953
N    -0.13678   0.96612   0.63705
C    -1.17692   0.10299   0.84117
C    -2.48406   0.62511   0.43967
O    -2.64080   1.61351  -0.26314
O    -3.49382  -0.14695   0.86440
C    -4.80711   0.20760   0.40983
C    -0.66442  -1.45903  -0.55730
C    -1.43873  -1.02238  -1.78464
C    -1.27859  -2.63071   0.18158
C     0.74764  -1.31928  -0.65102
C     1.70556  -2.07789   0.09307
O     2.93800  -2.03086  -0.06934
H     4.34823   1.33373  -1.68091
H     4.49862   2.60552  -0.44206
H     5.43507   1.09326  -0.28065
H     3.50072  -0.06285   0.42895
H     1.37906  -0.09105   1.59926
H    -0.29622   1.71487  -0.04722
H    -1.11781  -0.54439   1.71518
H    -5.48709  -0.53563   0.84175
H    -5.07678   1.21542   0.75707
H    -4.85694   0.17449  -0.68830
H    -1.13019  -0.02314  -2.12648
H    -2.52367  -1.01516  -1.60598
H    -1.24997  -1.73159  -2.60950
H    -1.22852  -3.53609  -0.44798
H    -0.77408  -2.85101   1.13179
H    -2.33868  -2.43577   0.39660
H     1.15464  -0.73353  -1.48070
H     1.29810  -2.73938   0.89087
