44
Generated by autodE on: 2022-12-30. E = -1108.117411 Ha
C    -3.47885   2.34766  -1.33240
N    -2.53338   1.25130  -1.26847
C    -1.62443   1.15179  -0.28257
O    -1.47563   2.04105   0.57272
C    -0.77246  -0.06365  -0.25821
C    -1.07348  -1.38078  -0.25341
O    -2.23106  -2.04582  -0.29586
C    -3.46959  -1.41151   0.02971
C     0.15053  -2.25687  -0.07624
C     0.03005  -3.01806   1.25732
C     0.29865  -3.25485  -1.23267
N     1.24229  -1.25904  -0.10565
C     2.46102  -1.56942   0.61676
C     0.71915   0.10214  -0.02787
C     1.34267   1.01839  -1.10783
O     0.70893   1.82238  -1.75904
O     2.64972   0.83037  -1.25120
C     3.32255   1.65307  -2.21766
C     0.98321   0.80895   1.32391
O     1.64758   1.81893   1.43719
O     0.43135   0.16320   2.34331
C     0.59289   0.74853   3.64495
H    -4.13993   2.19645  -2.19440
H    -4.09205   2.39741  -0.41813
H    -2.96196   3.31390  -1.44704
H    -2.57668   0.51538  -1.96419
H    -3.88705  -0.87904  -0.83529
H    -3.33652  -0.71310   0.86989
H    -4.15407  -2.21677   0.32598
H    -0.04990  -2.32248   2.10347
H     0.90009  -3.67161   1.41423
H    -0.86855  -3.65068   1.23920
H     1.23617  -3.82107  -1.12033
H    -0.53546  -3.97237  -1.23868
H     0.32077  -2.72813  -2.19813
H     2.34265  -1.59164   1.71690
H     3.23230  -0.82798   0.37315
H     2.83684  -2.55286   0.29784
H     3.22129   2.71453  -1.94961
H     4.37560   1.35139  -2.18833
H     2.90490   1.48571  -3.22058
H     0.10100   0.06506   4.34596
H     1.65908   0.84897   3.89178
H     0.11116   1.73643   3.67175
