29
Generated by autodE on: 2022-12-30. E = -707.974394 Ha
C    -2.18957   2.87073   0.16741
O    -1.55591   1.59934   0.27707
C    -0.21420   1.56130  -0.00377
O     0.39362   2.59323  -0.29461
C     0.32557   0.24264   0.09369
C     1.70710  -0.05237  -0.11168
O     2.61440   0.73609  -0.38072
O     1.96467  -1.39469   0.01569
C     3.32396  -1.79325  -0.14022
N    -0.54914  -0.84152   0.45667
C    -0.42676  -1.36007   1.82999
C    -1.48457  -1.27733  -0.34221
C    -2.48018  -2.27517   0.14071
C    -1.59776  -0.78658  -1.73748
H    -2.10361   3.27247  -0.85399
H    -3.24682   2.70697   0.41193
H    -1.75449   3.59663   0.87148
H     3.97193  -1.30648   0.60511
H     3.69817  -1.55032  -1.14672
H     3.34270  -2.88051   0.00815
H    -1.21747  -0.92010   2.45635
H     0.54907  -1.06207   2.22249
H    -0.51002  -2.45362   1.84777
H    -1.99237  -3.25882   0.25527
H    -2.88678  -1.99500   1.12371
H    -3.29939  -2.37800  -0.58041
H    -0.66763  -0.32955  -2.09546
H    -1.90813  -1.61652  -2.38889
H    -2.39795  -0.02695  -1.77598
