44
Generated by autodE on: 2022-12-30. E = -1108.003712 Ha. Imaginary frequency = -349.3 cm-1
C    -2.22032   3.18820  -0.91232
N    -1.74758   1.81889  -0.93801
C    -2.08266   0.96202   0.04888
O    -2.95844   1.22248   0.89492
C    -1.40061  -0.31889   0.08371
C    -1.25160  -1.53721   0.32950
O    -1.74838  -2.69489   0.70835
C    -3.14429  -2.64227   1.07756
C     0.79216  -2.08885  -0.15102
C     1.03539  -3.43138   0.47823
C     0.52367  -2.15053  -1.63268
N     1.36960  -1.00256   0.43394
C     2.01453  -1.17786   1.74659
C     1.09205   0.27567  -0.04014
C     1.45150   0.63054  -1.41707
O     0.91519   1.50014  -2.09767
O     2.48731  -0.08794  -1.88261
C     2.82491   0.08976  -3.26352
C     0.78932   1.38626   0.86417
O     0.79883   2.56733   0.53821
O     0.42793   1.00035   2.10361
C     0.00508   2.03031   3.00097
H    -1.80718   3.74553  -0.05364
H    -3.31703   3.22354  -0.84628
H    -1.90715   3.68977  -1.83706
H    -0.87671   1.64096  -1.44598
H    -3.75389  -2.43722   0.18434
H    -3.30280  -1.85012   1.82433
H    -3.39424  -3.62554   1.49436
H     0.40564  -4.18428  -0.00946
H     0.82608  -3.44388   1.55461
H     2.08902  -3.72654   0.32840
H     1.46270  -2.41230  -2.14951
H    -0.20632  -2.94645  -1.82791
H     0.13592  -1.21990  -2.05693
H     1.28727  -1.43991   2.52647
H     2.52356  -0.25165   2.02085
H     2.76626  -1.97358   1.66714
H     3.64129  -0.61282  -3.46753
H     3.15775   1.12067  -3.45137
H     1.96083  -0.13592  -3.90562
H    -0.16184   1.53723   3.96621
H     0.77399   2.80928   3.10329
H    -0.93277   2.48262   2.64609
