39
Generated by autodE on: 2022-07-04. E = -993.302921 Ha
C    -2.64174  -3.66086  -0.02728
N    -2.59641  -2.21615  -0.03576
C    -1.43310  -1.53846   0.05737
O    -0.33859  -2.15125   0.13019
C    -1.49867  -0.07730   0.08826
C    -2.69420   0.66095  -0.17170
O    -3.83669   0.18556  -0.24905
O    -2.48666   1.98782  -0.38569
C    -3.64830   2.79256  -0.59291
N    -0.28109   0.58265   0.36503
C    -0.27509   1.55396   1.47925
C     0.84638   0.17566  -0.17300
C     0.83841  -0.60109  -1.48171
C     1.92359  -1.61981  -1.68082
O     0.05136  -0.30033  -2.36171
C     2.15965   0.50514   0.40915
C     3.12918   1.15625  -0.37334
C     4.38612   1.43746   0.16291
C     4.69314   1.05122   1.47171
C     3.73850   0.38337   2.24645
C     2.47498   0.11243   1.72216
H    -2.46174  -4.08235   0.97733
H    -3.63358  -3.98904  -0.36466
H    -1.88124  -4.07839  -0.70415
H    -3.44896  -1.65721  -0.04638
H    -3.28544   3.82045  -0.71646
H    -4.32864   2.73778   0.27034
H    -4.19013   2.47730  -1.49708
H    -0.19798   1.01322   2.43118
H     0.56582   2.24652   1.36901
H    -1.21596   2.10813   1.45446
H     2.78661  -1.12642  -2.15820
H     2.26011  -2.05884  -0.73420
H     1.55584  -2.39896  -2.36206
H     2.88899   1.45414  -1.39622
H     5.12996   1.95700  -0.44495
H     5.68052   1.26545   1.88698
H     3.98051   0.06822   3.26380
H     1.73451  -0.42370   2.31796
