70
Generated by autodE on: 2022-07-04. E = -6833.273085 Ha. Imaginary frequency = -202.9 cm-1
C   -11.41449   7.85444  -2.63686
N   -11.71357   6.50194  -2.21611
C   -12.18857   6.28457  -0.96861
O   -12.57678   7.22034  -0.26557
C   -12.24346   4.84705  -0.47780
C   -11.31530   3.87367  -1.11524
O   -10.56449   4.14713  -2.04529
O   -11.31602   2.64148  -0.60699
C   -10.47593   1.65499  -1.21349
C   -10.82476   4.63932   1.58261
C   -11.23330   3.55498   2.04209
C   -10.70543   2.46082   2.91375
C   -11.68340   1.26595   3.24293
C   -11.29041  -0.13105   2.86318
O   -12.66362   1.49089   3.92339
C   -10.51056   3.05920   4.32869
O   -11.18153   3.95100   4.79779
O    -9.55708   2.42367   5.00647
C    -9.33666   2.84668   6.36235
C    -9.37270   1.95490   2.28551
C    -8.42096   2.96926   1.63931
C    -7.87284   4.16027   2.43971
C    -8.80539   5.32784   2.82053
C    -9.87999   5.71976   1.79698
Br   -8.98027   6.32381   0.11557
Br  -10.85159   7.30366   2.56280
C   -13.45818   3.31623   0.98171
C   -13.37311   1.99082   0.27002
C   -13.93307   1.93162  -1.13147
O   -13.11286   0.96357   0.87659
C   -14.31737   3.31269   2.19324
C   -15.32687   2.35131   2.38471
C   -16.08671   2.34084   3.55549
C   -15.85312   3.28814   4.55602
C   -14.85720   4.25481   4.37341
C   -14.10026   4.26925   3.20577
N   -13.33755   4.48825   0.28699
C   -14.41565   5.49568   0.49551
H   -12.31556   8.48481  -2.60846
H   -10.65621   8.32626  -1.98714
H   -11.03411   7.83134  -3.66602
H   -11.19153   5.73190  -2.63117
H    -9.41785   1.91174  -1.06888
H   -10.69494   1.57231  -2.28682
H   -10.71367   0.71526  -0.70219
H   -10.39702  -0.41244   3.44471
H   -11.03691  -0.22022   1.80068
H   -12.11560  -0.80908   3.11368
H   -10.25608   2.72730   6.95247
H    -8.54310   2.19981   6.75277
H    -9.01764   3.89835   6.38405
H    -8.84376   1.38018   3.05657
H    -9.63935   1.24459   1.49449
H    -7.54458   2.37899   1.32443
H    -8.86254   3.33811   0.70321
H    -7.41674   3.80184   3.37726
H    -7.04976   4.57913   1.84019
H    -8.19057   6.21537   3.02811
H    -9.35229   5.11738   3.74798
H   -15.01795   1.75720  -1.02300
H   -13.80260   2.85479  -1.70827
H   -13.49840   1.07808  -1.66885
H   -15.52488   1.60200   1.61771
H   -16.86598   1.58636   3.68542
H   -16.44269   3.27294   5.47564
H   -14.65847   4.99278   5.15396
H   -13.30612   5.00545   3.08861
H   -14.62612   5.97693  -0.46393
H   -15.31016   4.96025   0.82126
H   -14.13418   6.25971   1.22276
