22
Generated by autodE on: 2022-06-04. E = -425.583606 Ha
C     2.53635   1.05394   0.47648
C     1.68042  -0.13302   0.83183
O     2.02225  -0.93380   1.70198
C     0.41804  -0.29786   0.08931
C    -0.57319  -1.16036   0.41711
C    -1.74903  -0.87381  -0.48406
C    -2.31475   0.50768   0.00107
C    -1.18930   1.50623  -0.39170
C    -0.11295   0.57867  -1.04085
C    -1.01571  -0.43705  -1.77272
H     3.41140   1.10365   1.13758
H     1.95126   1.98490   0.55178
H     2.86736   0.97327  -0.57226
H    -0.57146  -1.84981   1.26367
H    -2.50374  -1.66592  -0.56428
H    -2.53252   0.50264   1.07854
H    -3.25240   0.72694  -0.53099
H    -0.78404   2.05884   0.46798
H    -1.54762   2.24203  -1.12698
H     0.64075   1.10388  -1.63900
H    -1.68318   0.02686  -2.51523
H    -0.44894  -1.25522  -2.24172
