33
Generated by autodE on: 2022-07-27. E = -860.440936 Ha
C    -4.16488   1.56199   1.81761
O    -3.35284   1.80347   0.66792
C    -2.22003   1.06128   0.56295
O    -1.90792   0.23130   1.41646
C    -1.53881   1.35528  -0.66460
N    -0.43625   0.69934  -1.09430
C    -0.24536   0.73030  -2.56536
C     0.45701   0.04302  -0.32197
C     0.69296   0.42922   1.08311
O     1.15655  -0.32835   1.92018
O     0.46823   1.72738   1.33350
C     0.58578   2.14764   2.69553
C     1.24508  -1.07471  -0.86321
C     0.64230  -2.05839  -1.67350
C     1.38957  -3.12099  -2.18238
C     2.75121  -3.23138  -1.88409
C     3.35950  -2.27009  -1.06843
C     2.61720  -1.20422  -0.56272
H    -3.59966   1.74542   2.74426
H    -5.00641   2.26220   1.74878
H    -4.54033   0.52736   1.82664
H    -2.01687   2.01955  -1.37984
H    -0.47566   1.74786  -2.90475
H    -0.93194   0.02713  -3.05183
H     0.79109   0.48722  -2.81320
H    -0.08278   1.55623   3.33767
H     1.62148   2.04189   3.05054
H     0.28802   3.20275   2.71341
H    -0.42544  -1.99973  -1.89103
H     0.90162  -3.87373  -2.80605
H     3.33533  -4.06516  -2.28035
H     4.42295  -2.34800  -0.83042
H     3.10547  -0.45510   0.06274
