43
Generated by autodE on: 2022-06-01. E = -1442.853283 Ha
C     2.00477  -1.45153  -0.33010
C     1.23817  -0.10433  -0.29490
C     2.27775   0.98111   0.03481
C     2.93531   1.64923  -1.01167
C     3.92399   2.60070  -0.75031
C     4.28302   2.90298   0.56544
C     3.64735   2.23246   1.61269
C     2.66089   1.27713   1.35118
N     0.77947   0.06067  -1.67971
C    -0.47752  -0.10271  -1.77734
C    -1.11047  -0.05554  -3.07192
N    -1.62293  -0.01317  -4.11241
C    -1.27262  -0.27406  -0.49566
C    -2.07399  -1.58012  -0.57796
F    -1.32500  -2.62360  -0.97445
F    -2.66036  -1.90724   0.58116
F    -3.05811  -1.45764  -1.49261
C    -2.24228   0.93852  -0.21889
C    -1.61048   2.24580  -0.72773
C    -0.41902   2.44579   0.24880
C    -0.54574   1.26134   1.23981
C    -2.08405   1.12205   1.29282
C    -0.10761  -0.10513   0.59175
C    -0.03357  -1.17259   1.71562
F    -1.02960  -1.09706   2.61416
F     1.10001  -1.03155   2.43604
F    -0.03960  -2.43728   1.26498
H     2.46611  -1.67148   0.63914
H     1.34744  -2.27807  -0.62490
H     2.80668  -1.35798  -1.07442
H     2.66239   1.42978  -2.04234
H     4.41339   3.10899  -1.58466
H     5.05236   3.65053   0.77215
H     3.91829   2.44927   2.64875
H     2.19452   0.77217   2.19186
H    -3.25332   0.75140  -0.59606
H    -1.30713   2.22302  -1.78236
H    -2.35190   3.05081  -0.62877
H    -0.52257   3.38093   0.81654
H     0.54396   2.49365  -0.26527
H    -0.04743   1.44456   2.19772
H    -2.56063   2.04971   1.64130
H    -2.46530   0.28913   1.88637
