20
Generated by autodE on: 2022-06-01. E = -495.526424 Ha
C     0.64760  -2.51718  -0.38024
C     0.48561  -1.06520  -0.02424
N     1.52427  -0.37856   0.25651
C     2.47772   0.27722   0.69243
C     3.34589   1.07178  -0.08242
N     4.15378   1.77054  -0.55989
C    -0.83972  -0.41525   0.00601
C    -1.99709  -1.16033  -0.28900
C    -3.25425  -0.55419  -0.25309
C    -3.37738   0.79847   0.07643
C    -2.23107   1.54687   0.37061
C    -0.97337   0.94897   0.33410
H     0.25788  -2.70983  -1.39197
H     0.07784  -3.14518   0.32274
H     1.70456  -2.80883  -0.34361
H    -1.92138  -2.21728  -0.54536
H    -4.14323  -1.14531  -0.48447
H    -4.36233   1.27008   0.10244
H    -2.31846   2.60510   0.62715
H    -0.08622   1.54408   0.55954
