43
Generated by autodE on: 2022-06-01. E = -1442.767922 Ha. Imaginary frequency = -240.3 cm-1
C     2.24155  -1.90124  -0.17797
C     1.82566  -0.52295  -0.60592
C     2.64038   0.65936  -0.28111
C     2.69976   1.75127  -1.16999
C     3.43524   2.88758  -0.84213
C     4.12181   2.95316   0.37559
C     4.07957   1.86694   1.25605
C     3.35393   0.72130   0.93004
N     0.94969  -0.42525  -1.56406
C    -0.22306  -0.28792  -1.91650
C    -0.73333  -0.25334  -3.23166
N    -1.29229  -0.18969  -4.25351
C    -1.45443  -0.15564  -0.19338
C    -2.23023  -1.40433  -0.54305
F    -1.46287  -2.47305  -0.83509
F    -3.04127  -1.77719   0.47225
F    -3.02796  -1.20943  -1.61430
C    -2.18977   1.20026  -0.33813
C    -1.18222   2.30969  -0.73778
C    -0.29075   2.45454   0.52661
C    -0.89752   1.40403   1.48596
C    -2.40489   1.54352   1.15592
C    -0.65768  -0.01631   0.94802
C    -0.27704  -1.04198   1.93480
F    -0.19024  -2.29584   1.45027
F    -1.17050  -1.11239   2.97144
F     0.91304  -0.77207   2.54084
H     2.41565  -1.93530   0.90410
H     1.47718  -2.63976  -0.44330
H     3.19001  -2.15970  -0.67861
H     2.16824   1.70209  -2.12187
H     3.47448   3.72647  -1.54041
H     4.69442   3.84650   0.63474
H     4.61572   1.91172   2.20654
H     3.31542  -0.10935   1.63395
H    -3.07625   1.15054  -0.98020
H    -0.61011   2.06496  -1.64282
H    -1.73706   3.23561  -0.94758
H    -0.37901   3.45991   0.96509
H     0.76877   2.26969   0.32965
H    -0.60176   1.53393   2.53446
H    -3.02679   0.80579   1.68244
H    -2.80733   2.55725   1.31426
