47
Generated by autodE on: 2022-06-20. E = -795.384175 Ha
C     5.38554  -0.08974   1.23519
C     4.63379   1.18183   0.95448
C     5.41847   2.44192   1.19520
C     3.35211   1.23357   0.51948
C     2.46908   0.10971   0.24457
C     1.20023   0.25402  -0.18477
C     0.22977  -0.83807  -0.54162
C    -0.03006  -0.73970  -2.05884
C     0.68783  -2.26881  -0.19330
C    -0.60928  -3.06481   0.02641
N    -1.69305  -2.08009   0.02680
C    -2.84170  -2.47618   0.81033
C    -1.12479  -0.74479   0.28676
C    -0.82737  -0.53567   1.78671
C    -2.04033   0.36074  -0.23826
C    -3.01803   0.09599  -1.21151
C    -3.82086   1.11560  -1.72884
C    -3.66197   2.43271  -1.28735
C    -2.69472   2.71300  -0.31877
C    -1.89842   1.68794   0.20189
H     5.72901  -0.10817   2.28477
H     4.79878  -0.99934   1.05293
H     6.29791  -0.14049   0.61477
H     4.83037   3.34582   0.97776
H     5.76448   2.49530   2.24326
H     6.33068   2.46176   0.57189
H     2.91490   2.22567   0.35193
H     2.86760  -0.89691   0.39792
H     0.82441   1.27168  -0.34970
H     0.90687  -0.94404  -2.59939
H    -0.78286  -1.47055  -2.38582
H    -0.37553   0.26276  -2.34967
H     1.31811  -2.69408  -0.98705
H     1.28376  -2.26548   0.72875
H    -0.78040  -3.82224  -0.75869
H    -0.56305  -3.61712   0.98666
H    -3.61992  -1.69909   0.78250
H    -3.27876  -3.39768   0.39065
H    -2.60485  -2.68492   1.87565
H    -0.26742  -1.38919   2.19594
H    -1.76298  -0.43847   2.35651
H    -0.22672   0.36426   1.96968
H    -3.14329  -0.92682  -1.56427
H    -4.57549   0.87834  -2.48324
H    -4.28834   3.23171  -1.69146
H    -2.55802   3.73627   0.04008
H    -1.15572   1.93623   0.95994
