23
Generated by autodE on: 2022-06-20. E = -351.521385 Ha
C     3.76177  -0.17531  -0.33943
C     2.57297   0.16047   0.20806
C     2.49582   0.96873   1.47804
C     1.32915  -0.26060  -0.43361
C     0.07688   0.00971   0.01314
C    -1.12440  -0.43336  -0.66466
C    -2.40758  -0.20820  -0.28486
C    -3.55455  -0.73622  -1.09947
C    -2.80731   0.56287   0.94102
H     4.70751   0.12638   0.11928
H     3.81437  -0.76194  -1.26182
H     3.49849   1.21613   1.85421
H     1.95549   0.41947   2.26689
H     1.94449   1.91004   1.31677
H     1.44005  -0.84487  -1.35508
H    -0.04268   0.59147   0.93119
H    -0.96342  -1.01217  -1.58222
H    -3.21478  -1.29284  -1.98521
H    -4.19252  -1.40252  -0.49130
H    -4.20875   0.08866  -1.43484
H    -3.43286   1.42872   0.66032
H    -1.95658   0.93197   1.52808
H    -3.43313  -0.06489   1.59969
