47
Generated by autodE on: 2022-06-20. E = -795.308179 Ha. Imaginary frequency = -267.8 cm-1
C     4.70349  -0.16439   1.99923
C     4.42471   0.93169   1.00875
C     5.23969   2.18026   1.20106
C     3.51062   0.83941   0.00719
C     2.64921  -0.27956  -0.30391
C     1.73956  -0.26712  -1.32649
C     0.81864  -1.31596  -1.69325
C    -0.18576  -0.98573  -2.77210
C     0.83411  -2.56483  -1.10242
C    -0.24898  -2.49788   0.93010
N    -1.31349  -1.69031   0.71100
C    -2.50197  -2.38255   0.19118
C    -1.25254  -0.33283   0.83107
C    -0.12466   0.20331   1.64946
C    -2.25365   0.56443   0.26066
C    -2.92542   0.32051  -0.96703
C    -3.85339   1.22458  -1.48537
C    -4.14697   2.41588  -0.81558
C    -3.48696   2.68827   0.38989
C    -2.56327   1.78833   0.91413
H     4.52617   0.19146   3.03036
H     4.09287  -1.06340   1.84206
H     5.76676  -0.46315   1.95988
H     4.99878   2.95214   0.45469
H     5.07740   2.60964   2.20704
H     6.32192   1.96284   1.13640
H     3.39619   1.71463  -0.64553
H     2.74274  -1.18136   0.30803
H     1.66337   0.65899  -1.91141
H     0.31847  -0.80115  -3.73851
H    -0.90306  -1.80606  -2.92415
H    -0.76113  -0.07207  -2.54562
H     0.19261  -3.35388  -1.50153
H     1.70718  -2.90436  -0.54198
H    -0.46035  -3.55946   1.04638
H     0.61140  -2.08910   1.44918
H    -3.40506  -1.79843   0.39053
H    -2.40679  -2.56366  -0.88820
H    -2.58287  -3.34948   0.70235
H    -0.04395  -0.31964   2.62088
H    -0.23803   1.27589   1.83854
H     0.85486   0.07425   1.14602
H    -2.70185  -0.57279  -1.54313
H    -4.34180   0.99673  -2.43655
H    -4.87169   3.12256  -1.22610
H    -3.70193   3.61124   0.93487
H    -2.08568   2.02533   1.86566
