23
Generated by autodE on: 2022-07-27. E = -642.528226 Ha
C     4.93718  -0.07408   0.31514
N     3.53055  -0.16412   0.64537
C     2.53961   0.07712  -0.23225
O     2.71144   0.40213  -1.42021
C     1.17608  -0.07174   0.30941
N     0.21824   0.16318  -0.55318
C    -1.14351   0.13575  -0.48101
C    -1.84666   0.46431  -1.65703
N    -2.46321   0.73288  -2.61440
C    -1.83097  -0.22284   0.76720
O    -1.18887  -0.50436   1.79433
N    -3.18592  -0.22603   0.72468
C    -4.01385  -0.55784   1.86435
H     5.43876  -1.04363   0.46174
H     5.03755   0.22154  -0.73537
H     5.44152   0.67488   0.94569
H     3.27213  -0.42331   1.59334
H     0.94268  -0.35423   1.33126
H     0.61075   0.41978  -1.47505
H    -3.65064   0.00798  -0.14659
H    -3.36611  -0.77584   2.72123
H    -4.67956   0.27921   2.12901
H    -4.63752  -1.44302   1.65994
