37
Generated by autodE on: 2022-06-18. E = -913.204161 Ha. Imaginary frequency = -379.7 cm-1
C     4.81780   0.55255   0.19501
N     3.42187   0.55915   0.58781
C     2.46677   1.01177  -0.24307
O     2.68903   1.55332  -1.33455
C     1.06901   0.78224   0.22590
N     0.11280   1.19810  -0.61674
C    -1.16878   0.66161  -0.57141
C    -1.95625   0.90594  -1.73502
N    -2.61311   1.03960  -2.68820
C    -1.88097   0.61628   0.74502
O    -1.26299   0.67250   1.81682
N    -3.22054   0.47672   0.69970
C    -3.98663   0.22208   1.90444
C    -0.50920  -1.47264  -0.70944
C    -1.70928  -2.21054  -0.16764
C    -0.33850  -1.56484  -2.20651
C     0.71406  -1.37524   0.02214
C     0.84431  -1.71053   1.42681
O     1.91769  -1.71651   2.03619
H     5.43284   0.29162   1.06509
H     5.11553   1.54727  -0.16487
H     5.01494  -0.17527  -0.61071
H     3.12310  -0.07780   1.32899
H     0.84467   0.74710   1.28584
H     0.47183   1.42419  -1.54938
H    -3.67950   0.35210  -0.19666
H    -5.05377   0.22533   1.65149
H    -3.79792   1.00076   2.65763
H    -3.72906  -0.75402   2.34904
H    -1.87306  -2.06331   0.90703
H    -2.62344  -1.91778  -0.70361
H    -1.56530  -3.29218  -0.33761
H     0.05631  -2.56445  -2.46098
H    -1.28778  -1.43767  -2.74450
H     0.38723  -0.82352  -2.57564
H     1.64120  -1.44925  -0.55231
H    -0.09225  -1.93259   1.98136
