25
Generated by autodE on: 2022-06-23. E = -573.226724 Ha
C     3.11420   1.89032   0.17308
C     2.79644   0.43338  -0.10061
O     3.71104  -0.39533  -0.22469
C     1.38474   0.15124  -0.18216
N     0.82782  -1.04210  -0.47113
C     1.68232  -2.19353  -0.83236
N    -0.43566  -1.32516  -0.51806
C    -1.37558  -0.38532  -0.06043
C    -1.33543   0.18028   1.23123
C    -2.37583   0.99886   1.66813
C    -3.46267   1.27924   0.83045
C    -3.50918   0.71621  -0.44823
C    -2.48038  -0.11906  -0.88823
H     2.72745   2.52694  -0.63950
H     2.63005   2.22544   1.10465
H     4.20118   2.02159   0.25495
H     0.68765   0.96514  -0.00155
H     2.35031  -1.91342  -1.65330
H     2.28748  -2.47885   0.03521
H     1.00845  -3.00328  -1.12403
H    -0.49762  -0.03641   1.89632
H    -2.33850   1.42091   2.67537
H    -4.27084   1.92700   1.17721
H    -4.35545   0.92204  -1.10800
H    -2.51679  -0.57719  -1.87861
