26
Generated by autodE on: 2022-06-23. E = -689.456720 Ha
C     2.28832  -2.55311  -0.47184
O     2.12729  -1.20733  -0.00239
C     0.90703  -0.63134   0.00589
C     0.79773   0.68519  -0.33669
O     1.89267   1.33375  -0.78237
C     2.12247   2.70536  -0.43114
C    -0.53604   1.33604  -0.37904
O    -0.65727   2.45676  -0.86498
C    -1.72231   0.59312   0.13892
C    -3.03664   1.30961   0.15243
C    -1.60358  -0.69952   0.52959
C    -2.77650  -1.49572   1.01023
C    -0.26722  -1.36397   0.54080
O    -0.12613  -2.48838   1.01325
H     3.30469  -2.61045  -0.88596
H     1.56223  -2.78667  -1.26471
H     2.18391  -3.27538   0.34856
H     3.21365   2.83513  -0.41689
H     1.71882   2.93413   0.56643
H     1.68079   3.38425  -1.17248
H    -3.47226   1.30367   1.16492
H    -2.92790   2.34804  -0.18144
H    -3.76303   0.80315  -0.50502
H    -3.55499  -1.54957   0.23150
H    -2.47945  -2.51431   1.28588
H    -3.24182  -1.01449   1.88651
