51
Generated by autodE on: 2022-06-23. E = -1262.672234 Ha. Imaginary frequency = -375.9 cm-1
C    -2.57993   0.54291  -3.03834
O    -1.85328   1.30964  -2.07798
C    -1.60294   0.67075  -0.86545
C    -2.81323   0.51518   0.02147
O    -3.85758   1.09062  -0.26226
C    -2.65609  -0.28357   1.25941
C    -3.64475  -0.03456   2.36356
C    -1.64513  -1.18850   1.32881
C    -1.38177  -2.03485   2.53188
C    -0.70169  -1.41572   0.18088
O     0.08335  -2.38466   0.22273
C    -0.74154  -0.47987  -0.90550
O     0.05619  -0.57885  -1.99839
C     0.31335  -1.85577  -2.58884
N     1.02019   0.67914   0.47698
C     2.14911  -0.08161   0.24702
C     2.47727  -0.93489   1.33055
C     3.52299  -1.84582   1.23698
C     4.24488  -1.95786   0.04335
C     3.90923  -1.14944  -1.04871
C     2.87929  -0.21508  -0.96190
N     0.69352   1.75232  -0.18221
C     1.43422   2.38340  -1.28580
C    -0.63723   2.11878  -0.01096
C    -1.13615   2.38102   1.38711
C    -2.30677   3.33073   1.44952
O    -0.60790   1.95193   2.40001
H    -3.57345   0.26026  -2.65757
H    -2.03048  -0.36407  -3.33348
H    -2.70462   1.18799  -3.91890
H    -3.14771   0.44554   3.22294
H    -4.10082  -0.96788   2.72662
H    -4.44615   0.62946   2.01634
H    -2.15352  -1.92575   3.30202
H    -0.40939  -1.75079   2.97153
H    -1.29354  -3.09511   2.25141
H     1.07709  -2.41305  -2.03329
H     0.67026  -1.64973  -3.60714
H    -0.61096  -2.45243  -2.64224
H     1.88726  -0.84663   2.24358
H     3.76729  -2.48207   2.09035
H     5.06000  -2.68007  -0.04067
H     4.45589  -1.25046  -1.98900
H     2.63507   0.36718  -1.84271
H     1.24618   1.86518  -2.23510
H     2.50498   2.38281  -1.05389
H     1.08778   3.41978  -1.36402
H    -0.91912   2.93023  -0.68204
H    -2.96379   3.24783   0.57474
H    -2.87133   3.17297   2.37783
H    -1.89652   4.35602   1.45835
