29
Generated by autodE on: 2022-06-19. E = -870.512396 Ha
C    -1.12942   3.51371  -0.99644
N    -0.90726   2.28493  -0.25664
C    -1.49147   1.13318  -0.61656
O    -2.38933   1.05970  -1.46712
C    -1.05858  -0.09028   0.12321
N     0.18807  -0.46350   0.29976
C     1.40959  -0.06119  -0.12819
C     1.60851   0.96014  -1.07706
N     1.80128   1.78957  -1.87573
C     2.51848  -0.85080   0.40268
O     2.36112  -1.78006   1.18254
O     3.70437  -0.44485  -0.05765
C     4.85716  -1.16330   0.40539
C    -2.03280  -1.03702   0.74788
O    -1.60572  -1.94535   1.47726
N    -3.32831  -0.83377   0.47762
C    -4.35883  -1.71060   0.99702
H    -0.66928   4.34427  -0.44849
H    -2.20579   3.70682  -1.10783
H    -0.67945   3.45403  -2.00086
H    -0.18701   2.27998   0.45919
H     0.24402  -1.30766   0.90761
H     5.71925  -0.69103  -0.07912
H     4.94555  -1.08484   1.49860
H     4.79188  -2.22230   0.11697
H    -3.55606  -0.15406  -0.24638
H    -4.22484  -1.85929   2.07794
H    -4.33474  -2.70010   0.51047
H    -5.33880  -1.25225   0.81747
