41
Generated by autodE on: 2022-06-19. E = -1027.798464 Ha. Imaginary frequency = -341.1 cm-1
C     2.31825   2.94000   1.43208
N     1.75244   1.62257   1.22626
C     1.74726   0.99860   0.03778
O     2.40747   1.37982  -0.93922
C     0.94137  -0.27630  -0.01153
C     1.71285  -1.55990  -0.20172
O     1.25117  -2.62206   0.23656
N     2.86037  -1.46878  -0.88635
C     3.62818  -2.64517  -1.24354
N    -0.13986  -0.45602   0.79462
C    -1.24482   0.36415   0.83072
C    -1.18964   1.73840   1.16142
N    -1.20009   2.87407   1.43151
C    -2.56788  -0.26166   0.94684
O    -3.61186   0.36287   1.04216
O    -2.50388  -1.60063   0.89283
C    -3.74699  -2.31442   0.94571
C    -1.09101   0.86898  -1.63956
C    -0.88382   2.33917  -1.79801
C    -0.09419  -0.07134  -1.90540
C    -0.49620  -1.49112  -2.21682
H     2.82387   2.98460   2.40650
H     1.52580   3.70694   1.40816
H     3.04403   3.15040   0.63801
H     1.20613   1.22282   1.98230
H     3.11313  -0.55680  -1.26365
H     3.09526  -3.26644  -1.98249
H     4.58527  -2.32694  -1.67396
H     3.82370  -3.26421  -0.35573
H    -0.36237  -1.45287   0.89216
H    -3.48549  -3.37729   0.89325
H    -4.38316  -2.03645   0.09323
H    -4.27501  -2.09713   1.88513
H    -2.12846   0.52243  -1.62570
H     0.17561   2.61952  -1.70933
H    -1.22828   2.64249  -2.80427
H    -1.46963   2.93027  -1.07879
H     0.82751   0.30457  -2.35840
H     0.36815  -2.15485  -2.35203
H    -1.13723  -1.90696  -1.42427
H    -1.07869  -1.51724  -3.15317
