57
Generated by autodE on: 2022-06-07. E = -1470.730868 Ha
C    -4.34659   2.64253  -0.11370
N    -3.34687   1.59792  -0.02497
C    -2.03988   1.88922   0.00298
O    -1.61731   3.05899  -0.01413
C    -1.05774   0.76760   0.07246
C     0.25722   1.00978   0.18922
C     0.92774   2.34516   0.34894
C     0.89279   2.94888   1.72267
O     1.57106   2.82444  -0.57127
C     1.06780  -0.28035   0.12794
C     2.13639  -0.25840   1.22540
C     3.38968   0.31814   0.96972
C     4.32807   0.46076   1.99444
C     4.02718   0.02684   3.28932
C     2.77862  -0.54448   3.55110
C     1.83759  -0.68033   2.52631
C     1.65891  -0.52372  -1.27246
C     2.51912  -1.61932  -1.45312
C     2.97280  -1.96641  -2.72586
C     2.57575  -1.21978  -3.84128
C     1.72544  -0.12580  -3.66920
C     1.26944   0.22127  -2.39242
N     0.00515  -1.28033   0.38728
C    -1.27530  -0.74109  -0.06713
C    -2.45329  -1.29047   0.77542
O    -3.61472  -1.18803   0.34854
N    -2.10269  -1.83587   1.93417
C    -3.03572  -2.39533   2.88976
C    -1.55773  -1.17460  -1.52516
O    -1.35441  -2.30741  -1.90614
O    -2.00845  -0.19310  -2.29062
C    -2.23672  -0.49847  -3.67815
H    -4.25132   3.21244  -1.05255
H    -5.34189   2.18296  -0.07792
H    -4.25205   3.35389   0.72148
H    -3.63933   0.61702  -0.04376
H     1.21700   3.99772   1.68251
H    -0.10360   2.86005   2.17459
H     1.59756   2.37819   2.35278
H     3.63061   0.66865  -0.03475
H     5.29893   0.91312   1.77883
H     4.76191   0.13562   4.09055
H     2.53098  -0.88277   4.56008
H     0.85804  -1.10697   2.73909
H     2.83108  -2.20914  -0.58834
H     3.63928  -2.82351  -2.84805
H     2.93041  -1.49022  -4.83855
H     1.41174   0.46729  -4.53139
H     0.60924   1.07975  -2.27848
H     0.20324  -2.16800  -0.07438
H    -1.09706  -1.87756   2.09986
H    -4.05884  -2.20337   2.54535
H    -2.88990  -3.48197   2.99003
H    -2.89527  -1.93210   3.87765
H    -1.29535  -0.81440  -4.14960
H    -2.60067   0.42954  -4.13226
H    -2.98817  -1.29455  -3.77292
