16
Generated by autodE on: 2022-06-07. E = -438.207089 Ha
C     2.52642   1.39947   0.43887
N     2.59845  -0.04796   0.37393
C     1.58348  -0.91025   0.19826
O     1.71796  -2.13804   0.15297
C     0.24648  -0.33755   0.05176
C    -0.90453   0.03182  -0.08224
C    -2.27831   0.49343  -0.24008
C    -2.73033   0.74542  -1.64704
O    -2.98459   0.65411   0.74333
H     1.48660   1.72984   0.32637
H     3.12472   1.85573  -0.36452
H     2.90381   1.76458   1.40622
H     3.51305  -0.48594   0.46934
H    -2.63227  -0.18044  -2.23757
H    -3.77251   1.09080  -1.64866
H    -2.07595   1.49820  -2.11667
