41
Generated by autodE on: 2022-06-07. E = -1032.442434 Ha
C    -3.81706   2.45921  -2.98044
N    -3.14079   1.98034  -1.79553
C    -2.04348   1.20031  -1.87131
O    -1.52975   0.88953  -2.97393
C    -1.45024   0.70349  -0.62598
N    -0.31497  -0.04944  -0.88511
C     0.73596  -0.44250  -0.19088
C     1.02655   0.07551   1.15855
C     0.93064   1.45303   1.42413
C     1.21449   1.94426   2.69660
C     1.58456   1.06718   3.72392
C     1.68910  -0.30227   3.46458
C     1.42185  -0.79609   2.18633
C     1.65861  -1.38210  -0.84431
C     1.20339  -2.27298  -1.83955
C     2.09324  -3.13040  -2.48524
C     3.44981  -3.12474  -2.14461
C     3.91154  -2.25341  -1.15177
C     3.02785  -1.39135  -0.50489
C    -2.10623   0.78012   0.64626
O    -3.03246   1.55509   0.92206
O    -1.66033  -0.12092   1.54651
C    -2.12176   0.01082   2.89065
H    -3.13752   3.03890  -3.62595
H    -4.64697   3.10971  -2.67670
H    -4.22585   1.63278  -3.58642
H    -3.50754   2.16404  -0.86332
H    -0.29384  -0.25878  -1.89538
H     0.62899   2.13962   0.63095
H     1.14423   3.01679   2.89120
H     1.79448   1.45334   4.72398
H     1.97926  -0.99080   4.26131
H     1.49776  -1.86631   1.98658
H     0.14121  -2.31996  -2.08806
H     1.72151  -3.81880  -3.24742
H     4.14428  -3.80234  -2.64632
H     4.97023  -2.24075  -0.88337
H     3.40207  -0.70342   0.25384
H    -3.21074  -0.13195   2.95165
H    -1.60903  -0.77045   3.46439
H    -1.86202   1.00060   3.29548
