41
Generated by autodE on: 2022-07-27. E = -1032.439689 Ha
C    -4.81529  -0.73449   2.16204
N    -3.81068  -0.70965   1.12142
C    -2.52187  -0.41986   1.39244
O    -2.15937  -0.11686   2.55651
C    -1.51803  -0.46123   0.31958
N    -0.26964  -0.12870   0.82190
C     0.88194   0.24534   0.29871
C     2.03266   0.32444   1.21213
C     3.07804   1.24076   0.97252
C     4.14828   1.34212   1.85971
C     4.20043   0.53319   3.00030
C     3.17267  -0.38273   3.24713
C     2.10152  -0.49192   2.36125
C     1.01415   0.65643  -1.10983
C     2.11258   0.23580  -1.87854
C     2.25128   0.65908  -3.20108
C     1.30539   1.52010  -3.76573
C     0.21510   1.95277  -3.00165
C     0.06411   1.51819  -1.68613
C    -1.63771  -1.06851  -0.97635
O    -0.70649  -1.45642  -1.67862
O    -2.92985  -1.20301  -1.39534
C    -3.13422  -1.90510  -2.62359
H    -5.79358  -0.92683   1.70378
H    -4.86252   0.22693   2.69791
H    -4.61866  -1.52210   2.90913
H    -4.04464  -0.97787   0.17112
H    -0.32617  -0.12838   1.85264
H     3.03848   1.89062   0.09792
H     4.94483   2.06313   1.66295
H     5.04281   0.61198   3.69122
H     3.21255  -1.02882   4.12690
H     1.32915  -1.24074   2.54795
H     2.85210  -0.43604  -1.43934
H     3.10284   0.31583  -3.79287
H     1.41687   1.85505  -4.79955
H    -0.52263   2.63176  -3.43522
H    -0.79289   1.85249  -1.09835
H    -2.63901  -1.38488  -3.45658
H    -4.21887  -1.92275  -2.78494
H    -2.74723  -2.93315  -2.55981
