57
Generated by autodE on: 2022-06-07. E = -1470.645464 Ha. Imaginary frequency = -390.2 cm-1
C    -4.13527   1.67577  -2.16919
N    -2.84997   1.57974  -1.50605
C    -2.74397   1.11329  -0.24672
O    -3.72355   0.87178   0.46611
C    -1.34492   0.93069   0.21922
C    -0.36818   1.66332   0.54266
C     0.85422   2.18931   0.98249
C     1.06753   2.21795   2.48328
O     1.73338   2.63749   0.21085
C     1.48784  -0.76035   0.25386
C     2.62995  -0.67149   1.17847
C     3.71324   0.17046   0.85462
C     4.76154   0.34607   1.75716
C     4.75504  -0.32427   2.98348
C     3.69129  -1.17496   3.30779
C     2.63626  -1.34764   2.41597
C     1.75310  -0.61316  -1.19454
C     2.80578  -1.38295  -1.72813
C     3.10838  -1.32546  -3.08773
C     2.38576  -0.47610  -3.93089
C     1.35529   0.30816  -3.40466
C     1.03299   0.23729  -2.04989
N     0.32241  -1.07087   0.79002
C    -1.00036  -1.05993   0.34151
C    -1.87253  -1.38012   1.54148
O    -1.39332  -1.19169   2.67303
N    -3.10649  -1.85976   1.33907
C    -4.07260  -1.90101   2.41998
C    -1.28164  -1.69921  -0.97098
O    -0.48294  -2.33654  -1.62771
O    -2.54669  -1.48835  -1.35933
C    -2.94640  -2.02843  -2.62769
H    -3.99114   2.11631  -3.16324
H    -4.60276   0.68312  -2.28332
H    -4.82550   2.31249  -1.59607
H    -2.00047   1.66463  -2.05493
H     1.98623   1.65352   2.71289
H     0.22759   1.77722   3.03788
H     1.22777   3.25712   2.81388
H     3.71260   0.71476  -0.08824
H     5.58702   1.01330   1.50073
H     5.58107  -0.19049   3.68548
H     3.68989  -1.71527   4.25663
H     1.82934  -2.03605   2.67402
H     3.37437  -2.04589  -1.07433
H     3.91508  -1.94335  -3.48792
H     2.62818  -0.42241  -4.99467
H     0.79286   0.98308  -4.05350
H     0.23248   0.85740  -1.65775
H     0.28963  -1.05933   1.82277
H    -3.46252  -1.81016   0.38852
H    -3.63454  -2.37789   3.30662
H    -4.94506  -2.48274   2.09725
H    -4.40339  -0.88526   2.69604
H    -2.36756  -1.55632  -3.43392
H    -4.01053  -1.79027  -2.73210
H    -2.79219  -3.11613  -2.64846
