37
Generated by autodE on: 2022-06-19. E = -954.916828 Ha
C     0.36021   1.61907   3.29700
O     0.25272   0.74250   2.16331
C     0.46609   1.27129   0.96717
O     0.79381   2.42313   0.77509
C     0.25742   0.24797  -0.16848
C     1.62366  -0.24079  -0.62951
C     2.58487   0.68482  -1.06382
C     3.82581   0.24477  -1.52728
C     4.12188  -1.12206  -1.56008
C     3.16688  -2.04452  -1.12671
C     1.92157  -1.60814  -0.66339
O    -0.49188  -0.87285   0.31529
C    -1.88076  -0.62453   0.20209
C    -2.49854  -1.81542  -0.42014
N    -2.97028  -2.74358  -0.92847
C    -2.46092  -0.46171   1.55799
N    -2.89400  -0.34200   2.62566
C    -2.06577   0.65765  -0.71006
C    -2.63762   1.87035   0.01817
C    -0.63927   0.85113  -1.28137
C    -0.45887   0.16341  -2.63195
H     1.38474   2.00789   3.38155
H    -0.34624   2.45517   3.19670
H     0.10776   1.00925   4.17141
H     2.36051   1.75180  -1.04204
H     4.56441   0.97474  -1.86637
H     5.09363  -1.46533  -1.92251
H     3.38767  -3.11433  -1.14807
H     1.17955  -2.33254  -0.33033
H    -2.75431   0.39006  -1.52116
H    -2.69767   2.71065  -0.68840
H    -2.02152   2.18862   0.87155
H    -3.65223   1.66425   0.38859
H    -0.42179   1.92266  -1.37685
H     0.54346   0.34528  -3.04309
H    -0.60399  -0.92545  -2.55443
H    -1.19828   0.55621  -3.34564
