12
Generated by autodE on: 2022-06-19. E = -157.300302 Ha
C     1.96270  -0.05065  -0.05448
C     0.53661   0.02233   0.40031
C    -0.53661  -0.02228  -0.40032
C    -1.96270   0.05061   0.05448
H     2.48566  -0.90888   0.40380
H     2.52637   0.84942   0.24922
H     2.03777  -0.14851  -1.14895
H     0.37731   0.12070   1.48332
H    -0.37730  -0.12061  -1.48333
H    -2.52612  -0.84982  -0.24863
H    -2.48593   0.90840  -0.40432
H    -2.03775   0.14911   1.14889
