25
Generated by autodE on: 2022-06-19. E = -797.523752 Ha
C    -2.06662   2.95474  -0.52946
O    -1.33663   1.83674   0.01811
C    -0.43377   1.26836  -0.76283
O    -0.10763   1.63822  -1.86649
C     0.19049   0.07903  -0.07185
O    -0.53617  -0.88771   0.36698
C    -1.86032  -1.19820   0.27560
C    -2.75761  -0.51722  -0.55699
N    -3.52142   0.01822  -1.26387
C    -2.22849  -2.35238   0.98451
N    -2.55592  -3.30748   1.57516
C     1.61225  -0.01380   0.14072
C     2.16826  -1.17778   0.72583
C     3.53525  -1.25557   0.95427
C     4.37115  -0.18437   0.60651
C     3.83196   0.96877   0.02586
C     2.46386   1.06102  -0.20942
H    -2.77087   3.25917   0.25156
H    -1.37186   3.77172  -0.76686
H    -2.60380   2.63914  -1.43372
H     1.51701  -2.01083   0.99185
H     3.95884  -2.15581   1.40379
H     5.44593  -0.25152   0.78861
H     4.48269   1.80272  -0.24375
H     2.05493   1.96362  -0.66280
