36
Generated by autodE on: 2022-06-17. E = -675.452992 Ha
C     2.10383  -1.82394   1.27947
C     0.73431  -1.20204   1.19634
O    -0.19351  -1.68437   1.82593
C     0.46044  -0.02271   0.21439
C     1.71842   0.81583  -0.01779
C     1.95763   1.38452  -1.38362
O     2.46691   1.04489   0.92059
C    -0.69667   0.88813   0.77880
C    -0.31315   2.29158   1.23415
C    -1.77870   0.85605  -0.31437
C    -3.18749   1.07020   0.22217
C    -1.55181  -0.49685  -0.99035
C    -2.19892  -0.62838  -2.36114
N    -0.08940  -0.57336  -1.03504
C     0.48084  -1.80414  -1.54970
H     2.69129  -1.70449   0.36066
H     2.65740  -1.31851   2.08713
H     1.99922  -2.88641   1.53862
H     2.80487   2.08199  -1.34957
H     2.17245   0.56925  -2.09250
H     1.05300   1.89000  -1.75260
H    -1.09801   0.34340   1.64442
H     0.43517   2.26862   2.03902
H    -1.20526   2.80710   1.62166
H     0.08998   2.89997   0.40929
H    -1.55039   1.63942  -1.05964
H    -3.93344   1.04568  -0.58773
H    -3.27845   2.04588   0.72450
H    -3.45303   0.28809   0.95273
H    -1.96395  -1.29482  -0.33213
H    -2.05182  -1.62908  -2.79414
H    -3.28423  -0.46534  -2.27824
H    -1.78898   0.11774  -3.06096
H     1.57713  -1.73257  -1.58257
H     0.20926  -2.70669  -0.96219
H     0.13822  -1.96846  -2.58117
