19
Generated by autodE on: 2022-07-27. E = -473.726899 Ha
C    -0.08274   3.64499   0.13253
N     0.64427   2.50933  -0.39149
C     0.14230   1.24683  -0.31546
O    -0.91085   1.00210   0.30555
C     0.88662   0.24583  -1.05700
N     0.63430  -1.06877  -1.01463
C    -0.01387  -1.89859  -0.17775
C    -0.24538  -3.31995  -0.60811
C    -0.38759  -1.52637   1.12749
N    -0.66485  -1.38168   2.25558
H    -0.99191   3.86851  -0.45363
H    -0.39351   3.46034   1.17173
H     0.56868   4.52786   0.11262
H     1.45580   2.67667  -0.97663
H     1.59750   0.54779  -1.82505
H     1.04370  -1.57440  -1.80575
H    -1.28990  -3.48441  -0.92587
H    -0.03337  -4.02246   0.21224
H     0.40585  -3.57252  -1.46000
