54
Generated by autodE on: 2022-06-22. E = -1003.527917 Ha
C    -0.95360   3.87965   1.41780
N    -1.19345   2.45929   1.53833
C    -0.66284   1.70736   2.51128
O    -0.02315   2.17644   3.46584
C    -0.88230   0.19162   2.36472
C    -1.42668  -0.33620   3.70035
N    -1.78055  -0.10852   1.24363
C    -1.43740  -1.39425   0.59851
C    -2.52325  -2.44381   0.89757
C    -1.31359  -1.25078  -0.92674
C    -0.91142  -2.35628  -1.69670
C    -0.79069  -2.26453  -3.08480
C    -1.07083  -1.05892  -3.73751
C    -1.47183   0.04619  -2.98356
C    -1.59568  -0.05302  -1.59311
C    -0.08750  -1.78502   1.26059
C     0.46627  -0.50751   1.91299
C     1.41093  -0.82060   3.08232
C     1.21517   0.39313   0.95117
C     1.57384   0.13921  -0.32094
C     2.29341   1.09562  -1.14763
C     2.67397   0.93285  -2.43736
C     2.42777  -0.31085  -3.24417
C     3.39282   2.02953  -3.17312
H    -0.98607   4.35318   2.40898
H    -1.72717   4.33125   0.78276
H     0.03339   4.09250   0.97085
H    -1.61160   1.92288   0.77965
H    -1.48442  -1.43323   3.70131
H    -0.80696  -0.01307   4.54628
H    -2.44372   0.05913   3.85510
H    -2.75195  -0.10080   1.54719
H    -2.64955  -2.56165   1.98439
H    -3.48775  -2.13361   0.46441
H    -2.26061  -3.42367   0.47277
H    -0.67792  -3.30319  -1.20413
H    -0.46986  -3.13714  -3.65934
H    -0.97055  -0.98206  -4.82272
H    -1.68891   0.99655  -3.47802
H    -1.90012   0.81651  -1.01175
H     0.61946  -2.23900   0.55576
H    -0.27495  -2.52797   2.04805
H     1.72108   0.10187   3.59502
H     2.31497  -1.32061   2.70190
H     0.94120  -1.48640   3.82022
H     1.52741   1.35218   1.38170
H     1.30216  -0.81287  -0.77838
H     2.53223   2.05132  -0.66490
H     1.81766  -0.07716  -4.13403
H     3.38352  -0.71405  -3.62344
H     1.91647  -1.10500  -2.68694
H     2.82720   2.33386  -4.07226
H     3.54917   2.91864  -2.54448
H     4.37678   1.68110  -3.53548
