23
Generated by autodE on: 2022-06-22. E = -351.521382 Ha
C     3.52571  -0.12170   1.36187
C     2.54860   0.01303   0.43833
C     2.87043   0.28601  -1.00873
C     1.14708  -0.10640   0.83544
C     0.07833   0.00401   0.00696
C    -1.29395  -0.12406   0.45345
C    -2.41300  -0.03171  -0.30867
C    -3.77589  -0.18838   0.30434
C    -2.41347   0.22719  -1.78860
H     3.28874  -0.32029   2.41168
H     4.58213  -0.03739   1.09212
H     3.95562   0.35334  -1.16978
H     2.41062   1.22954  -1.34684
H     2.47221  -0.50880  -1.66119
H     0.96556  -0.30310   1.89901
H     0.25138   0.19946  -1.05479
H    -1.42674  -0.31682   1.52498
H    -4.38821   0.71528   0.13308
H    -4.32467  -1.02221  -0.16940
H    -3.72633  -0.37514   1.38711
H    -1.40954   0.33486  -2.21892
H    -2.92886  -0.59268  -2.31946
H    -2.98494   1.14457  -2.01567
