31
Generated by autodE on: 2022-07-27. E = -651.933334 Ha
C     1.75083   1.97326  -1.57904
N     1.46228   1.23825  -0.37024
C     0.92778   1.81116   0.74469
O     0.85013   3.06275   0.83484
C     0.51696   0.97478   1.85949
C     0.36394   1.64223   3.19369
N     0.32920  -0.39040   1.85889
C     0.02232  -1.38634   0.98405
C     0.28634  -2.77031   1.50302
C    -0.58284  -1.23259  -0.33718
C    -0.49400  -2.30333  -1.25886
C    -1.09857  -2.23293  -2.51378
C    -1.82874  -1.10103  -2.88658
C    -1.95051  -0.04060  -1.98038
C    -1.32880  -0.09380  -0.73674
H     2.83392   2.12387  -1.73330
H     1.27732   2.96140  -1.51941
H     1.35113   1.43969  -2.45600
H     1.54113   0.23291  -0.41300
H     1.14096   2.40500   3.35646
H     0.42723   0.90231   4.00948
H    -0.61179   2.15230   3.30385
H     0.45120  -0.76700   2.80455
H    -0.54252  -3.45554   1.26837
H     1.20247  -3.20721   1.06677
H     0.42939  -2.75407   2.59537
H     0.07216  -3.19764  -0.99451
H    -0.99516  -3.07112  -3.20727
H    -2.29814  -1.04383  -3.87128
H    -2.52903   0.84603  -2.25121
H    -1.44274   0.74918  -0.05809
