31
Generated by autodE on: 2022-06-22. E = -651.948296 Ha
C     4.72698   1.69788  -0.36732
N     3.93842   0.50117  -0.16826
C     2.57862   0.53698  -0.19724
O     1.98264   1.61183  -0.48838
C     1.83476  -0.67503   0.09721
C     2.44788  -2.00537   0.39614
N     0.49947  -0.42592   0.08099
C    -0.64176  -1.07289   0.29542
C    -0.69077  -2.52430   0.66536
C    -1.88591  -0.31812   0.12432
C    -1.92573   1.09892   0.08231
C    -3.12554   1.78326  -0.09501
C    -4.33366   1.08692  -0.22773
C    -4.31747  -0.30991  -0.17729
C    -3.11846  -1.00218  -0.00291
H     5.78790   1.42111  -0.41909
H     4.45038   2.19873  -1.30729
H     4.59748   2.42980   0.44997
H     4.40123  -0.31702   0.20659
H     2.43413  -2.26586   1.47013
H     1.94051  -2.81822  -0.14559
H     3.49711  -2.02877   0.07126
H     0.39763   0.56302  -0.19910
H    -1.50900  -2.70833   1.37666
H     0.23778  -2.86332   1.13356
H    -0.87774  -3.16751  -0.21342
H    -1.01586   1.68966   0.21489
H    -3.11831   2.87590  -0.11692
H    -5.27311   1.62755  -0.36229
H    -5.24915  -0.87212  -0.27947
H    -3.13934  -2.09212   0.01611
