23
Generated by autodE on: 2022-05-29. E = -625.448257 Ha
C     3.51324   0.76073   0.31721
N     2.08009   0.64038   0.48177
C     1.39776  -0.35189  -0.12911
O     1.99738  -1.25814  -0.73285
C    -0.09192  -0.29886  -0.05520
C    -0.76893   0.97537   0.16232
O    -0.20907   2.00690   0.53190
O    -2.10066   0.96909  -0.04963
C    -2.81619   2.18073   0.23389
N    -0.79635  -1.47758  -0.23987
C    -0.10473  -2.78339  -0.04663
N    -2.03161  -1.62992  -0.50565
H     3.79927   0.88463  -0.74142
H     4.03401  -0.13092   0.69912
H     3.86118   1.63623   0.87972
H     1.53460   1.43008   0.82260
H    -3.86855   1.95880   0.02295
H    -2.68900   2.46498   1.28788
H    -2.46129   2.99581  -0.41225
H     0.38680  -3.07011  -0.98030
H     0.63596  -2.70799   0.75333
H    -0.89333  -3.49622   0.20957
H    -2.44495  -0.70121  -0.64802
