33
Generated by autodE on: 2022-05-29. E = -947.818337 Ha. Imaginary frequency = -287.0 cm-1
C    -3.97722  -1.36163  -1.48753
N    -3.00012  -0.87981  -0.52784
C    -1.68823  -0.88651  -0.80338
O    -1.21579  -1.34291  -1.84626
C    -0.78470  -0.30974   0.27355
C    -0.98762   1.09439   0.70461
O    -0.58920   1.57884   1.75185
O    -1.64221   1.78438  -0.22741
C    -1.83781   3.18706   0.01571
C     1.23604   0.33867  -0.64400
C     0.91730   0.88704  -1.86727
N     0.62903   1.36881  -2.89202
C     2.02539   0.01635   0.27933
C     3.32480  -0.15308   0.92282
C     4.06677  -1.40620   0.56043
O     3.73130   0.67922   1.72035
N     0.87204  -0.78479   1.83835
N    -0.11869  -1.17809   1.07663
C    -0.07504  -2.60258   0.71323
H    -3.74818  -2.39468  -1.78869
H    -4.97050  -1.33573  -1.02426
H    -3.98739  -0.73464  -2.39368
H    -3.32327  -0.44187   0.32975
H    -0.86709   3.68944   0.13162
H    -2.44365   3.33665   0.92025
H    -2.36439   3.57053  -0.86503
H     4.29085  -1.40096  -0.51881
H     4.99646  -1.47337   1.14117
H     3.42660  -2.28110   0.75703
H     0.68867   0.19089   2.10815
H     0.50755  -2.72444  -0.21015
H    -1.09159  -2.98406   0.56652
H     0.40698  -3.13125   1.54065
