43
Generated by autodE on: 2022-06-19. E = -975.623115 Ha
C    -3.21314   0.58803   2.83170
N    -2.40269   0.86070   1.66151
C    -2.63595   0.27913   0.47970
O    -3.60030  -0.46798   0.26507
C    -1.66364   0.61817  -0.65729
C    -1.24669  -0.63809  -1.44790
C    -2.33420  -1.65191  -1.68848
O    -2.25042  -2.84585  -1.47059
C     0.08515  -1.06962  -0.79629
C    -0.11140  -1.73578   0.57263
C     0.90590  -1.99051  -1.69706
C     0.73188   0.37107  -0.61078
C     1.22069   0.85328  -1.93315
N     1.54348   1.29507  -2.95719
C     1.89614   0.39861   0.37947
C     3.18878   0.04665  -0.03459
C     4.24022  -0.00086   0.88445
C     4.01357   0.31299   2.22752
C     2.72896   0.67595   2.64294
C     1.67651   0.71846   1.72517
N    -0.40398   1.19756  -0.19260
C    -0.26589   2.63846  -0.31813
H    -4.28004   0.71736   2.59891
H    -2.93664   1.28667   3.63096
H    -3.06522  -0.44302   3.19460
H    -1.51285   1.34175   1.75924
H    -2.20866   1.31880  -1.31339
H    -1.02013  -0.28971  -2.47296
H    -3.22794  -1.23276  -2.20191
H    -0.57672  -1.06800   1.30784
H    -0.74976  -2.62025   0.45624
H     0.85591  -2.05894   0.98191
H     0.39345  -2.95767  -1.79282
H     1.90048  -2.17570  -1.26464
H     1.03610  -1.57451  -2.70676
H     3.38184  -0.18968  -1.08298
H     5.24090  -0.27936   0.54611
H     4.83593   0.28085   2.94603
H     2.54224   0.92977   3.68905
H     0.67674   0.99956   2.05295
H    -0.27743   2.98296  -1.37101
H     0.67724   2.96519   0.14326
H    -1.09034   3.13565   0.21254
