14
Generated by autodE on: 2022-06-19. E = -270.682752 Ha
C    -0.84398   1.21719   0.69385
C    -0.80819  -0.22098   0.27842
C    -2.05057  -1.00252   0.58128
C     0.24623  -0.82709  -0.33212
C     1.53115  -0.24275  -0.70815
O     1.91429   0.91312  -0.55337
H    -1.68760   1.72222   0.19195
H    -1.05229   1.28195   1.77584
H     0.08463   1.74785   0.46757
H    -2.92160  -0.53095   0.09410
H    -2.25673  -0.97872   1.66548
H    -1.98057  -2.04888   0.25385
H     0.15192  -1.88721  -0.58687
H     2.21868  -0.97704  -1.19436
