43
Generated by autodE on: 2022-06-19. E = -975.542038 Ha. Imaginary frequency = -346.5 cm-1
C    -3.15228  -0.14357   2.94881
N    -2.71161   0.67058   1.83376
C    -1.56850   0.37879   1.17185
O    -0.80172  -0.50121   1.56974
C    -1.41864   1.16978  -0.08590
C    -1.72601  -0.52371  -1.50821
C    -2.79152  -1.20017  -0.79147
O    -2.69780  -2.16994  -0.03977
C    -0.42224  -1.05069  -1.75572
C     0.07117  -2.26120  -1.01171
C     0.05881  -0.96403  -3.18391
C     0.83990   0.73808  -0.81922
C     1.70593   1.05606  -1.91121
N     2.45122   1.23078  -2.79138
C     1.63545   0.31378   0.37076
C     2.60576  -0.69476   0.24152
C     3.41580  -1.04824   1.32239
C     3.28475  -0.38780   2.54761
C     2.34583   0.64167   2.67499
C     1.53283   0.99269   1.59784
N    -0.27523   1.58034  -0.68210
C    -0.46701   2.58787  -1.74066
H    -4.11582   0.23762   3.30777
H    -2.42742  -0.11257   3.77706
H    -3.27351  -1.19466   2.64112
H    -3.32750   1.39272   1.47659
H    -2.25267   1.84937  -0.26353
H    -2.11199   0.16008  -2.27020
H    -3.79538  -0.74571  -0.97477
H     0.01320  -2.14086   0.07448
H    -0.55723  -3.12935  -1.28074
H     1.10348  -2.50189  -1.29786
H    -0.38334  -1.80738  -3.74623
H    -0.25364  -0.03359  -3.67801
H     1.14956  -1.06140  -3.27000
H     2.73482  -1.20034  -0.71590
H     4.15731  -1.84171   1.20258
H     3.91851  -0.66364   3.39363
H     2.24721   1.18046   3.62051
H     0.81614   1.80688   1.70828
H     0.42902   3.21435  -1.82059
H    -1.32055   3.22324  -1.48351
H    -0.65862   2.09764  -2.70757
