43
Generated by autodE on: 2022-06-20. E = -1053.711945 Ha
C     1.64455  -2.58295   1.40288
C     2.01865  -1.94845   0.28373
C     3.29194  -2.28801  -0.44275
C     1.21711  -0.82261  -0.33355
C    -0.33771  -0.85148  -0.19203
C    -1.04409  -1.03591  -1.50167
C    -2.17212  -1.73962  -1.70956
C    -2.92272  -2.48783  -0.64296
C    -2.79336  -1.80285  -3.07865
C    -0.58815   0.58920   0.39973
C    -1.99394   1.12078   0.24432
O    -2.91515   0.52830   0.81079
N    -2.11740   2.20873  -0.52468
C    -3.39129   2.82778  -0.83404
O     0.44111   1.36887  -0.22677
C     1.51939   0.59680   0.24304
C     2.86614   1.21567  -0.11823
C     3.91841   1.24130   0.93933
O     3.00648   1.62367  -1.25311
O     1.30124   0.56082   1.67691
C    -0.04879   0.53515   1.83296
O    -0.60199   0.44202   2.89271
H     2.26747  -3.37467   1.82909
H     0.71923  -2.34767   1.93513
H     3.06871  -2.63666  -1.46591
H     3.93913  -1.40131  -0.55320
H     3.86245  -3.06935   0.07903
H     1.47256  -0.74645  -1.39953
H    -0.66213  -1.59565   0.54099
H    -0.59972  -0.50175  -2.34852
H    -3.11069  -3.52684  -0.96292
H    -2.40867  -2.50888   0.32630
H    -3.91187  -2.02370  -0.48747
H    -2.86486  -2.84795  -3.42750
H    -2.22279  -1.22495  -3.82039
H    -3.82660  -1.41430  -3.05245
H    -1.27386   2.59135  -0.94170
H    -4.16671   2.38435  -0.19861
H    -3.34659   3.90998  -0.64394
H    -3.66338   2.66798  -1.88941
H     3.59497   1.91328   1.75167
H     4.86973   1.58692   0.51643
H     4.02800   0.23949   1.38479
