20
Generated by autodE on: 2022-06-20. E = -702.139416 Ha
C     4.36954   0.05275   0.06995
N     2.98822  -0.22975  -0.26416
C     1.97057   0.33265   0.42254
O     2.13157   1.10468   1.37648
C     0.63631  -0.04206  -0.04476
O    -0.45755   0.48266   0.60823
C    -1.53129   0.03203   0.04687
C    -2.89251   0.43383   0.52245
C    -4.04402  -0.15729  -0.21874
O    -2.96006   1.20069   1.46246
O    -1.28585  -0.76381  -0.94348
C     0.19347  -0.87405  -1.08200
O     0.67608  -1.56726  -1.94514
H     4.62021   1.11250  -0.10169
H     4.57627  -0.17563   1.12712
H     5.01881  -0.56829  -0.55875
H     2.77895  -0.84198  -1.04788
H    -4.98440   0.22081   0.19979
H    -4.00663  -1.25686  -0.14434
H    -3.96948   0.09565  -1.28912
