43
Generated by autodE on: 2022-06-20. E = -1053.661191 Ha. Imaginary frequency = -317.2 cm-1
C     1.94595  -2.48154   1.51085
C     2.24251  -2.01472   0.28546
C     3.55560  -2.31598  -0.38983
C     1.31452  -1.16873  -0.51177
C    -0.08324  -1.36616  -0.48206
C    -0.89857  -1.04289  -1.61138
C    -2.23085  -1.31171  -1.74623
C    -3.07088  -1.93957  -0.67753
C    -2.93997  -0.99879  -3.02554
C    -0.65338   0.92517   0.70819
C    -2.04649   1.21637   0.40393
O    -2.94910   0.90423   1.19892
N    -2.28659   1.80858  -0.78422
C    -3.63710   2.07494  -1.23414
O     0.36912   1.34439  -0.11325
C     1.47354   0.74979   0.36342
C     2.79654   1.26260  -0.12046
C     3.94354   1.14056   0.83037
O     2.86169   1.73014  -1.24229
O     1.30355   0.45478   1.66612
C    -0.10142   0.40447   1.90780
O    -0.53498  -0.02739   2.95568
H     2.66071  -3.10168   2.05882
H     0.99750  -2.26206   2.00758
H     3.39028  -2.88755  -1.31942
H     4.07339  -1.38802  -0.68435
H     4.22309  -2.89642   0.26281
H     1.70590  -0.84723  -1.48248
H    -0.51346  -1.94956   0.33340
H    -0.38883  -0.56079  -2.45168
H    -3.37813  -2.95380  -0.98970
H    -2.56990  -2.00855   0.29534
H    -4.00025  -1.36216  -0.54741
H    -3.35965  -1.92210  -3.46351
H    -2.27865  -0.52566  -3.76471
H    -3.80027  -0.33463  -2.83650
H    -1.51350   1.94740  -1.42646
H    -4.26126   1.16985  -1.17595
H    -4.11745   2.85457  -0.62085
H    -3.60229   2.41723  -2.27511
H     3.78689   1.84738   1.66324
H     4.88221   1.37574   0.31378
H     3.97896   0.13316   1.27231
