30
Generated by autodE on: 2022-06-20. E = -742.270292 Ha
C    -3.53302  -1.96331   0.32922
N    -2.21215  -1.37249   0.38709
C    -1.92852  -0.12087  -0.05254
O    -2.83817   0.66760  -0.38622
C    -0.50324   0.26965  -0.02856
C    -0.08315   1.66466   0.23117
O     1.11106   2.01063   0.32877
N    -1.07939   2.57883   0.31427
C    -0.78488   3.99052   0.41263
N     0.46304  -0.68181  -0.27098
C     0.19471  -1.70385  -1.31488
C     1.66112  -0.63839   0.31166
C     2.84292  -1.41331  -0.05334
C     4.04558  -1.12575   0.81392
O     2.89682  -2.24023  -0.96801
H    -4.24216  -1.21674  -0.04542
H    -3.54631  -2.83732  -0.34267
H    -3.86037  -2.29084   1.32844
H    -1.45782  -1.95666   0.72994
H    -2.00916   2.25963   0.03882
H    -1.71691   4.53605   0.60971
H    -0.08101   4.18614   1.23545
H    -0.33452   4.39320  -0.51220
H    -0.79973  -1.53999  -1.73339
H     0.94604  -1.58551  -2.10226
H     0.28305  -2.71214  -0.89415
H     1.75887   0.05837   1.13684
H     3.81101  -1.32760   1.87198
H     4.31786  -0.05966   0.74300
H     4.89181  -1.74807   0.49583
