12
Generated by autodE on: 2022-06-20. E = -381.636094 Ha
O    -0.72742  -2.55977   0.17029
C    -0.39259  -1.38234   0.09103
C    -1.40391  -0.29977   0.02330
C    -1.03754   0.99110  -0.06066
C     0.39259   1.38234  -0.09104
O     0.72742   2.55977  -0.17028
C     1.40391   0.29977  -0.02330
C     1.03754  -0.99110   0.06066
H    -2.45060  -0.61198   0.04687
H    -1.76440   1.80527  -0.11143
H     2.45060   0.61198  -0.04687
H     1.76441  -1.80527   0.11143
