38
Generated by autodE on: 2022-05-29. E = -1013.141822 Ha
C     4.18269  -0.85227   1.79246
O     3.17438  -0.42705   0.85963
C     1.96413  -0.95993   0.99651
O     1.66593  -1.75903   1.85434
C     1.00690  -0.42151  -0.08419
C     1.60292  -0.87195  -1.43733
C     1.63180   0.11655  -2.55542
O     1.98956  -2.02200  -1.53976
N     0.96022   1.04077   0.05791
C    -0.20939   1.38620   0.44712
C    -0.54893   2.82280   0.73630
C     0.50401   3.86276   0.50585
O    -1.66923   3.08382   1.14781
C    -1.23267   0.29769   0.59028
C    -2.35240   0.37002  -0.50665
O    -1.62622  -0.05761  -1.66517
C    -1.25451  -1.35117  -1.14856
C    -2.58894  -1.88464  -0.65301
C    -3.28192  -0.81146  -0.24019
C    -4.58481  -0.68840   0.46541
C    -0.44111  -0.96048   0.12877
H     5.09171  -0.30306   1.52287
H     3.87843  -0.60803   2.82003
H     4.34908  -1.93525   1.70358
H     1.98565  -0.36449  -3.47608
H     2.29531   0.95155  -2.27980
H     0.62579   0.54088  -2.69578
H     0.80927   3.85484  -0.55254
H     0.11501   4.85199   0.77812
H     1.40287   3.63040   1.09723
H    -1.65493   0.25925   1.60284
H    -2.80730   1.35548  -0.65189
H    -0.72276  -1.94234  -1.90115
H    -2.85046  -2.93882  -0.55819
H    -5.06771  -1.66681   0.60191
H    -5.27365  -0.02567  -0.08583
H    -4.43947  -0.23091   1.46007
H    -0.42660  -1.77748   0.85490
