16
Generated by autodE on: 2022-05-29. E = -346.852369 Ha
C     2.40795  -0.57548   0.62957
C     1.09710   0.01206   0.24972
C     0.44099   1.10055   0.67198
C    -0.92817   1.04949  -0.04192
C    -1.71340  -0.14646   0.55010
C    -1.06123  -1.23095   0.11980
C     0.10468  -0.67493  -0.72950
O    -0.52988   0.48187  -1.30932
H     3.05379  -0.71721  -0.25428
H     2.26362  -1.57722   1.07343
H     2.94193   0.05212   1.35812
H     0.73714   1.83668   1.41899
H    -1.47059   1.99356  -0.16644
H    -2.56607  -0.06788   1.22433
H    -1.23335  -2.28361   0.34270
H     0.53872  -1.33575  -1.48901
