22
Generated by autodE on: 2022-05-29. E = -666.179239 Ha
C    -2.79791   2.40283   0.26902
O    -1.65334   1.54542   0.17737
C    -1.89423   0.24783  -0.08149
O    -3.01670  -0.20250  -0.23864
C    -0.65546  -0.53014  -0.14559
N     0.49254   0.09868   0.05440
C     1.58499   0.48662   0.20702
C     2.94003   0.96879   0.37541
C     3.98618  -0.10450   0.30982
O     3.14695   2.15645   0.56620
C    -0.52083  -1.97243  -0.41229
C    -1.76198  -2.78731  -0.65063
O     0.59961  -2.48387  -0.43668
H    -2.40674   3.40563   0.47672
H    -3.35895   2.40383  -0.67690
H    -3.46060   2.07874   1.08482
H     3.58423  -1.04799  -0.08469
H     4.36320  -0.27569   1.33238
H     4.82331   0.25107  -0.30949
H    -1.46777  -3.82945  -0.83059
H    -2.43692  -2.72819   0.21617
H    -2.32116  -2.39689  -1.51400
