38
Generated by autodE on: 2022-05-29. E = -1013.032202 Ha. Imaginary frequency = -310.3 cm-1
C     2.57160  -1.47246   2.79102
O     2.16539  -0.64283   1.69775
C     2.20089  -1.20219   0.47395
O     2.61052  -2.33288   0.27523
C     1.69088  -0.28607  -0.55866
C     1.74498  -0.56935  -1.99975
C     1.33953   0.55634  -2.91821
O     2.05491  -1.67635  -2.43448
N     1.23778   0.90095  -0.15759
C     0.38716   1.49157   0.44283
C     0.06417   2.78297   1.07830
C    -0.15543   3.92200   0.13418
O    -0.04982   2.82538   2.28937
C    -1.21417  -0.04111   0.89343
C    -2.28094   0.47940  -0.10351
O    -1.66081   0.10499  -1.34585
C    -1.53452  -1.29661  -1.01871
C    -2.99813  -1.62354  -0.65572
C    -3.47211  -0.51392  -0.07125
C    -4.76875  -0.20752   0.58536
C    -0.77181  -1.19888   0.31523
H     2.47821  -0.85252   3.69038
H     1.91926  -2.35467   2.87123
H     3.61340  -1.80133   2.66481
H     1.48327   0.24257  -3.95982
H     1.92239   1.46746  -2.71364
H     0.27826   0.79730  -2.74738
H     0.74782   4.08011  -0.47688
H    -0.40342   4.82835   0.70200
H    -0.97589   3.66572  -0.55656
H    -1.16503   0.23027   1.94870
H    -2.52543   1.54719  -0.06915
H    -1.06236  -1.86596  -1.82667
H    -3.47908  -2.59310  -0.78300
H    -5.46978  -1.05238   0.52126
H    -5.24327   0.68105   0.13421
H    -4.60860   0.03288   1.65196
H    -0.22913  -2.02257   0.77413
