19
Generated by autodE on: 2022-07-27. E = -473.726872 Ha
C     1.35218   3.34212   0.54127
N     0.84602   2.43494  -0.46539
C     0.23976   1.26468  -0.12847
O     0.18929   0.87495   1.05493
C    -0.38462   0.55763  -1.23078
N    -0.92274  -0.66499  -1.13320
C    -0.81753  -1.69754  -0.27769
C    -1.76712  -2.85476  -0.41821
C     0.21668  -1.79825   0.67267
N     1.06691  -2.05705   1.43460
H     0.54270   3.81217   1.12764
H     2.00973   2.81225   1.24681
H     1.93051   4.13512   0.05061
H     0.79610   2.75049  -1.42805
H    -0.59120   1.07274  -2.16815
H    -1.56241  -0.87642  -1.90459
H    -1.23142  -3.81618  -0.38496
H    -2.51690  -2.86398   0.39199
H    -2.31132  -2.79128  -1.37386
