29
Generated by autodE on: 2022-06-01. E = -766.672256 Ha
C     3.71264   1.76343  -1.34260
O     2.85682   0.64116  -1.10284
C     1.54347   0.90373  -0.93797
O     1.09704   2.03920  -0.99143
C     0.80657  -0.33242  -0.69099
C    -0.38757  -0.57073  -0.08393
C    -1.45193   0.26773   0.45232
C    -1.75035   1.54520  -0.06707
C    -2.78437   2.30627   0.47583
C    -3.53597   1.81725   1.55002
C    -3.25439   0.55083   2.07284
C    -2.23298  -0.22242   1.52289
C    -0.39734  -2.12148   0.09712
C     0.65844  -2.45421   1.17115
C     1.83080  -2.21150   0.57726
C     1.46140  -1.73041  -0.84184
O     0.28901  -2.51912  -1.09535
H     3.40972   2.29337  -2.25770
H     4.72314   1.35451  -1.45942
H     3.68336   2.46217  -0.49354
H    -1.16625   1.92916  -0.90021
H    -3.00741   3.28978   0.05564
H    -4.34316   2.41879   1.97444
H    -3.83775   0.16032   2.90970
H    -2.02839  -1.20892   1.94266
H    -1.38193  -2.59103   0.18438
H     0.43733  -2.75148   2.19548
H     2.84233  -2.25807   0.97887
H     2.21408  -1.83387  -1.62860
