14
Generated by autodE on: 2022-05-26. E = -433.142758 Ha
C     1.89679   2.20785   0.50625
N     1.40257   1.15955   0.39094
C     0.70071   0.05565   0.11815
C     1.35540  -1.18925   0.07615
N     1.86612  -2.24039   0.02271
C    -0.75335   0.25242  -0.07260
O    -1.26483   1.37184   0.06947
N    -1.45646  -0.84383  -0.43644
C    -2.89898  -0.82487  -0.57261
H     2.13178   3.18141   0.93358
H    -0.97555  -1.73237  -0.53048
H    -3.20954  -1.63133  -1.24967
H    -3.22277   0.13618  -0.99412
H    -3.41186  -0.96322   0.39512
