26
Generated by autodE on: 2022-05-26. E = -1000.424964 Ha. Imaginary frequency = -243.4 cm-1
C     3.51692  -0.99647   1.44317
N     2.71380  -0.47632   0.35097
C     2.01896  -1.30027  -0.45045
O     2.11595  -2.53112  -0.43426
C     1.04983  -0.67424  -1.40112
C     0.42060  -1.51580  -2.35810
N    -0.10444  -2.20760  -3.13349
N     0.85325   0.62180  -1.46814
C     0.40302   1.67836  -1.14221
C    -1.08285   0.99372   0.48037
C    -1.69799   2.31306   0.71215
F    -2.26709   2.79925  -0.40380
F    -2.65107   2.24238   1.65282
F    -0.79298   3.21869   1.12125
C    -0.93515  -0.21207   0.68008
C    -0.74823  -1.61727   0.94225
C    -1.57156  -2.58344   0.13449
O     0.04006  -1.98821   1.80878
H     4.17383  -0.19993   1.81332
H     4.13413  -1.83495   1.09326
H     2.88246  -1.35286   2.27131
H     2.51250   0.51848   0.34003
H     0.55561   2.73584  -1.37818
H    -0.91459  -3.39341  -0.21617
H    -2.07252  -2.10599  -0.71677
H    -2.33221  -3.02633   0.79900
