42
Generated by autodE on: 2022-06-20. E = -1161.100400 Ha
C    -3.61510   1.50216   2.19663
N    -2.38768   0.98982   1.61812
C    -2.38682   0.19454   0.54905
O    -3.41771  -0.20679  -0.01327
C    -1.01332  -0.21261   0.00709
C    -0.81988  -1.75108  -0.06473
O     0.32473  -2.20912   0.03234
N    -1.90441  -2.50144  -0.26215
C    -1.81291  -3.93463  -0.46213
O    -0.00230   0.28958   0.87912
C     1.17520   0.63074   0.16070
C     1.52044   2.01258   0.56579
N     1.75077   3.06543   0.99292
C     2.35577  -0.28419   0.57130
O     3.21810  -0.62520  -0.20387
O     2.30532  -0.58718   1.85476
C     3.32752  -1.47211   2.34929
C     0.83574   0.44522  -1.33431
C     1.53515   1.34525  -2.31062
O     2.45064   2.08833  -2.03027
C    -0.71648   0.46103  -1.38537
C    -1.25082   1.90136  -1.41379
C    -1.26098  -0.32493  -2.57657
H    -3.39317   1.92729   3.18286
H    -4.06209   2.28606   1.56350
H    -4.34990   0.69253   2.30992
H    -1.48693   1.29988   1.97085
H    -2.79470  -2.01248  -0.36180
H    -1.28173  -4.41380   0.37388
H    -1.27118  -4.17391  -1.39196
H    -2.82615  -4.34924  -0.52517
H     3.25623  -2.44251   1.83798
H     4.32224  -1.03521   2.18479
H     3.13037  -1.58848   3.42053
H     1.16981  -0.56613  -1.61552
H     1.17225   1.24962  -3.35908
H    -0.89516   2.41348  -2.32045
H    -0.92540   2.48776  -0.54312
H    -2.34941   1.90495  -1.44186
H    -1.03209   0.21024  -3.50989
H    -0.81855  -1.32892  -2.64519
H    -2.35285  -0.42277  -2.49886
