14
Generated by autodE on: 2022-06-20. E = -270.683216 Ha
C    -1.20035   1.03921  -0.04513
C    -0.76820  -0.38519   0.15462
C    -1.85507  -1.36873   0.45357
C     0.52823  -0.79325   0.07695
C     1.67386   0.05865  -0.20492
O     1.65611   1.27050  -0.40870
H    -2.29167   1.13859   0.03759
H    -0.87939   1.41517  -1.02926
H    -0.72614   1.70005   0.69819
H    -2.59715  -1.36714  -0.36426
H    -2.40365  -1.05725   1.35995
H    -1.47670  -2.39052   0.59450
H     0.75957  -1.85068   0.23528
H     2.64940  -0.48517  -0.22905
