28
Generated by autodE on: 2022-06-20. E = -890.321702 Ha
C    -3.99945  -2.12315  -0.55142
N    -2.71394  -1.57302  -0.16809
C    -2.29365  -0.39198  -0.64252
O    -2.96077   0.29895  -1.43019
C    -0.93499   0.05415  -0.21260
O    -0.29962  -0.80487   0.52134
C     0.97125  -0.83285   0.92425
C     1.23625  -1.77753   1.93587
N     1.46489  -2.53662   2.79314
C     2.03541  -0.21639   0.13472
O     1.87774   0.23716  -0.98559
O     3.21101  -0.29280   0.76329
C     4.36127   0.16474   0.03433
C    -0.46532   1.47026  -0.30600
O     0.29817   1.91224   0.56029
N    -0.98235   2.19310  -1.30728
C    -0.72969   3.61524  -1.41722
H    -4.13984  -3.08065  -0.03688
H    -4.81975  -1.44296  -0.27394
H    -4.04921  -2.28939  -1.63916
H    -2.11570  -2.09547   0.46411
H     5.21243   0.04679   0.71413
H     4.23870   1.22061  -0.24606
H     4.50815  -0.44263  -0.87035
H    -1.75863   1.76079  -1.81474
H    -0.99749   3.94940  -2.42709
H     0.33477   3.82013  -1.23763
H    -1.31802   4.19327  -0.68443
