28
Generated by autodE on: 2022-07-27. E = -890.319862 Ha
C    -3.86116   2.01805   1.16171
N    -2.53309   1.63199   0.72657
C    -2.25618   0.36647   0.38014
O    -3.10213  -0.54352   0.41070
C    -0.84990   0.07203  -0.01343
O    -0.03614   1.07689   0.09523
C     1.28431   1.16876  -0.02722
C     1.77149   2.48586  -0.13802
N     2.19115   3.56979  -0.24960
C     2.22862   0.05511   0.14038
O     3.37483   0.09692  -0.26635
O     1.71655  -0.93108   0.87509
C     2.49286  -2.13310   0.99226
C    -0.43892  -1.15236  -0.76283
O     0.50786  -1.08913  -1.55879
N    -1.18166  -2.24582  -0.55822
C    -0.94191  -3.46367  -1.30474
H    -4.16504   1.44716   2.05314
H    -3.85424   3.08635   1.40669
H    -4.60691   1.83647   0.37180
H    -1.79874   2.33137   0.68539
H     2.70390  -2.54153  -0.00620
H     3.43560  -1.93216   1.52009
H     1.87502  -2.83251   1.56629
H    -2.04975  -2.10816  -0.03454
H    -1.51480  -4.27946  -0.84798
H     0.12892  -3.71377  -1.27841
H    -1.24358  -3.36301  -2.36071
