42
Generated by autodE on: 2022-06-20. E = -1161.005205 Ha. Imaginary frequency = -273.5 cm-1
C    -3.90378   1.67347   1.65804
N    -2.57279   1.14062   1.44416
C    -2.37798   0.01159   0.74644
O    -3.32106  -0.69178   0.33694
C    -0.96504  -0.35207   0.44183
C    -0.52933  -1.71992   0.03661
O     0.65841  -1.95933  -0.22697
N    -1.49829  -2.64181  -0.05827
C    -1.22612  -3.95552  -0.60193
O    -0.10599   0.53145   0.92203
C     1.16380   0.76423   0.63192
C     1.57706   2.07981   0.99026
N     1.94685   3.15636   1.23956
C     2.25705  -0.27304   0.68718
O     3.19381  -0.29406  -0.07868
O     2.13915  -1.01234   1.78545
C     3.09638  -2.07245   1.94783
C     0.63493   0.69142  -1.80636
C     1.33782   1.97011  -1.86878
O     2.51169   2.08264  -2.20147
C    -0.75421   0.58028  -1.85911
C    -1.64527   1.78078  -1.67746
C    -1.37431  -0.58949  -2.57185
H    -3.84462   2.49267   2.38470
H    -4.57171   0.89334   2.05007
H    -4.33931   2.05889   0.72081
H    -1.76788   1.71148   1.68084
H    -2.45782  -2.30126   0.04811
H    -2.11973  -4.58042  -0.48438
H    -0.38599  -4.42910  -0.07333
H    -0.96704  -3.90318  -1.67331
H     3.02113  -2.77398   1.10515
H     4.11531  -1.66450   2.00421
H     2.83287  -2.57358   2.88593
H     1.24200  -0.18087  -2.05656
H     0.74003   2.87569  -1.62536
H    -1.63465   2.38557  -2.60082
H    -1.32402   2.42752  -0.85046
H    -2.68615   1.47278  -1.50888
H    -0.69373  -1.44851  -2.63620
H    -1.60889  -0.26661  -3.60198
H    -2.32354  -0.89352  -2.10918
