44
Generated by autodE on: 2022-06-18. E = -921.603189 Ha
C     5.11327  -0.37871  -0.41560
C     4.03957   0.17641   0.18221
C     4.15230   0.91979   1.48685
C     2.71805   0.05537  -0.44236
C     1.57307   0.56007   0.05166
C     0.24403   0.37888  -0.62016
C    -0.52366   1.68886  -0.99513
C     0.20941   2.98425  -0.65593
C    -0.94903   1.68589  -2.45886
O    -1.77037   1.61432  -0.22002
N    -1.63365   0.70006   0.87099
C    -1.14838   1.41252   2.05573
C    -0.82076  -0.35763   0.26201
C    -0.18477  -1.35732   1.24217
C     0.57394  -2.50976   0.63834
O    -0.32307  -1.25874   2.44604
C    -1.75507  -1.20428  -0.66401
O    -1.32769  -1.77286  -1.67137
N    -3.01453  -1.30361  -0.22675
C    -4.03714  -2.01627  -0.96403
H     5.01729  -0.91807  -1.36289
H     6.11201  -0.30852   0.02443
H     3.80328   1.96052   1.38177
H     5.19021   0.93706   1.84790
H     3.52158   0.45412   2.26235
H     2.68251  -0.50253  -1.38555
H     1.59430   1.11432   0.99202
H     0.39918  -0.21775  -1.52600
H     1.13959   3.06187  -1.23834
H     0.46504   3.05200   0.40848
H    -0.43036   3.84241  -0.91230
H    -0.06667   1.78949  -3.10822
H    -1.62592   2.53102  -2.65839
H    -1.46515   0.75097  -2.71928
H    -0.07518   1.65751   2.04509
H    -1.36088   0.81206   2.94575
H    -1.72275   2.34632   2.11448
H     0.97797  -2.29850  -0.35660
H    -0.13132  -3.35355   0.54506
H     1.37322  -2.81081   1.32870
H    -3.26276  -0.67737   0.53597
H    -4.89364  -2.20344  -0.30421
H    -4.38545  -1.44242  -1.83969
H    -3.64403  -2.97829  -1.32125
