23
Generated by autodE on: 2022-06-18. E = -351.519867 Ha
C     3.72033  -0.62468   0.05380
C     2.56955   0.08351   0.03620
C     2.57730   1.59079   0.03009
C     1.28454  -0.61210   0.02207
C     0.06406  -0.01918   0.00255
C    -1.18636  -0.74929  -0.01117
C    -2.42164  -0.18973  -0.03335
C    -3.65929  -1.03838  -0.04630
C    -2.63554   1.30600  -0.04754
H     4.69533  -0.12957   0.06466
H     3.71162  -1.71905   0.05806
H     3.60369   1.98374   0.04252
H     2.06517   1.98703  -0.86252
H     2.04090   1.99444   0.90493
H     1.33248  -1.70775   0.02788
H     0.00660   1.07316  -0.00377
H    -1.11189  -1.84313  -0.00297
H    -4.27318  -0.82055  -0.93907
H    -4.29979  -0.80868   0.82453
H    -3.42794  -2.11375  -0.03554
H    -3.70674   1.55377  -0.06200
H    -2.19295   1.79019   0.83884
H    -2.17252   1.77582  -0.93126
