21
Generated by autodE on: 2022-07-27. E = -570.056993 Ha
C     1.11143  -2.61343  -1.91033
N     1.03506  -1.39951  -1.12291
C    -0.15174  -0.88908  -0.75643
O    -1.22839  -1.35680  -1.15019
C    -0.10029   0.28992   0.17930
C     0.96324   0.38974   1.22246
C     0.71834   1.10175   2.52232
O     2.04913  -0.15529   1.02585
N    -1.05688   1.21935   0.10961
C    -2.11577   1.21375  -0.93629
O    -1.13141   2.19554   0.89452
H     2.16528  -2.83377  -2.11929
H     0.66580  -3.47231  -1.38089
H     0.57787  -2.49448  -2.86530
H     1.85383  -1.05020  -0.62463
H     1.43412   0.70934   3.25803
H    -0.31625   0.99112   2.87311
H     0.89701   2.17967   2.38521
H    -1.72787   0.85260  -1.89165
H    -2.44887   2.25353  -1.00416
H    -2.93297   0.56497  -0.60033
