21
Generated by autodE on: 2022-06-18. E = -570.059151 Ha
C     3.45462   0.27549  -0.08096
N     2.09384  -0.19936  -0.21277
C     1.03003   0.52087   0.16845
O     1.09116   1.65309   0.67915
C    -0.31990  -0.07940  -0.02644
C    -1.47345   0.79100   0.42768
C    -1.80339   1.97340  -0.42514
O    -2.08463   0.48806   1.41025
N    -0.54778  -1.29938  -0.46909
C    -1.92562  -1.83078  -0.58915
O     0.35968  -2.12517  -0.80997
H     3.50529   1.04683   0.69769
H     4.11293  -0.55954   0.19613
H     3.82581   0.71072  -1.02426
H     1.88129  -1.11879  -0.60827
H    -2.21432   1.59739  -1.37867
H    -2.54755   2.60909   0.07279
H    -0.89370   2.54173  -0.66380
H    -1.91036  -2.52429  -1.43605
H    -2.65069  -1.02966  -0.76318
H    -2.16739  -2.36875   0.33692
