44
Generated by autodE on: 2022-06-18. E = -921.561572 Ha. Imaginary frequency = -378.3 cm-1
C     3.51614  -2.42499  -1.57660
C     3.17450  -1.26106  -0.97705
C     4.07267  -0.60192   0.03769
C     1.89085  -0.64460  -1.27962
C     1.41122   0.50011  -0.71710
C     0.08113   0.97730  -0.95022
C    -0.39242   2.29962  -0.63766
C     0.50723   3.24252   0.11788
C    -1.25371   2.96811  -1.68705
O    -1.68401   2.03861   0.68057
N    -2.15357   0.80957   0.61157
C    -3.40550   0.67897  -0.12683
C    -1.16895  -0.13381   0.71287
C    -0.20406   0.03253   1.83306
C    -0.47920   1.01845   2.94275
O     0.81481  -0.66391   1.91126
C    -1.30221  -1.44567  -0.00528
O    -2.24432  -1.69882  -0.77299
N    -0.28327  -2.30580   0.17157
C    -0.15317  -3.49240  -0.64488
H     2.85165  -2.90004  -2.30460
H     4.46135  -2.92714  -1.35292
H     4.34158   0.42111  -0.27336
H     3.56023  -0.51226   1.00971
H     4.99965  -1.17426   0.18233
H     1.25593  -1.17851  -1.99417
H     2.03708   1.04997  -0.01190
H    -0.48466   0.44156  -1.71825
H     1.24036   3.69363  -0.57128
H     1.05905   2.74158   0.92327
H    -0.08588   4.05819   0.55756
H    -1.93401   2.25390  -2.17114
H    -1.84549   3.78881  -1.25617
H    -0.60361   3.39766  -2.46919
H    -3.23617   0.62922  -1.21219
H    -3.99285   1.57440   0.11345
H    -3.94053  -0.22029   0.19236
H    -0.10066   0.57212   3.87352
H    -1.53866   1.27789   3.04501
H     0.08369   1.94567   2.76119
H     0.49060  -1.98278   0.75622
H    -0.23824  -3.24990  -1.71662
H     0.83039  -3.94164  -0.45976
H    -0.93142  -4.23636  -0.40863
