47
Generated by autodE on: 2022-06-22. E = -1073.965241 Ha
C    -1.65011   3.48489   2.14206
N    -1.18269   2.24945   1.54936
C    -1.47405   1.85496   0.30580
O    -2.16671   2.49504  -0.49546
C    -0.91142   0.47151  -0.08996
C    -2.04249  -0.53434   0.16645
C    -3.22789  -0.45389  -0.58081
C    -4.26585  -1.36185  -0.36340
C    -4.13545  -2.36222   0.60605
C    -2.96040  -2.44241   1.35744
C    -1.92045  -1.53240   1.14122
N     0.26924   0.16175   0.71426
C     1.20977  -0.30373  -0.02377
C     2.52968  -0.62258   0.56888
C     3.37629  -1.61946   0.05189
C     4.60435  -1.89229   0.65921
C     5.01265  -1.16848   1.78253
C     4.18138  -0.16972   2.30237
C     2.95151   0.09775   1.70384
C     0.84941  -0.45924  -1.50963
C     0.44327  -1.91247  -1.82613
C     1.96027  -0.00536  -2.46640
C    -0.43077   0.45072  -1.57344
C    -0.09743   1.82575  -2.09464
O    -0.34841   2.19122  -3.22570
H    -0.80557   4.14447   2.39567
H    -2.29966   4.00091   1.42520
H    -2.22232   3.28492   3.06113
H    -0.55608   1.64064   2.07065
H    -3.33910   0.32820  -1.33311
H    -5.18053  -1.28833  -0.95650
H    -4.94627  -3.07507   0.77351
H    -2.84729  -3.21897   2.11785
H    -1.00465  -1.60254   1.72778
H     3.07631  -2.20569  -0.81513
H     5.24441  -2.67705   0.24979
H     5.97674  -1.37951   2.25118
H     4.49564   0.40539   3.17645
H     2.30495   0.88083   2.10218
H    -0.35382  -2.26520  -1.15703
H     0.07448  -1.96826  -2.86161
H     1.29716  -2.59798  -1.73517
H     1.56372   0.06576  -3.49029
H     2.79008  -0.72454  -2.47731
H     2.36970   0.97730  -2.18849
H    -1.17314   0.02098  -2.25538
H     0.46085   2.49196  -1.39498
