33
Generated by autodE on: 2022-06-22. E = -803.197751 Ha
C    -2.43345   4.07328  -0.43118
N    -2.29162   2.65693  -0.16581
C    -1.06223   2.08807  -0.03878
O    -0.03019   2.78861  -0.08369
C    -0.98624   0.63167   0.12523
N     0.26101   0.16820   0.00168
C     1.37417  -0.17330  -0.11021
C     2.71802  -0.57244  -0.25459
C     3.70345   0.40350  -0.53298
C     5.03136   0.01033  -0.67282
C     5.39322  -1.33637  -0.54422
C     4.41466  -2.29973  -0.27030
C     3.07992  -1.93263  -0.12146
C    -2.05541  -0.35065   0.33117
C    -1.86498  -1.69666  -0.06367
C    -2.85486  -2.65684   0.13687
C    -4.07318  -2.31123   0.73352
C    -4.27409  -0.98921   1.14085
C    -3.28245  -0.02425   0.95388
H    -3.49723   4.33907  -0.38024
H    -1.88735   4.66649   0.31726
H    -2.04839   4.35566  -1.42696
H    -3.09760   2.06004  -0.30716
H     3.41150   1.45008  -0.63265
H     5.79267   0.76397  -0.88563
H     6.43750  -1.63489  -0.65708
H     4.69439  -3.35067  -0.16941
H     2.31343  -2.67812   0.09500
H    -0.92847  -1.98877  -0.54368
H    -2.67520  -3.68602  -0.18447
H    -4.85073  -3.06332   0.88432
H    -5.20981  -0.70220   1.62738
H    -3.45519   0.98407   1.32892
