43
Generated by autodE on: 2022-06-18. E = -846.387631 Ha
C     0.71822   1.15921   2.77840
C     1.19446   0.04121   1.88821
O     1.94876  -0.81180   2.32201
C     0.75568   0.02869   0.39577
C     2.02240   0.05364  -0.51798
C     3.25038  -0.74127  -0.17050
O     1.98733   0.72676  -1.53142
N    -0.12131   1.14552   0.11265
C     0.36813   2.49967  -0.04381
C    -1.37732   0.77966  -0.49709
C    -2.51137   1.75121  -0.12305
C    -1.27278   0.86692  -1.99083
N    -1.17353   1.03842  -3.13560
C    -1.59448  -0.69775  -0.01933
C    -2.54290  -1.47182  -0.94226
C    -2.22520  -0.70881   1.38270
C    -0.12026  -1.27557   0.00631
C     0.28758  -1.82693  -1.37723
C     0.02763  -2.44872   0.98058
H     0.88509   0.87438   3.82539
H     1.32109   2.05672   2.56176
H    -0.32848   1.42899   2.60092
H     3.79704  -0.22731   0.63586
H     3.89183  -0.79360  -1.06014
H     3.00845  -1.74566   0.19689
H     1.40029   2.57178   0.31813
H     0.37007   2.83362  -1.09774
H    -0.23616   3.21259   0.54120
H    -2.35328   2.73144  -0.59344
H    -2.54503   1.88935   0.96462
H    -3.47735   1.35949  -0.47200
H    -2.23251  -1.46506  -1.99427
H    -2.62015  -2.51946  -0.61540
H    -3.55102  -1.03276  -0.88816
H    -1.61817  -0.18974   2.13479
H    -3.21803  -0.24062   1.36504
H    -2.36700  -1.74415   1.71874
H     1.32134  -2.19681  -1.35812
H    -0.34737  -2.68693  -1.62671
H     0.20572  -1.09597  -2.18807
H    -0.18505  -2.19238   2.02333
H     1.04547  -2.85977   0.93711
H    -0.66767  -3.24613   0.67687
