25
Generated by autodE on: 2022-07-27. E = -610.379051 Ha
C     1.00829  -1.80509   2.03382
C     0.07213  -0.89077   1.27827
O    -0.94848  -0.47120   1.85431
C     0.37624  -0.54278  -0.09709
C     1.58309  -0.87163  -0.81489
C     1.77398  -0.31755  -2.21810
O     2.49951  -1.55522  -0.32684
N    -0.68103   0.11433  -0.78363
C    -1.32133  -0.55066  -1.93038
C    -1.26212   1.16978  -0.26394
C    -2.58111   1.68693  -0.72548
C    -0.55602   1.91638   0.73419
N    -0.02986   2.62125   1.49414
H     0.55041  -2.03429   3.00546
H     1.97633  -1.30563   2.19128
H     1.21894  -2.72843   1.47821
H     2.84574  -0.12086  -2.36153
H     1.20416   0.59839  -2.42275
H     1.47831  -1.08043  -2.95714
H    -2.30837  -0.92354  -1.61853
H    -1.44517   0.15615  -2.76085
H    -0.70685  -1.40017  -2.23591
H    -2.90094   2.53420  -0.10872
H    -3.33903   0.88879  -0.67814
H    -2.50851   2.01479  -1.77591
