43
Generated by autodE on: 2022-06-18. E = -846.321816 Ha. Imaginary frequency = -284.1 cm-1
C     2.27197  -0.03313   2.54935
C     1.05810   0.59806   1.90158
O     0.20149   1.12107   2.63500
C     0.91114   0.57687   0.45238
C     2.05621   0.20308  -0.39261
C     2.43760   1.12354  -1.53898
O     2.80088  -0.74555  -0.12638
N    -0.12434   1.33774  -0.11296
C    -0.50896   2.64500   0.43218
C    -0.91262   0.76317  -1.08984
C    -2.03742   1.59391  -1.66572
C    -0.23870   0.02511  -2.14044
N     0.20689  -0.55675  -3.04266
C    -1.77358  -0.92271  -0.15188
C    -2.41032  -1.68099  -1.30840
C    -2.80095  -0.25602   0.74287
C    -0.67482  -1.56995   0.50442
C     0.18698  -2.56372  -0.20875
C    -0.70934  -1.73849   1.99130
H     2.23142   0.18982   3.62394
H     3.21105   0.34906   2.12387
H     2.27792  -1.12258   2.40625
H     3.32687   1.68069  -1.19710
H     1.66755   1.85287  -1.81466
H     2.72926   0.53279  -2.41813
H     0.29119   3.00167   1.08507
H    -0.62060   3.36012  -0.39562
H    -1.44559   2.61397   1.00530
H    -2.67714   2.00595  -0.87744
H    -1.62406   2.42961  -2.25366
H    -2.64923   0.98131  -2.33907
H    -1.68682  -2.10822  -2.01134
H    -3.10774  -1.04352  -1.87097
H    -2.99782  -2.51766  -0.89123
H    -2.34375   0.46901   1.42859
H    -3.57024   0.25668   0.15017
H    -3.31731  -1.01526   1.35537
H     1.15426  -2.67423   0.29870
H     0.36620  -2.32559  -1.26250
H    -0.31606  -3.54993  -0.17470
H     0.24481  -2.11206   2.38450
H    -0.99507  -0.83483   2.53933
H    -1.48148  -2.50187   2.21372
