29
Generated by autodE on: 2022-07-27. E = -762.169923 Ha
C     3.23418  -2.04572   1.35228
N     2.74554  -1.37115   0.16433
C     1.94113  -0.30329   0.25798
O     1.66512   0.25860   1.32152
C     1.47722   0.29585  -1.04331
C     2.46567   0.54281  -2.13092
N     0.26367   0.74776  -1.16691
C    -0.90115   0.63988  -0.41080
C    -1.87596   1.62696  -0.81528
C    -3.25426   1.67750  -0.20570
O    -1.57075   2.45164  -1.70469
C    -1.09374  -0.53125   0.41343
O    -0.37692  -1.53013   0.38803
O    -2.16858  -0.46023   1.22512
C    -2.46908  -1.63076   1.98994
H     3.92646  -2.84085   1.05103
H     2.40389  -2.49042   1.92526
H     3.76356  -1.33957   2.00846
H     2.86660  -1.81667  -0.73997
H     3.36742   1.02999  -1.72721
H     2.03305   1.16756  -2.92502
H     2.78838  -0.41255  -2.58040
H     0.08388   1.38026  -1.96477
H    -3.77954   0.71877  -0.32296
H    -3.19690   1.87985   0.87382
H    -3.82123   2.47664  -0.70127
H    -3.36706  -1.38862   2.57106
H    -1.63820  -1.87912   2.66656
H    -2.66771  -2.49033   1.33263
