49
Generated by autodE on: 2022-06-25. E = -1219.847222 Ha. Imaginary frequency = -445.2 cm-1
C     2.45084  -3.87175   0.11356
N     1.97859  -2.70513  -0.60577
C     2.05759  -1.47495  -0.05644
O     2.75262  -1.23466   0.93361
C     1.39210  -0.38463  -0.89692
C     2.36926   0.18221  -1.90614
N     0.15899  -0.64257  -1.45348
C    -1.04864  -0.71275  -0.81488
C    -2.16457  -0.29455  -1.69372
C    -3.59138  -0.27521  -1.22890
O    -1.88623   0.09064  -2.83688
C    -1.17625  -1.46320   0.43863
O    -0.24256  -1.99664   1.01844
O    -2.42478  -1.50294   0.91812
C    -2.61312  -2.16697   2.17384
C    -0.38029   1.44639   0.33247
C    -1.23747   1.22426   1.51419
N    -2.48733   1.74802   1.49890
O    -0.82988   0.60098   2.51406
C    -0.72690   2.39394  -0.78759
C     0.23894   3.55532  -0.74066
C     1.50825   3.34705  -0.33678
N     1.95292   2.12867   0.13994
C     3.29279   2.03381   0.69835
C     1.01172   1.13016   0.47150
H     2.42316  -4.74235  -0.55401
H     1.82540  -4.08054   0.99879
H     3.48456  -3.71807   0.45248
H     1.26147  -2.84310  -1.31080
H     3.33722   0.39187  -1.43767
H     1.98034   1.11236  -2.34385
H     2.53970  -0.54912  -2.71293
H     0.01103  -0.20669  -2.37084
H    -3.94905  -1.29786  -1.03988
H    -3.69247   0.27637  -0.28502
H    -4.20010   0.19280  -2.01314
H    -3.68379  -2.08651   2.39514
H    -2.02454  -1.67194   2.95731
H    -2.31978  -3.22409   2.10050
H    -2.89247   2.17607   0.67676
H    -3.09205   1.55598   2.29015
H    -1.76640   2.74212  -0.73970
H    -0.64130   1.87164  -1.76019
H    -0.08036   4.55078  -1.05405
H     2.25902   4.14093  -0.33809
H     4.01065   2.55436   0.04847
H     3.34737   2.48046   1.70876
H     3.58500   0.98038   0.77436
H     1.28105   0.57544   1.37012
