37
Generated by autodE on: 2022-06-01. E = -3491.345791 Ha
C    -2.27215  -4.28860   0.31023
C    -2.59788  -2.83213   0.11911
O    -3.51052  -2.46553  -0.60068
C    -1.77432  -1.81803   0.93700
N    -0.35253  -2.12195   1.08293
C     0.37812  -1.50546  -0.01688
C     0.24323  -2.32698  -1.25211
N     0.07584  -3.01133  -2.17531
C     1.86059  -1.29869   0.28859
C     2.77152  -1.07918  -0.75365
C     4.11175  -0.80368  -0.47381
C     4.55485  -0.74767   0.85160
C     3.64824  -0.96618   1.89265
C     2.30555  -1.23810   1.61407
C    -0.39737  -0.16684  -0.26739
C     0.09026   1.04610   0.58126
O    -0.49079   0.78216   1.85934
C    -1.85812   0.73859   1.40711
C    -1.98122   2.04628   0.63143
C    -0.76058   2.22648   0.11568
Br   -0.15674   3.49810  -1.12779
C    -1.81242  -0.40397   0.34631
H    -2.06963  -4.51521   1.36856
H    -3.09912  -4.90657  -0.06308
H    -1.36172  -4.53762  -0.25991
H    -2.25578  -1.84354   1.93237
H    -0.12774  -3.10658   1.21228
H     2.43389  -1.11969  -1.79195
H     4.81216  -0.63435  -1.29491
H     5.60371  -0.53510   1.07121
H     3.98559  -0.92320   2.93096
H     1.59254  -1.39386   2.42233
H    -0.39622   0.07717  -1.33523
H     1.17104   1.20090   0.64339
H    -2.54815   0.57980   2.24302
H    -2.89851   2.60684   0.45780
H    -2.63166  -0.31387  -0.37346
