13
Generated by autodE on: 2022-06-01. E = -2881.097880 Ha
Br    1.54534   0.76552   0.50948
C    -0.03704   0.12942  -0.27062
C    -1.04283   0.79527  -0.84245
C    -2.08865  -0.30967  -1.12780
C    -2.64262  -0.78646   0.23706
C    -1.63017  -1.44133   0.81168
C    -0.47605  -1.35614  -0.21590
O    -1.21569  -1.41738  -1.44531
H    -1.17919   1.86299  -1.00296
H    -2.81161  -0.11233  -1.92655
H    -3.63437  -0.55567   0.62469
H    -1.55877  -1.89705   1.79850
H     0.31855  -2.10790  -0.16228
