24
Generated by autodE on: 2022-07-26. E = -610.162369 Ha
C    -4.37345  -1.28013   0.86011
C    -2.93110  -1.04079   0.47918
O    -2.32759  -1.84657  -0.25137
C    -2.30016   0.11951   1.04257
N    -1.01875   0.46686   0.81736
C    -0.15151   0.18623  -0.17270
C    -0.62524  -0.23586  -1.43910
N    -0.93324  -0.48417  -2.53677
C     1.27596   0.47062   0.00202
C     2.12140   0.59605  -1.12121
C     3.47443   0.88681  -0.96206
C     4.01650   1.06135   0.31636
C     3.19126   0.92802   1.43743
C     1.83862   0.62317   1.28765
H    -4.69587  -0.68041   1.72220
H    -4.52585  -2.35032   1.06620
H    -5.01073  -1.01761  -0.00212
H    -2.78429   0.67809   1.84174
H    -0.62177   1.06878   1.54502
H     1.70968   0.47625  -2.12490
H     4.11033   0.98342  -1.84494
H     5.07764   1.28932   0.43814
H     3.60651   1.04230   2.44125
H     1.23084   0.47660   2.18341
