37
Generated by autodE on: 2022-06-01. E = -3491.259991 Ha. Imaginary frequency = -296.4 cm-1
C    -3.91111  -2.99761   0.52602
C    -2.42445  -3.06834   0.26974
O    -1.96065  -3.81583  -0.59298
C    -1.59326  -2.24636   1.13766
N    -0.23818  -2.22026   1.11198
C     0.60794  -2.03602   0.06638
C     0.35426  -2.53868  -1.24263
N     0.31770  -2.85798  -2.36402
C     1.99336  -1.59954   0.34718
C     3.02317  -1.82527  -0.58781
C     4.32501  -1.39309  -0.33611
C     4.63270  -0.72594   0.85320
C     3.61829  -0.48763   1.78589
C     2.31335  -0.91102   1.53681
C    -0.70632  -0.01488  -0.65661
C    -0.06070   1.04362   0.25367
O    -0.57348   0.64167   1.53410
C    -1.96556   0.67968   1.15080
C    -2.07344   2.12287   0.61348
C    -0.87877   2.34124   0.05485
Br   -0.26196   3.80000  -0.95097
C    -1.92784  -0.27203  -0.06989
H    -4.19455  -3.85015   1.16691
H    -4.45218  -3.09947  -0.42550
H    -4.21057  -2.07191   1.03641
H    -2.01013  -2.00295   2.11592
H     0.15559  -1.87997   1.98613
H     2.80421  -2.34860  -1.51931
H     5.10553  -1.58428  -1.07605
H     5.65287  -0.38903   1.04964
H     3.83903   0.04531   2.71349
H     1.54278  -0.66496   2.26927
H    -0.43395  -0.15685  -1.69988
H     1.02964   1.13954   0.25235
H    -2.62485   0.41318   1.98287
H    -2.96475   2.74726   0.63077
H    -2.82409  -0.60783  -0.58859
