45
Generated by autodE on: 2022-06-01. E = -1407.654459 Ha
C    -1.53989   3.71393   0.82723
C    -2.07589   2.37516   0.41723
O    -3.23540   2.04814   0.59431
C    -1.10974   1.44082  -0.31553
N     0.28600   1.65333   0.05363
C     1.06280   0.50440  -0.37878
C     1.33887   0.67624  -1.83779
N     1.59962   1.06310  -2.90211
C     2.42026   0.38512   0.32500
C     2.80893   1.30904   1.29928
C     4.03895   1.16763   1.95031
C     4.88651   0.10412   1.63209
C     4.50461  -0.81523   0.64892
C     3.28070  -0.67246  -0.00649
C     0.11236  -0.69565  -0.03808
C     0.38122  -1.92532  -0.95334
C     0.44476  -3.30922  -0.37442
O     0.58437  -1.74538  -2.13849
C     0.12053  -1.14763   1.48116
C    -0.03055   0.01788   2.44192
C    -1.31489   0.38381   2.37159
C    -1.91770  -0.52390   1.31471
O    -1.18906  -1.73456   1.52724
C    -1.34742  -0.08030  -0.11012
C    -2.24429  -0.64865  -1.20878
F    -2.32789  -1.99224  -1.13769
F    -3.49816  -0.17886  -1.11714
F    -1.81043  -0.34414  -2.44544
H    -0.78752   3.57382   1.61968
H    -1.02868   4.20171  -0.01865
H    -2.35630   4.34730   1.19650
H    -1.28335   1.68208  -1.38440
H     0.66439   2.53052  -0.30019
H     2.14626   2.13437   1.55642
H     4.33240   1.89499   2.71063
H     5.84527  -0.00682   2.14375
H     5.16341  -1.64621   0.38724
H     3.00558  -1.38622  -0.78560
H    -0.39450  -3.51270   0.29945
H     1.37438  -3.40429   0.21073
H     0.47103  -4.03220  -1.19888
H     0.90211  -1.87068   1.72304
H     0.77573   0.45183   3.02866
H    -1.82502   1.19645   2.88454
H    -2.99721  -0.69370   1.33643
