20
Generated by autodE on: 2022-06-20. E = -457.715259 Ha
C    -3.14744   0.25106  -0.37268
N    -1.79972  -0.26349  -0.19498
C    -1.59521  -1.64690  -0.11854
C    -0.37920  -2.19179   0.04426
C     0.88255  -1.37280   0.16088
C     0.56361   0.11019   0.06258
C     1.62325   1.12621   0.14064
N     2.88466   0.66087   0.30352
O     1.40935   2.34699   0.06501
C    -0.71495   0.55430  -0.10291
H    -3.58990  -0.11351  -1.31407
H    -3.11673   1.34728  -0.40278
H    -3.80127  -0.05851   0.45879
H    -2.50118  -2.24994  -0.20137
H    -0.30005  -3.28016   0.09448
H     1.60542  -1.67476  -0.62453
H     1.39992  -1.60490   1.11452
H     3.64541   1.32930   0.35752
H     3.10177  -0.32581   0.36097
H    -0.91471   1.62483  -0.17002
