19
Generated by autodE on: 2022-06-20. E = -721.999960 Ha
C     4.33765   0.80375  -0.10657
O     3.03885   0.27711   0.23747
C     2.01330   0.75594  -0.43462
O     2.02324   1.58979  -1.30773
C     0.73904   0.11366   0.02222
O     0.62794  -0.77109   0.93836
C    -0.87151  -1.12598   1.04182
O    -1.21402  -1.94320   1.84395
C    -1.40228  -0.28256   0.05450
C    -2.76980  -0.11059  -0.37873
C    -3.02206   0.87766  -1.48657
O    -3.66778  -0.76302   0.15559
O    -0.37399   0.44867  -0.53314
H     4.55587   0.59379  -1.16281
H     4.35900   1.88758   0.07268
H     5.04879   0.28811   0.54685
H    -4.09764   0.91344  -1.70085
H    -2.46959   0.58323  -2.39347
H    -2.66327   1.87862  -1.19804
