39
Generated by autodE on: 2022-06-20. E = -1179.700911 Ha. Imaginary frequency = -407.4 cm-1
C     4.61281  -0.52331   1.14272
O     3.37656  -0.68952   0.42547
C     2.26665  -0.69950   1.14719
O     2.20257  -0.66177   2.36018
C     1.04965  -0.66692   0.31132
O     1.08954  -0.88564  -1.03585
C    -0.22639  -1.14724  -1.43985
O    -0.53925  -1.26646  -2.59517
C    -0.96528  -1.18663  -0.18227
C    -2.33056  -1.70401  -0.00567
C    -2.68900  -2.29470   1.32435
O    -3.10715  -1.62704  -0.95032
O    -0.04843  -1.26529   0.82184
C    -1.02217   1.10046   0.01762
C    -1.92603   1.01281   1.21171
N    -1.37395   0.80773   2.42814
O    -3.14821   1.14206   1.06766
C    -1.70970   1.53735  -1.26188
C    -0.71950   1.86667  -2.34460
C     0.57476   2.08260  -2.07044
N     1.10061   1.99584  -0.77682
C     2.51984   2.25395  -0.58183
C     0.36785   1.38436   0.22112
H     4.59476   0.41935   1.70793
H     4.76939  -1.36601   1.83018
H     5.39891  -0.49930   0.38036
H    -2.37021  -1.64267   2.15058
H    -2.14855  -3.24915   1.44442
H    -3.77031  -2.47432   1.36687
H    -2.00773   0.66841   3.20950
H    -0.40295   0.55262   2.56514
H    -2.34404   2.41509  -1.02919
H    -2.42223   0.76316  -1.59115
H    -1.07309   1.96156  -3.37215
H     1.30102   2.35255  -2.83911
H     2.79095   3.21883  -1.03450
H     2.73911   2.30291   0.49288
H     3.14232   1.46517  -1.03314
H     0.71753   1.60757   1.23014
