36
Generated by autodE on: 2022-05-26. E = -1120.252267 Ha
C    -1.55018   4.76103  -1.54322
O    -0.76344   3.67897  -1.01567
C    -1.26015   2.45978  -1.15696
O    -2.31601   2.19670  -1.69724
C    -0.38417   1.38601  -0.57645
N     0.72528   1.64503   0.00076
C     1.35344   0.37130   0.39035
C     1.76352   0.45262   1.79572
N     2.05131   0.53079   2.91570
C     2.56947   0.13703  -0.53053
O     2.57393   0.46907  -1.69094
O     3.53274  -0.52317   0.08960
C     4.68286  -0.89278  -0.69629
C     0.32592  -0.78598   0.10313
C    -0.43257  -1.34427   1.34334
O    -1.37174  -0.30034   1.60986
C    -2.02789  -0.32893   0.33975
C    -2.35845  -1.80477   0.16163
C    -3.46796  -2.32213  -0.66704
C    -1.35401  -2.44395   0.80599
C    -1.09169  -3.83081   0.85087
N    -0.86371  -4.97301   0.89912
C    -0.82535  -0.04588  -0.63356
H    -1.68721   4.63763  -2.62695
H    -2.53168   4.79258  -1.04908
H    -0.98449   5.67468  -1.33004
H     5.35260  -1.42456  -0.01194
H     4.37635  -1.54752  -1.52390
H     5.17183   0.00739  -1.09341
H     0.79366  -1.59072  -0.47244
H     0.17413  -1.58681   2.22066
H    -2.85809   0.38201   0.28820
H    -3.37527  -1.93051  -1.69505
H    -3.47689  -3.42011  -0.70338
H    -4.43553  -1.96026  -0.28116
H    -1.03315  -0.37806  -1.65816
