23
Generated by autodE on: 2022-06-17. E = -351.521382 Ha
C    -3.58353  -0.95534  -0.73881
C    -2.56579  -0.26140  -0.18348
C    -2.82254   0.89369   0.75035
C    -1.18306  -0.62553  -0.48621
C    -0.07818  -0.00749   0.00163
C     1.27378  -0.40801  -0.33057
C     2.42469   0.16312   0.10642
C     2.48702   1.34546   1.03129
C     3.76119  -0.37016  -0.32615
H    -3.39368  -1.79341  -1.41655
H    -4.62715  -0.70414  -0.52998
H    -3.89980   1.05924   0.89239
H    -2.37725   1.82487   0.36225
H    -2.36620   0.71525   1.73821
H    -1.04933  -1.47354  -1.16867
H    -0.20402   0.83893   0.68212
H     1.36047  -1.26610  -1.00815
H     3.04864   1.08635   1.94623
H     1.50152   1.72487   1.33052
H     3.04340   2.17236   0.55553
H     4.34690   0.41257  -0.84107
H     3.66655  -1.23400  -1.00039
H     4.36295  -0.67421   0.54922
