13
Generated by autodE on: 2022-06-17. E = -340.827214 Ha
C    -3.02478  -0.43468   0.08141
N    -1.82971  -1.06454  -0.48877
N    -0.76132  -0.64009  -0.06201
C     0.31641  -0.34657   0.37038
C     1.42423   0.57528   0.16154
C     2.47293   0.10232  -0.80737
O     1.49098   1.62694   0.78392
H    -2.95288  -0.35461   1.17823
H    -3.89449  -1.04615  -0.18436
H    -3.16591   0.57626  -0.33497
H     3.23846   0.88087  -0.92702
H     2.93613  -0.82352  -0.42958
H     2.01184  -0.13467  -1.77976
