36
Generated by autodE on: 2022-06-17. E = -692.338458 Ha. Imaginary frequency = -297.8 cm-1
C    -0.59431  -2.60084  -1.77663
C    -0.98148  -2.28628  -0.52643
C    -2.25525  -2.82684   0.07006
C    -0.22462  -1.37357   0.36146
C    -1.28623   0.48536  -0.05568
C    -2.04874   0.89178   1.09693
C    -2.94314   2.09360   0.86774
O    -2.00840   0.31488   2.18541
N    -0.84145   1.04159  -1.06823
N     0.07114   1.02140  -1.90972
C    -0.10203   1.89709  -3.06601
C     1.07224  -0.95441   0.15598
C     1.77522  -0.12640   1.09567
C     3.02254   0.39589   0.93669
C     3.63872   1.24067   2.01182
C     3.87177   0.19617  -0.28349
H    -1.19394  -3.27487  -2.39466
H     0.31703  -2.19708  -2.22434
H    -2.04091  -3.41994   0.97571
H    -2.80491  -3.46055  -0.64040
H    -2.91390  -2.00096   0.38773
H    -0.63820  -1.23837   1.36628
H    -2.31947   3.00296   0.86375
H    -3.67214   2.15876   1.68664
H    -3.45836   2.03694  -0.10145
H    -0.75627   1.42446  -3.81968
H     0.88041   2.06287  -3.52709
H    -0.54108   2.86901  -2.78768
H     1.58720  -1.25453  -0.75868
H     1.23489   0.11437   2.01851
H     4.60821   0.81733   2.33006
H     2.98859   1.33188   2.89378
H     3.85981   2.25363   1.63023
H     3.35121  -0.30955  -1.10634
H     4.77325  -0.38955  -0.02989
H     4.23423   1.17110  -0.65246
