10
Generated by autodE on: 2022-10-06. E = -455.051689 Ha
O    -2.37613   0.85078   0.41154
C    -1.95376  -0.28104   0.04701
O    -2.66952  -1.28644  -0.21975
C    -0.45829  -0.47957  -0.09462
C     0.45831   0.47959   0.09461
C     1.95376   0.28104  -0.04701
O     2.37611  -0.85079  -0.41153
O     2.66953   1.28644   0.21975
H    -0.12775  -1.48404  -0.38034
H     0.12779   1.48406   0.38034
