27
Generated by autodE on: 2022-10-06. E = -964.657067 Ha. Imaginary frequency = -383.0 cm-1
C    -3.07421   0.82778  -1.92480
N    -1.94159   0.20168  -1.26999
C    -1.95858   0.02117   0.05097
O    -2.92981   0.29815   0.77155
C    -0.73507  -0.58679   0.72451
C    -0.85705  -0.56078   2.15780
N    -0.89790  -0.50811   3.31762
C     0.80794   0.83795   0.14541
C     1.47926   1.06274   1.49168
O     1.05526   2.04288   2.15872
O     2.38990   0.26450   1.84885
C     1.45546   0.09492  -0.86253
C     1.38402   0.46470  -2.32958
O     2.46014   0.41893  -2.97028
O     0.25279   0.78855  -2.80127
O     0.31733  -1.51753  -1.01572
N    -0.10895  -1.68729   0.19513
C     0.71018  -2.56471   1.03731
H    -2.86037   0.89626  -2.99901
H    -3.26346   1.84284  -1.53583
H    -3.99315   0.23866  -1.78260
H    -1.04224   0.21758  -1.79054
H     0.13660   1.64283  -0.16249
H     2.37191  -0.41803  -0.56213
H     1.57669  -2.00206   1.41653
H     1.04089  -3.39569   0.40432
H     0.11554  -2.95144   1.87359
