26
Generated by autodE on: 2022-06-26. E = -689.460838 Ha
C    -2.96746   1.60226   0.38895
O    -1.56730   1.74863   0.64818
C    -0.66778   0.83731   0.27817
C    -0.84189  -0.29548  -0.45970
O    -2.04184  -0.65113  -1.00567
C    -2.68886  -1.78494  -0.41776
C     0.31391  -1.15899  -0.78426
O     0.15086  -2.14476  -1.50127
C     1.66817  -0.81860  -0.25277
C     2.79393  -1.74912  -0.57604
C     1.85471   0.31042   0.47483
C     3.19827   0.70426   1.00609
C     0.70585   1.20276   0.77515
O     0.84257   2.22685   1.43034
H    -3.43968   2.47722   0.85335
H    -3.35889   0.68507   0.85205
H    -3.17223   1.59615  -0.68925
H    -3.63418  -1.92120  -0.95954
H    -2.90238  -1.60026   0.64822
H    -2.07626  -2.69286  -0.51775
H     3.26932  -2.12007   0.34692
H     2.44392  -2.60495  -1.16484
H     3.58057  -1.22562  -1.14468
H     3.92590   0.81227   0.18498
H     3.14558   1.65013   1.55790
H     3.59511  -0.07507   1.67756
