24
Generated by autodE on: 2022-07-27. E = -593.038459 Ha
C    -1.36755   2.19298   2.76608
N    -1.37918   0.82620   2.30118
O    -0.66921   0.80253   1.19126
C    -0.47479  -0.22593   0.39426
C    -1.22480  -1.49202   0.50358
C    -2.49315  -1.56853   1.30741
O    -0.82122  -2.47796  -0.11716
C     0.56671   0.02839  -0.60538
C     0.59537  -0.64379  -1.84675
C     1.58216  -0.35052  -2.78719
C     2.55800   0.61505  -2.51888
C     2.53832   1.29095  -1.29391
C     1.55873   1.00096  -0.34653
H    -1.74550   2.19209   3.79717
H    -0.35424   2.63346   2.74761
H    -2.02866   2.84230   2.15977
H    -2.25637  -1.70795   2.37341
H    -3.08412  -0.64420   1.23911
H    -3.06620  -2.43448   0.94750
H    -0.16360  -1.38839  -2.07740
H     1.58371  -0.87837  -3.74373
H     3.33060   0.83763  -3.25835
H     3.29895   2.04251  -1.06990
H     1.56326   1.51963   0.61324
