24
Generated by autodE on: 2022-06-26. E = -593.038495 Ha
C    -3.13547  -2.10951  -0.21748
N    -2.68331  -0.80365   0.20076
O    -1.39303  -0.75275  -0.06350
C    -0.58917   0.27654   0.09313
C    -1.06409   1.64100   0.39394
C    -2.50706   2.01445   0.19752
O    -0.24702   2.48691   0.76393
C     0.82279  -0.08497  -0.06339
C     1.79529   0.85153  -0.47682
C     3.12267   0.46219  -0.65148
C     3.51310  -0.86136  -0.42246
C     2.55827  -1.79968  -0.01560
C     1.23040  -1.41839   0.16533
H    -2.47162  -2.91749   0.13999
H    -3.20322  -2.19161  -1.31971
H    -4.14202  -2.25589   0.19652
H    -3.09995   1.69969   1.07002
H    -2.56003   3.10774   0.09897
H    -2.95009   1.51470  -0.67567
H     1.50672   1.88224  -0.67243
H     3.85867   1.20068  -0.97788
H     4.55528  -1.15940  -0.55788
H     2.85205  -2.83493   0.17293
H     0.49699  -2.15295   0.50108
