50
Generated by autodE on: 2022-06-26. E = -1282.517261 Ha. Imaginary frequency = -166.5 cm-1
C    -4.86473   0.10700   0.55668
O    -3.60711  -0.44588   0.95705
C    -2.51576   0.09359   0.33343
C    -1.96607  -0.43714  -0.79323
O    -2.36025  -1.52310  -1.46244
C    -3.09544  -2.57439  -0.82692
C    -0.76135   0.20236  -1.43022
O    -0.37502  -0.21639  -2.52114
C    -0.09699   1.30032  -0.72634
C     1.01650   2.00061  -1.44075
C     1.38655  -0.51280   0.49718
C     0.48266  -1.70226   0.58482
C    -0.04909  -2.14419   1.92815
O     0.26256  -2.39059  -0.40568
C     2.57191  -0.46958  -0.35262
C     2.69934  -1.28736  -1.49750
C     3.82707  -1.18750  -2.31177
C     4.85194  -0.28866  -2.00334
C     4.73859   0.52302  -0.86803
C     3.61125   0.44429  -0.05670
O     1.40937   0.34792   1.50977
N     0.22552   0.62381   2.07533
C     0.47177   1.43375   3.23969
C    -0.66591   1.85391   0.42298
C    -0.25862   3.22564   0.87114
C    -1.96558   1.32286   0.93445
O    -2.57178   1.88299   1.84701
H    -5.63916  -0.41458   1.13500
H    -5.03912  -0.05725  -0.51973
H    -4.91012   1.18539   0.77416
H    -3.02528  -3.43161  -1.50904
H    -2.64021  -2.83458   0.13850
H    -4.15066  -2.30436  -0.68530
H     1.81287   2.30447  -0.74703
H     0.64122   2.92262  -1.91983
H     1.45091   1.36553  -2.22088
H     0.51213  -1.74120   2.77995
H    -1.09930  -1.83549   2.03077
H    -0.01247  -3.24360   1.93038
H     1.90632  -1.98636  -1.74741
H     3.90371  -1.82212  -3.19753
H     5.73394  -0.21820  -2.64384
H     5.53325   1.22944  -0.61782
H     3.52791   1.09085   0.81637
H     0.78512   0.79085   4.08322
H     1.24976   2.19877   3.07645
H    -0.48024   1.90669   3.51425
H    -0.78030   3.51882   1.78827
H    -0.50791   3.95898   0.08527
H     0.82646   3.29015   1.03429
