41
Generated by autodE on: 2022-06-19. E = -957.324977 Ha
C     5.12184   1.99417  -1.54474
C     4.46599   1.06938  -0.81497
C     5.18605  -0.05845  -0.12504
C     3.00782   1.15598  -0.68300
C     2.23299   0.30082   0.00856
C     0.74489   0.43550   0.09040
C     0.16031   0.29324   1.47955
C     0.84943   0.78146   2.64643
N     1.43900   1.18983   3.55986
N    -0.98314  -0.27010   1.57614
C    -1.42857  -0.60274   0.21722
C    -2.26989  -1.89369   0.19030
C    -2.93038  -2.31236   1.46783
O    -2.39692  -2.51306  -0.84809
C    -2.31877   0.57360  -0.24995
O    -2.14622   1.71670   0.10968
O    -3.25307   0.19363  -1.10873
C    -4.07694   1.22897  -1.67473
C    -0.11035  -0.63855  -0.67151
C     0.55798  -2.01802  -0.57556
C    -0.31305  -0.25830  -2.13556
H     4.58493   2.80842  -2.04087
H     6.20828   1.96091  -1.66528
H     5.00885  -0.03380   0.96310
H     4.82247  -1.03694  -0.48064
H     6.26959  -0.00626  -0.30139
H     2.52861   1.99531  -1.20046
H     2.67977  -0.54358   0.53969
H     0.45640   1.43559  -0.27363
H    -3.59685  -3.16300   1.27650
H    -2.16195  -2.59415   2.20471
H    -3.49042  -1.47006   1.90276
H    -3.45421   1.94205  -2.23298
H    -4.77478   0.71972  -2.34825
H    -4.62263   1.75568  -0.87973
H     0.69498  -2.33908   0.46837
H    -0.03651  -2.77745  -1.09623
H     1.54724  -1.98036  -1.05278
H     0.65796  -0.27901  -2.65378
H    -0.98576  -0.97055  -2.63260
H    -0.72581   0.75530  -2.24980
