18
Generated by autodE on: 2022-06-19. E = -605.723817 Ha
C     3.33048  -0.89697   0.29709
O     2.00705  -0.34610   0.25479
C     1.04473  -1.13173  -0.25392
O     1.24738  -2.25778  -0.67067
C    -0.26217  -0.46111  -0.23826
N    -0.31909   0.76415   0.24054
C    -0.48367   1.85219   0.64438
C    -0.64759   3.11431   1.11890
N    -0.78723   4.20165   1.52793
C    -1.55280  -1.01175  -0.70482
C    -1.57947  -2.40583  -1.26602
O    -2.56714  -0.32377  -0.62384
H     3.35215  -1.80140   0.92227
H     3.67848  -1.14447  -0.71626
H     3.96552  -0.11867   0.73575
H    -1.21214  -3.12962  -0.52352
H    -0.91493  -2.48314  -2.13944
H    -2.61163  -2.64580  -1.55239
