44
Generated by autodE on: 2022-06-21. E = -1163.067501 Ha
C    -1.30068   3.57595  -1.17376
C    -1.94679   2.41254  -0.48620
O    -3.09537   2.42755  -0.08398
C    -1.06748   1.20617  -0.13542
N     0.34138   1.31673  -0.36238
C     0.72466   0.12250   0.41522
C     2.21188  -0.09602   0.50430
C     2.94629  -0.12892  -0.69290
C     4.32722  -0.32987  -0.67628
C     4.99711  -0.50028   0.53969
C     4.27452  -0.46160   1.73463
C     2.89113  -0.25966   1.71977
C    -0.09387   0.31490   1.70020
O     0.07883  -0.06890   2.83043
O    -1.19594   1.00815   1.32752
C    -0.10442  -0.97365  -0.40407
N    -0.31863  -2.24118   0.25278
C     0.87475  -3.00180   0.58998
C    -1.42100  -2.37529   1.09572
C    -2.56226  -1.69063   0.92316
C    -2.73556  -0.77499  -0.25183
C    -1.40389  -0.17426  -0.78003
C    -1.56588   0.04469  -2.28599
N    -1.25895  -0.98130  -3.09165
O    -2.01282   1.11488  -2.71188
H    -0.64559   3.25497  -1.99225
H    -2.07411   4.26368  -1.53901
H    -0.67684   4.10528  -0.43113
H     0.73021   2.16561   0.05745
H     2.43386   0.00987  -1.64648
H     4.88221  -0.35233  -1.61703
H     6.07778  -0.66010   0.55453
H     4.78827  -0.58965   2.69031
H     2.33733  -0.24100   2.65634
H     0.49954  -1.14657  -1.30224
H     1.59553  -2.94341  -0.23742
H     0.60849  -4.05844   0.73831
H     1.37403  -2.63906   1.50534
H    -1.30077  -3.10008   1.90507
H    -3.39885  -1.84441   1.60623
H    -3.41807   0.05443  -0.02365
H    -3.20746  -1.33606  -1.07853
H    -0.95668  -1.87983  -2.73231
H    -1.44361  -0.89562  -4.08707
