44
Generated by autodE on: 2022-06-21. E = -1163.044298 Ha. Imaginary frequency = -366.7 cm-1
C    -1.66598   3.15887  -1.63485
C    -2.09283   2.23056  -0.53557
O    -3.20490   2.26043  -0.03564
C    -1.08796   1.22681  -0.03271
N     0.26878   1.47742  -0.21924
C     0.91106   0.60014   0.66032
C     2.32836   0.29104   0.60604
C     3.08275   0.56972  -0.55453
C     4.43850   0.24530  -0.61814
C     5.07347  -0.36765   0.46663
C     4.33404  -0.65235   1.62148
C     2.98081  -0.32888   1.69533
C    -0.01722   0.32488   1.71056
O     0.04780  -0.27995   2.77256
O    -1.23849   0.89619   1.30107
C    -0.31408  -1.28528  -0.40504
N    -0.48560  -2.30385   0.47007
C     0.66340  -3.08004   0.92190
C    -1.70721  -2.45762   1.14504
C    -2.81061  -1.80976   0.75234
C    -2.81842  -0.91695  -0.45812
C    -1.41261  -0.45807  -0.87315
C    -1.21236  -0.04263  -2.30762
N    -2.30962   0.10813  -3.06724
O    -0.07735   0.22629  -2.73758
H    -1.04219   2.66469  -2.39277
H    -2.55449   3.60462  -2.09952
H    -1.05399   3.95956  -1.18557
H     0.57518   1.49256  -1.19432
H     2.60891   1.03148  -1.42262
H     5.00177   0.47058  -1.52699
H     6.13429  -0.62255   0.41315
H     4.81886  -1.12947   2.47678
H     2.41233  -0.54980   2.59809
H     0.60805  -1.30315  -0.98062
H     1.49290  -2.94782   0.21660
H     0.39940  -4.14657   0.96671
H     0.98826  -2.75141   1.91964
H    -1.68212  -3.14594   1.99052
H    -3.74652  -1.96920   1.29036
H    -3.46918  -0.04738  -0.28176
H    -3.28701  -1.47556  -1.29108
H    -3.24522  -0.06712  -2.72203
H    -2.19921   0.45182  -4.01647
