42
Generated by autodE on: 2022-05-31. E = -1186.061164 Ha
C    -0.23664   3.84022  -0.96045
N    -0.56232   2.43301  -0.81497
C    -0.12799   1.72876   0.23049
O     0.57127   2.21838   1.12869
C    -0.52392   0.25849   0.40326
C    -1.60746   0.15809   1.53149
C    -2.82794   1.01364   1.13930
C    -3.44404   0.22365  -0.05020
C    -2.53988  -1.02538  -0.15202
C    -2.16132  -1.26161   1.32118
C    -1.19309  -0.59081  -0.74868
F    -1.39584   0.10933  -1.93712
C    -0.18371  -1.74763  -1.06024
C    -0.78573  -3.13929  -1.24182
C     0.56733  -1.44048  -2.30587
N     1.13753  -1.32053  -3.30763
O     0.70455  -1.79816   0.05321
C     0.78825  -0.55363   0.74117
C     0.91741  -0.87428   2.17267
N     1.00895  -1.15358   3.29296
C     2.06222   0.17309   0.23575
O     2.16649   0.53371  -0.91353
O     2.99502   0.27618   1.16151
C     4.21412   0.94579   0.78513
H    -0.58073   4.41493  -0.08715
H     0.85070   3.98591  -1.05966
H    -0.73207   4.22508  -1.85970
H    -1.09561   1.96270  -1.53761
H    -1.19916   0.40035   2.51790
H    -3.51817   1.04790   1.99371
H    -2.57107   2.04988   0.88644
H    -4.47403  -0.09216   0.16394
H    -3.45919   0.79739  -0.98559
H    -2.99580  -1.85996  -0.69453
H    -3.04354  -1.45803   1.94626
H    -1.43487  -2.06719   1.48723
H    -1.31213  -3.44796  -0.33118
H    -1.48396  -3.13682  -2.08995
H     0.02138  -3.85564  -1.44754
H     3.99034   1.98293   0.49864
H     4.69107   0.41900  -0.05255
H     4.85465   0.92035   1.67308
