18
Generated by autodE on: 2022-05-31. E = -605.699639 Ha
C     3.29939   1.78570   0.39967
O     1.94339   1.34202   0.24719
C     1.76131   0.02260   0.12644
O     2.66302  -0.80188   0.13484
C     0.36088  -0.35203  -0.01485
C    -0.00252  -1.70412  -0.14656
N    -0.26510  -2.83683  -0.25755
O    -0.52829   0.64382  -0.01007
C    -1.80895   0.73321  -0.08546
C    -2.40751   2.08917  -0.05373
C    -2.63453  -0.42086  -0.19400
N    -3.39521  -1.29899  -0.27868
H     3.74786   1.35196   1.30523
H     3.89962   1.50214  -0.47702
H     3.24967   2.87710   0.48751
H    -1.61247   2.83746   0.05871
H    -3.12196   2.17000   0.78252
H    -2.96838   2.27734  -0.98508
