53
Generated by autodE on: 2022-06-05. E = -1488.302462 Ha
C     5.43690  -0.05135   0.24471
O     4.18428   0.37506  -0.32014
C     3.18153   0.58237   0.52141
O     3.25578   0.48518   1.72270
C     1.87756   0.94039  -0.24033
C     2.27648   1.87875  -1.32097
N     2.63238   2.62177  -2.13753
N     0.92022   1.48982   0.68589
C    -0.43277   1.25749   0.24458
C    -1.37386   1.34191   1.46539
O    -1.01768   1.72535   2.55673
O    -2.60912   0.96457   1.16921
C    -3.54085   0.86997   2.25795
C    -0.88058   2.40393  -0.71293
O    -0.18193   3.37605  -0.90102
O    -2.10239   2.27015  -1.20487
C    -2.55624   3.29638  -2.10394
C    -0.36175  -0.21277  -0.36582
C    -0.83953  -1.22588   0.66139
C    -0.18130  -1.34254   1.89804
C    -0.65252  -2.21183   2.88407
C    -1.79766  -2.98054   2.65773
C    -2.47006  -2.86195   1.43895
C    -1.99679  -1.99108   0.45382
C    -1.06034  -0.28728  -1.76901
C    -0.84805  -1.65522  -2.40175
C     0.42738  -1.67403  -2.79933
C     0.99218  -0.32815  -2.37507
O    -0.14950   0.53122  -2.52796
C     1.16797  -0.36347  -0.81324
C     1.88169  -1.64374  -0.37778
H     6.12664  -0.15462  -0.59996
H     5.30735  -1.01582   0.75582
H     5.80746   0.70022   0.95530
H     1.10112   2.45679   0.94769
H    -3.16807   0.15706   3.00718
H    -4.47765   0.50836   1.82014
H    -3.68920   1.85470   2.72278
H    -3.57194   3.00913  -2.39730
H    -2.56295   4.27144  -1.59759
H    -1.89961   3.33895  -2.98441
H     0.69656  -0.72986   2.10135
H    -0.12132  -2.28380   3.83603
H    -2.16804  -3.66020   3.42866
H    -3.37643  -3.44263   1.25224
H    -2.56658  -1.89541  -0.46945
H    -2.07364   0.11407  -1.79218
H    -1.59473  -2.44465  -2.46599
H     0.99626  -2.48476  -3.25235
H     1.85831   0.04700  -2.92825
H     1.25013  -2.51831  -0.56885
H     2.13153  -1.64906   0.68819
H     2.81325  -1.75892  -0.94991
