26
Generated by autodE on: 2022-06-05. E = -578.022637 Ha
C    -1.25150   2.38028   0.63209
C    -1.30116   1.06125  -0.05097
C    -0.37377   0.10676  -0.28307
C     1.05154   0.03479   0.02271
C     1.65549  -1.21608   0.27316
C     3.01193  -1.30793   0.58965
C     3.80196  -0.15541   0.65214
C     3.22166   1.09072   0.38871
C     1.86579   1.18695   0.07396
C    -1.19256  -1.09064  -0.84955
C    -2.06354  -1.64022   0.30149
C    -2.97421  -0.68645   0.52233
C    -2.63768   0.42006  -0.50315
O    -2.18414  -0.37878  -1.61062
H    -2.08519   2.45990   1.35136
H    -0.30798   2.53995   1.17213
H    -1.37867   3.21062  -0.08519
H     1.05121  -2.12509   0.23451
H     3.45533  -2.28703   0.78711
H     4.86456  -0.22804   0.89532
H     3.83349   1.99575   0.41870
H     1.43556   2.16170  -0.15955
H    -0.64634  -1.81609  -1.46207
H    -1.89003  -2.57695   0.83047
H    -3.75198  -0.62529   1.28302
H    -3.44170   1.10964  -0.78567
