27
Generated by autodE on: 2022-06-05. E = -910.228892 Ha
C    -3.07720   2.66563   0.93260
O    -2.50277   1.34879   0.87776
C    -1.42510   1.20262   0.11600
O    -0.87885   2.11151  -0.48218
C    -0.94006  -0.19326   0.04465
N     0.34933  -0.46673  -0.11259
C     1.50912   0.19987  -0.06014
C     1.66376   1.53602   0.36766
N     1.86948   2.61419   0.75995
C     2.68375  -0.63658  -0.37165
O     2.58536  -1.81704  -0.66370
O     3.82417   0.03915  -0.29508
C     5.03039  -0.68833  -0.58225
C    -1.78602  -1.40336  -0.05881
O    -1.29571  -2.51333  -0.20501
O    -3.08768  -1.16136  -0.00903
C    -3.95976  -2.29847  -0.12105
H    -3.94907   2.58379   1.59096
H    -2.35097   3.38071   1.34439
H    -3.38401   2.98970  -0.07210
H     0.50797  -1.47546  -0.31032
H     5.84729   0.03355  -0.47360
H     5.00138  -1.08267  -1.60787
H     5.15362  -1.51642   0.13002
H    -3.81219  -2.79776  -1.08922
H    -4.97797  -1.90096  -0.04692
H    -3.76529  -3.00939   0.69444
