27
Generated by autodE on: 2022-07-27. E = -910.228961 Ha
C    -3.86750  -0.54897   2.39631
O    -3.02014  -0.10762   1.32257
C    -1.74970  -0.48070   1.37490
O    -1.26433  -1.15540   2.27094
C    -0.92570   0.02408   0.25417
N     0.36032  -0.27030   0.39964
C     1.48401  -0.12260  -0.31382
C     1.54550   0.33142  -1.64891
N     1.65947   0.64718  -2.76515
C     2.69157  -0.61374   0.37605
O     2.65392  -1.09134   1.49795
O     3.78901  -0.47466  -0.35874
C     5.02217  -0.92617   0.22578
C    -1.39001   0.92411  -0.82516
O    -0.71232   1.84677  -1.23923
O    -2.60391   0.62680  -1.27309
C    -3.15247   1.50397  -2.27156
H    -3.89137  -1.64725   2.43598
H    -4.86387  -0.15299   2.17101
H    -3.50472  -0.15270   3.35532
H     0.54640  -0.76796   1.29355
H     5.79737  -0.72858  -0.52268
H     4.96752  -2.00179   0.44561
H     5.23135  -0.36928   1.15016
H    -4.14779   1.10836  -2.50204
H    -2.51976   1.49975  -3.17044
H    -3.22797   2.52808  -1.87915
