53
Generated by autodE on: 2022-06-05. E = -1488.249341 Ha. Imaginary frequency = -301.9 cm-1
C     5.38179   0.12871   0.53672
O     4.21926   0.70315  -0.08561
C     3.13773   0.83427   0.66768
O     3.07198   0.54165   1.84815
C     1.95712   1.33005  -0.09796
C     2.23478   1.95779  -1.34822
N     2.57812   2.38239  -2.37602
N     0.91742   1.65444   0.72467
C    -0.40463   1.64437   0.40514
C    -1.25580   1.40072   1.59732
O    -0.77377   1.24880   2.70886
O    -2.55040   1.29179   1.33336
C    -3.40412   0.95184   2.43821
C    -0.85181   2.48857  -0.73362
O    -0.13170   3.33132  -1.23674
O    -2.10776   2.27575  -1.11251
C    -2.57143   3.03434  -2.23859
C    -0.28513  -0.57320  -0.54884
C    -0.82902  -1.32840   0.58167
C    -0.08628  -1.56126   1.75947
C    -0.63638  -2.27763   2.82169
C    -1.93880  -2.78048   2.73906
C    -2.69287  -2.54754   1.58431
C    -2.14990  -1.82442   0.52288
C    -1.10398  -0.38161  -1.84877
C    -0.96236  -1.68805  -2.65461
C     0.30267  -1.69032  -3.08679
C     0.90995  -0.38421  -2.53176
O    -0.22705   0.48718  -2.57872
C     1.06380  -0.61317  -1.00949
C     2.11191  -1.60609  -0.59588
H     6.15516   0.10879  -0.23883
H     5.15878  -0.89035   0.88282
H     5.70321   0.74863   1.38505
H     1.08564   1.32451   1.68367
H    -3.07968   0.00666   2.89398
H    -4.40908   0.84588   2.01500
H    -3.38804   1.75301   3.19069
H    -3.61275   2.73123  -2.39497
H    -2.51429   4.11165  -2.02854
H    -1.96641   2.79770  -3.12549
H     0.91735  -1.15026   1.86016
H    -0.04342  -2.43841   3.72507
H    -2.36620  -3.34356   3.57182
H    -3.71536  -2.92521   1.51137
H    -2.76321  -1.64341  -0.36057
H    -2.10415   0.04174  -1.74328
H    -1.74113  -2.44046  -2.77223
H     0.84635  -2.44549  -3.65313
H     1.77430   0.03271  -3.05739
H     1.78154  -2.61253  -0.91176
H     2.29299  -1.64740   0.48214
H     3.06497  -1.39595  -1.10064
