45
Generated by autodE on: 2022-06-19. E = -864.646216 Ha
C    -3.75463   2.95520  -0.68673
N    -3.11150   1.71813  -0.29551
C    -1.88641   1.66801   0.23031
O    -1.19757   2.65044   0.52391
C    -1.33821   0.24015   0.44654
C    -0.68406   0.22676   1.77582
N    -0.22235   0.15028   2.83859
N    -2.34603  -0.79574   0.31964
C    -1.72327  -2.09186  -0.08186
C    -2.53381  -2.71685  -1.22179
C    -1.67931  -3.06029   1.10588
C    -0.29298  -1.68682  -0.52113
C    -0.27882  -0.15329  -0.66856
C    -0.78546   0.29132  -2.05459
C     1.05541   0.50305  -0.42550
C     2.25175  -0.11385  -0.38489
C     3.50798   0.59328  -0.19277
C     4.74782   0.05007  -0.14159
C     5.95964   0.91454   0.06809
C     5.03785  -1.41807  -0.28208
H    -4.84443   2.82564  -0.65953
H    -3.46189   3.26164  -1.70518
H    -3.47090   3.75653   0.00858
H    -3.52153   0.81596  -0.53122
H    -2.91201  -0.88460   1.16225
H    -2.55582  -2.06097  -2.10394
H    -2.09732  -3.68277  -1.52059
H    -3.57225  -2.89673  -0.90095
H    -1.13565  -2.61974   1.95560
H    -1.17242  -3.99582   0.82225
H    -2.69889  -3.31427   1.43905
H     0.42053  -1.98052   0.26085
H     0.01192  -2.18416  -1.45164
H    -0.13683  -0.14978  -2.82522
H    -0.73940   1.38519  -2.16230
H    -1.81738  -0.03244  -2.24261
H     1.01659   1.59280  -0.31978
H     2.29570  -1.19998  -0.50359
H     3.42410   1.68049  -0.07638
H     6.66977   0.80424  -0.77108
H     5.69923   1.97875   0.16564
H     6.50904   0.60506   0.97533
H     5.55898  -1.79236   0.61676
H     5.72497  -1.59278  -1.12877
H     4.14127  -2.03191  -0.43755
