23
Generated by autodE on: 2022-06-19. E = -351.521382 Ha
C     3.00618  -2.00117  -1.12064
C     2.25155  -1.23635  -0.30117
C     2.75148  -0.81464   1.05695
C     0.92258  -0.80207  -0.72712
C     0.06987  -0.03528  -0.00190
C    -1.23945   0.36686  -0.47386
C    -2.14704   1.12985   0.18628
C    -1.93651   1.70239   1.55924
C    -3.47203   1.46251  -0.43943
H     4.00369  -2.33998  -0.82729
H     2.64080  -2.30603  -2.10615
H     2.78545   0.28408   1.14446
H     2.08126  -1.17281   1.85602
H     3.75962  -1.20771   1.24988
H     0.60632  -1.13579  -1.72281
H     0.37708   0.30175   0.99183
H    -1.51275   0.00847  -1.47376
H    -2.72551   1.34794   2.24592
H    -2.02734   2.80268   1.53211
H    -0.96281   1.45063   1.99864
H    -3.58097   1.02272  -1.44165
H    -4.30435   1.10319   0.19223
H    -3.60272   2.55657  -0.52164
