45
Generated by autodE on: 2022-06-19. E = -864.596180 Ha. Imaginary frequency = -422.5 cm-1
C    -2.86506   3.69029   0.68191
N    -2.11718   2.48918   0.99114
C    -2.50924   1.27707   0.52924
O    -3.59234   1.12532  -0.07633
C    -1.61457   0.13776   0.73449
C    -0.48686   0.25300   1.55671
N     0.45488   0.43560   2.23181
N    -2.10677  -1.06149   0.25112
C    -1.38983  -2.10521  -0.24563
C    -2.23882  -3.19766  -0.84627
C    -0.19801  -2.59248   0.54242
C    -0.42960  -1.29315  -1.89784
C    -0.16067   0.07033  -1.69756
C    -1.12984   1.07647  -2.26391
C     1.05979   0.57634  -1.11969
C     2.14566  -0.14607  -0.71768
C     3.30966   0.44757  -0.10912
C     4.42458  -0.19903   0.32481
C     5.55933   0.56106   0.94883
C     4.62788  -1.68440   0.24030
H    -2.83738   3.93125  -0.39502
H    -2.43305   4.53128   1.23880
H    -3.91975   3.58091   0.97527
H    -1.18388   2.58555   1.37672
H    -3.01766  -0.89986  -0.18663
H    -2.62033  -3.86097  -0.05105
H    -1.63988  -3.81142  -1.53319
H    -3.09621  -2.78270  -1.39703
H     0.54498  -1.81153   0.73156
H    -0.54539  -2.97873   1.51635
H     0.29282  -3.41360   0.00366
H     0.39840  -2.00489  -1.88029
H    -1.21797  -1.53038  -2.61699
H    -1.02405   2.06366  -1.79217
H    -2.17232   0.74584  -2.14885
H    -0.94860   1.20424  -3.34712
H     1.09580   1.66189  -0.97243
H     2.14280  -1.22915  -0.86407
H     3.27518   1.53610   0.01938
H     6.49809   0.39363   0.39033
H     5.75036   0.20470   1.97741
H     5.36460   1.64294   0.98643
H     3.78681  -2.22009  -0.21825
H     4.79320  -2.10454   1.24842
H     5.53978  -1.91449  -0.33887
