20
Generated by autodE on: 2022-06-04. E = -566.002826 Ha
C    -3.73686  -0.20923  -0.95043
N    -2.54399  -0.60369  -0.22860
C    -1.36393   0.02010  -0.44204
O    -1.27138   0.95284  -1.26033
C    -0.21509  -0.47091   0.34648
C    -0.40410  -1.54664   1.23903
N    -0.62437  -2.44012   1.96011
N     1.04204   0.07116   0.25634
C     2.07730  -0.53847   1.12429
C     1.37833   1.08237  -0.53875
C     2.68373   1.60375  -0.59195
N     3.73757   2.09655  -0.69842
H    -3.99474   0.84406  -0.75558
H    -3.60687  -0.32850  -2.03806
H    -4.57038  -0.84243  -0.62355
H    -2.60698  -1.36379   0.43970
H     1.76499  -0.44144   2.17091
H     3.03024  -0.02504   0.97436
H     2.18171  -1.59793   0.86148
H     0.59548   1.50844  -1.16572
