20
Generated by autodE on: 2022-07-27. E = -565.996638 Ha
C     3.40778  -1.21730   1.19023
N     2.13049  -1.10783   0.51518
C     1.43473   0.05101   0.52290
O     1.87060   1.06823   1.07856
C     0.11038   0.00633  -0.14800
C    -0.45654  -1.24545  -0.46144
N    -0.85289  -2.30803  -0.74611
N    -0.57620   1.14748  -0.46417
C     0.15985   2.43038  -0.59841
C    -1.88536   1.22593  -0.70736
C    -2.81406   0.21802  -0.39083
N    -3.64637  -0.54990  -0.10582
H     3.33060  -0.86922   2.23142
H     4.18737  -0.61802   0.69096
H     3.71878  -2.26905   1.18979
H     1.78754  -1.90502  -0.00996
H     1.13650   2.24636  -1.05320
H     0.28963   2.87395   0.39369
H    -0.43908   3.09240  -1.23175
H    -2.26497   2.15227  -1.13637
