27
Generated by autodE on: 2022-06-04. E = -702.993299 Ha
C     1.59488   2.28887   2.47792
N     1.33328   0.90585   2.84461
C     0.52530   0.05455   2.19665
O     0.34493  -1.11339   2.58887
C    -0.20326   0.61746   1.02028
C    -0.32817   0.12825  -0.22846
C    -1.19936   0.96196  -1.15615
O    -1.96017   1.82578  -0.69833
N    -1.08989   0.71698  -2.46834
C    -1.85614   1.46303  -3.44337
C     0.35089  -1.10770  -0.76585
O     0.77852  -1.14327  -1.93581
N     0.43961  -2.16175   0.05247
C     1.12830  -3.36938  -0.35940
H     0.75446   2.95152   2.74078
H     1.79251   2.38207   1.40122
H     2.48566   2.62932   3.02025
H     1.76915   0.53673   3.68706
H    -0.72003   1.56403   1.20994
H    -0.38193   0.03429  -2.74848
H    -1.57656   2.52977  -3.44902
H    -1.66893   1.04454  -4.43983
H    -2.93432   1.40170  -3.22854
H     0.20075  -2.02727   1.04176
H     2.19830  -3.18343  -0.54970
H     0.68812  -3.77452  -1.28298
H     1.03492  -4.11775   0.43703
