47
Generated by autodE on: 2022-06-04. E = -1268.986663 Ha. Imaginary frequency = -326.8 cm-1
C     2.52055  -2.57915   2.34538
N     1.70917  -1.41127   2.06338
C     0.64860  -1.47548   1.23368
O     0.26021  -2.57292   0.79243
C     0.07869  -0.13965   0.88833
C    -1.23718   0.28639   0.53276
C    -1.57991   1.62939   1.18432
O    -0.69569   2.30498   1.73778
N    -2.85129   2.04429   1.13511
C    -3.25094   3.32195   1.68371
C    -2.37021  -0.58607   0.04782
O    -3.49558  -0.10231  -0.20889
N    -2.12863  -1.88163  -0.16052
C    -3.14253  -2.74118  -0.73498
C    -0.73213   1.35125  -1.44444
C    -1.30294   0.40201  -2.34467
N    -1.85366  -0.29662  -3.09389
N     0.60639   1.44699  -1.21309
C     1.11647   2.79082  -0.86344
C     1.30346   0.30902  -0.85053
C     1.09806  -0.87062  -1.64377
N     1.01469  -1.85807  -2.25208
C     2.67895   0.43231  -0.21244
O     2.88792   1.26276   0.67461
N     3.59211  -0.47266  -0.59079
C     4.85154  -0.60136   0.11905
H     3.30761  -2.29831   3.05516
H     1.91131  -3.38057   2.78875
H     2.98865  -2.97359   1.42872
H     2.07453  -0.49871   2.31790
H     0.57345   0.65247   1.45192
H    -3.49399   1.44308   0.60950
H    -4.33522   3.43710   1.56125
H    -3.00753   3.39228   2.75572
H    -2.74734   4.15940   1.17217
H    -1.20236  -2.27084   0.08012
H    -3.44238  -2.38835  -1.73456
H    -2.73277  -3.75520  -0.82597
H    -4.04652  -2.77919  -0.10604
H    -1.26953   2.30179  -1.44821
H     1.07701   2.95472   0.21638
H     2.14611   2.88690  -1.22279
H     0.48769   3.52300  -1.38019
H     3.38794  -1.12614  -1.34019
H     5.48950   0.28311  -0.03367
H     4.67364  -0.71447   1.19924
H     5.37598  -1.48841  -0.25459
