10
Generated by autodE on: 2022-10-08. E = -455.046579 Ha
O     2.07073  -0.09036  -1.05152
C     1.56966  -0.05097   0.10222
O     1.83536  -0.81855   1.06296
C     0.63281   1.10634   0.39230
C    -0.70691   1.12208   0.29332
C    -1.57557  -0.03858  -0.13164
O    -1.01563  -1.11341  -0.48938
O    -2.82342   0.16078  -0.09428
H     1.14253   2.02348   0.71899
H    -1.25330   2.03855   0.54460
