51
Generated by autodE on: 2022-06-03. E = -1428.393999 Ha
C    -3.15898   2.06307  -2.47324
N    -2.25208   1.73308  -1.39228
C    -2.61824   0.95449  -0.36955
O    -3.75957   0.50453  -0.22307
C    -1.49810   0.63545   0.65280
C    -2.06628   1.05123   2.04676
C    -3.03199   0.15046   2.75373
O    -1.69865   2.11202   2.51698
N    -0.28271   1.36815   0.35233
C     0.91020   0.66869   0.82601
C     1.29309   1.20577   2.16177
N     1.62675   1.75002   3.13078
C     2.14292   0.97982  -0.05109
C     3.40788   0.50787   0.33178
C     4.53186   0.78824  -0.44514
C     4.40832   1.55480  -1.60940
C     3.15396   2.03926  -1.98438
C     2.02535   1.75574  -1.20733
C     0.45988  -0.87872   0.83098
C     0.75633  -1.54828   2.17269
F     0.19322  -0.87496   3.20417
F     0.26288  -2.79378   2.26402
F     2.07631  -1.62748   2.42610
C     1.00726  -1.63414  -0.42627
C     0.59231  -3.12068  -0.45936
C    -0.95390  -3.05280  -0.61548
C    -1.21563  -1.54131  -0.81356
C     0.06954  -1.08762  -1.52479
C    -1.09157  -0.85696   0.57030
H    -2.71523   2.86083  -3.08148
H    -3.35438   1.19096  -3.11925
H    -4.12121   2.41192  -2.07166
H    -1.26404   1.96590  -1.45375
H    -2.45168  -0.62765   3.27774
H    -3.59522   0.72587   3.50023
H    -3.70398  -0.34851   2.04512
H    -0.32855   2.32530   0.70234
H     3.51756  -0.09173   1.23672
H     5.50853   0.40731  -0.13830
H     5.28865   1.77699  -2.21688
H     3.04643   2.64569  -2.88660
H     1.05038   2.14004  -1.50330
H     2.07982  -1.48352  -0.57529
H     0.93161  -3.71105   0.39686
H     1.05234  -3.56092  -1.35595
H    -1.29363  -3.61924  -1.49439
H    -1.48750  -3.44710   0.26161
H    -2.16578  -1.32557  -1.31535
H     0.23293  -1.59746  -2.48516
H     0.12654  -0.00724  -1.68493
H    -1.64387  -1.43689   1.31537
