31
Generated by autodE on: 2022-07-27. E = -818.286751 Ha
C    -4.68246   0.66190  -1.67053
N    -3.79596   0.34287  -0.56721
C    -2.46230   0.34667  -0.72634
O    -1.95148   0.62119  -1.83448
C    -1.55325   0.00984   0.40399
N    -0.27373  -0.02110  -0.06527
C     0.90977  -0.41760   0.38673
C     1.03427  -1.28957   1.50542
N     1.26541  -2.09488   2.31530
C     2.12279  -0.07820  -0.37008
C     3.31717  -0.80062  -0.17155
C     4.46112  -0.48935  -0.90393
C     4.43828   0.54488  -1.84543
C     3.26129   1.27543  -2.04177
C     2.11585   0.97765  -1.30604
C    -1.80185   0.01227   1.83226
C    -3.20559   0.10683   2.38118
O    -0.84689  -0.01868   2.62378
H    -5.71793   0.60863  -1.31360
H    -4.49069   1.67524  -2.05581
H    -4.55625  -0.04689  -2.50444
H    -4.20646   0.07799   0.31770
H    -0.28613   0.34103  -1.03935
H     3.34482  -1.61782   0.55084
H     5.37634  -1.06242  -0.74032
H     5.33668   0.78744  -2.41718
H     3.23853   2.09662  -2.76144
H     1.22314   1.59052  -1.44725
H    -3.14295   0.12673   3.47657
H    -3.71895   1.01856   2.03989
H    -3.80463  -0.76899   2.08156
