31
Generated by autodE on: 2022-06-03. E = -818.290639 Ha
C     4.42483  -0.71805   2.29858
N     3.60997  -0.18320   1.22843
C     2.27946  -0.32467   1.21585
O     1.64898  -0.94054   2.10105
C     1.52413   0.29014   0.08725
N     0.21458  -0.04724   0.17501
C    -0.80886  -0.05027  -0.67839
C    -0.55958   0.09251  -2.06919
N    -0.37913   0.14104  -3.21921
C    -2.17070  -0.31481  -0.21022
C    -2.49596  -0.22809   1.15954
C    -3.78604  -0.52380   1.59563
C    -4.77749  -0.88784   0.67785
C    -4.46931  -0.95342  -0.68537
C    -3.17969  -0.66994  -1.12928
C     2.08366   1.29767  -0.79862
C     1.20059   2.35280  -1.41956
O     3.31468   1.38634  -0.95407
H     4.24556  -1.79653   2.43141
H     5.48199  -0.56380   2.05036
H     4.21222  -0.22122   3.25967
H     4.01151   0.35378   0.45771
H     0.03954  -0.48033   1.10139
H    -1.75094   0.09373   1.88999
H    -4.02255  -0.45285   2.65944
H    -5.78972  -1.10925   1.02300
H    -5.23858  -1.23111  -1.40905
H    -2.94811  -0.73402  -2.19411
H     1.09645   2.17754  -2.50161
H     1.71660   3.31527  -1.28713
H     0.19587   2.41433  -0.98010
