51
Generated by autodE on: 2022-06-03. E = -1428.330415 Ha. Imaginary frequency = -304.7 cm-1
C    -4.22715   1.50893  -1.80275
N    -3.45131   1.36844  -0.58383
C    -2.13129   1.59484  -0.57249
O    -1.52954   1.99975  -1.58211
C    -1.33207   1.31599   0.67916
C    -1.90683   1.38661   2.05238
C    -3.23951   0.76148   2.38333
O    -1.27808   1.97010   2.92656
N    -0.04619   1.76659   0.49044
C     1.10141   1.34016   1.07515
C     1.29355   1.37401   2.49570
N     1.63940   1.42020   3.60595
C     2.36859   1.45182   0.30576
C     3.52858   0.82207   0.79769
C     4.72064   0.86195   0.07645
C     4.78431   1.53719  -1.14642
C     3.64211   2.17492  -1.63837
C     2.44517   2.13530  -0.92204
C     0.38184  -1.02630   0.92998
C     0.64997  -1.57921   2.28726
F     0.34083  -2.90549   2.38808
F     1.94719  -1.49252   2.65379
F    -0.08870  -0.97822   3.24461
C     1.14679  -1.53225  -0.29530
C     0.66689  -2.99010  -0.57898
C    -0.83357  -2.79243  -0.94203
C    -0.99971  -1.23722  -0.94489
C     0.39643  -0.80309  -1.42852
C    -0.95898  -0.84223   0.52699
H    -3.87623   0.81228  -2.58079
H    -5.27732   1.29014  -1.57607
H    -4.15315   2.53186  -2.20152
H    -3.91225   1.01270   0.24314
H    -3.21540   0.44997   3.43640
H    -3.50608  -0.10076   1.75855
H    -4.02464   1.53068   2.28623
H     0.04735   2.01068  -0.50303
H     3.48700   0.27461   1.73920
H     5.60466   0.35747   0.47262
H     5.71877   1.56947  -1.71080
H     3.67998   2.71733  -2.58553
H     1.58390   2.66611  -1.33189
H     2.23566  -1.40899  -0.25462
H     0.82362  -3.66740   0.26796
H     1.23164  -3.38647  -1.43605
H    -1.06577  -3.19346  -1.93971
H    -1.51313  -3.27095  -0.22164
H    -1.86642  -0.88489  -1.51565
H     0.54370   0.27827  -1.46184
H     0.64618  -1.21220  -2.41809
H    -1.78674  -1.11765   1.18153
