21
Generated by autodE on: 2022-07-27. E = -699.251346 Ha
C     3.31965   2.23518  -1.25786
O     2.21856   1.31273  -1.33332
C     1.48395   1.16685  -0.24466
O     1.68115   1.76617   0.80310
C     0.36546   0.19865  -0.37768
N    -0.31409   0.12092   0.77106
C    -1.30404  -0.63822   1.27007
C    -1.81428  -1.83491   0.70502
N    -2.26514  -2.86996   0.41583
C    -1.78751  -0.30080   2.56430
N    -2.20499  -0.03518   3.61894
C    -0.11384  -0.46402  -1.60581
C     0.75319  -0.53800  -2.82831
O    -1.25461  -0.92198  -1.60644
H     4.02551   1.91921  -0.47704
H     3.79844   2.20616  -2.24265
H     2.95195   3.24722  -1.03834
H     0.06712   0.81120   1.44437
H     1.75988  -0.90280  -2.58038
H     0.26712  -1.20274  -3.55394
H     0.87128   0.46334  -3.26939
