44
Generated by autodE on: 2022-06-23. E = -1050.759099 Ha. Imaginary frequency = -334.3 cm-1
C    -5.29392  -0.01040  -1.24961
C    -4.03834   0.45275  -1.44871
C    -3.55099   0.87666  -2.80968
C    -3.12387   0.53112  -0.32262
C    -1.85310   1.04393  -0.37903
C    -0.98442   1.05312   0.73500
C    -0.21506  -1.51175   1.37449
C    -1.10774  -1.88472   0.35630
N    -1.89259  -2.15226  -0.47123
C    -0.58988  -1.77702   2.71126
N    -0.90666  -1.97105   3.81911
N     1.08067  -1.08996   1.12801
C     1.38463  -0.18305   0.13727
C     0.98017  -0.59118  -1.29351
C     1.36968  -1.99381  -1.68230
O     0.47657   0.17611  -2.08443
C     2.82950   0.22689   0.22647
O     3.50122   0.08152   1.22894
O     3.25925   0.78810  -0.89635
C     4.60394   1.29889  -0.90010
C     0.37243   1.51500   0.72702
C     0.77069   2.59977  -0.26160
C     0.93402   1.75342   2.11725
H    -6.00992  -0.08962  -2.07213
H    -5.62906  -0.32166  -0.25583
H    -3.25978   1.93985  -2.81490
H    -2.65553   0.30175  -3.09823
H    -4.32586   0.72668  -3.57419
H    -3.49700   0.16203   0.63805
H    -1.46900   1.40025  -1.33394
H    -1.41238   0.77631   1.70088
H     1.69731  -1.04525   1.94007
H     1.17807  -2.72835  -0.89003
H     0.85431  -2.27471  -2.60960
H     2.45952  -1.98947  -1.86144
H     5.31790   0.48613  -0.70765
H     4.76027   1.71889  -1.89954
H     4.71222   2.07915  -0.13384
H     0.28975   3.54243   0.04987
H     0.47016   2.37811  -1.28935
H     1.85606   2.76670  -0.24701
H     0.72249   0.91768   2.79999
H     2.01569   1.94107   2.10756
H     0.44751   2.64819   2.54057
