49
Generated by autodE on: 2022-06-24. E = -1129.259599 Ha
C    -0.15952   4.05829  -0.43681
O    -0.68163   2.72705  -0.55529
C    -0.30731   1.83147   0.35560
O     0.41819   2.10002   1.28875
C    -0.89193   0.43160   0.04408
C    -1.29022  -0.25138   1.35085
C    -2.60885  -0.67352   1.56594
C    -2.96747  -1.32763   2.74911
C    -2.01023  -1.57609   3.73483
C    -0.69045  -1.16252   3.52679
C    -0.33269  -0.50381   2.34889
N    -2.01315   0.50911  -0.88619
C    -1.57532   0.50855  -2.27455
C    -2.32491  -0.52181  -3.04030
N    -2.91138  -1.33910  -3.61674
C    -1.79782   1.79777  -2.96985
N    -1.99074   2.79889  -3.52183
C    -0.05200   0.17239  -2.21302
C     0.16841  -0.42106  -0.80343
C    -0.23232  -1.90089  -0.78008
C     1.59719  -0.19615  -0.38638
C     2.43649  -1.11645   0.12746
C     3.80687  -0.81638   0.50575
C     4.70665  -1.67305   1.04689
C     4.42970  -3.11848   1.35058
C     6.09413  -1.21133   1.39436
H    -0.55797   4.61090  -1.29523
H     0.93908   4.03999  -0.46784
H    -0.49511   4.51585   0.50447
H    -3.36255  -0.49964   0.79931
H    -4.00262  -1.64570   2.89519
H    -2.28827  -2.09023   4.65798
H     0.07086  -1.35514   4.28662
H     0.69943  -0.19434   2.20269
H    -2.69777   1.22856  -0.66924
H     0.24636  -0.51705  -3.01164
H     0.51248   1.10478  -2.33146
H     0.38241  -2.45793  -1.50157
H    -0.08797  -2.34507   0.21249
H    -1.28770  -2.03529  -1.05125
H     1.97590   0.82077  -0.53744
H     2.08031  -2.13682   0.28439
H     4.12959   0.21738   0.33407
H     5.14611  -3.76485   0.81365
H     3.41421  -3.44006   1.08623
H     4.58420  -3.31806   2.42565
H     6.29908  -1.36397   2.46915
H     6.25047  -0.14866   1.15760
H     6.85114  -1.80562   0.85190
