23
Generated by autodE on: 2022-06-24. E = -351.521383 Ha
C     3.64272   0.81273   0.61010
C     2.57069   0.06104   0.27616
C     2.72331  -1.37993  -0.13921
C     1.23054   0.64310   0.31355
C     0.07843  -0.00458   0.00683
C    -1.22737   0.62056   0.05942
C    -2.42166   0.04444  -0.22943
C    -3.69839   0.83040  -0.12842
C    -2.59349  -1.38297  -0.66557
H     4.65626   0.40252   0.59064
H     3.52882   1.85868   0.91131
H     3.77799  -1.68886  -0.12502
H     2.32755  -1.54457  -1.15520
H     2.15744  -2.04881   0.53041
H     1.17361   1.69488   0.61888
H     0.12774  -1.05344  -0.29780
H    -1.23612   1.67307   0.36763
H    -4.39492   0.35570   0.58595
H    -4.22458   0.84903  -1.09983
H    -3.52413   1.86787   0.19273
H    -3.26425  -1.91649   0.03089
H    -1.65190  -1.94328  -0.72961
H    -3.08534  -1.42331  -1.65361
