49
Generated by autodE on: 2022-06-24. E = -1129.206619 Ha. Imaginary frequency = -495.5 cm-1
C     2.07285   1.71521   2.18518
O     0.91776   1.00502   1.71680
C     0.32231   1.46918   0.61881
O     0.74845   2.42884  -0.01715
C    -0.86615   0.71024   0.20634
C    -1.60566  -0.17802   1.11033
C    -3.00807  -0.04763   1.21890
C    -3.74045  -0.85838   2.08344
C    -3.09280  -1.81679   2.86965
C    -1.70160  -1.94146   2.79181
C    -0.96368  -1.13206   1.92954
N    -1.47023   1.28414  -0.88510
C    -1.99889   0.55647  -1.94241
C    -2.93807  -0.51528  -1.70421
N    -3.66848  -1.41331  -1.60859
C    -2.35656   1.35377  -3.09027
N    -2.58463   1.96905  -4.04934
C    -0.42124  -0.55209  -2.61720
C     0.38629  -0.96663  -1.52473
C     0.08867  -2.29042  -0.87677
C     1.65970  -0.31786  -1.33794
C     2.63186  -0.67453  -0.44977
C     3.87703   0.04243  -0.32767
C     4.82735  -0.12660   0.62989
C     4.71711  -1.10931   1.75902
C     6.06475   0.72329   0.64420
H     1.79018   2.73179   2.49505
H     2.84259   1.76516   1.40443
H     2.44377   1.14611   3.04522
H    -3.52479   0.71557   0.63544
H    -4.82371  -0.73313   2.14998
H    -3.66647  -2.45369   3.54684
H    -1.18291  -2.67914   3.40868
H     0.11706  -1.23866   1.88751
H    -0.93900   2.10049  -1.20487
H    -1.01884  -1.31362  -3.12604
H    -0.00318   0.21129  -3.27944
H     0.52964  -3.10322  -1.48172
H     0.50815  -2.37631   0.13176
H    -0.99283  -2.47465  -0.81506
H     1.84385   0.55613  -1.97199
H     2.45704  -1.52440   0.21469
H     4.04725   0.82810  -1.07340
H     3.81307  -1.73002   1.71629
H     4.71655  -0.57291   2.72500
H     5.59639  -1.77692   1.78047
H     6.97370   0.09624   0.60355
H     6.09214   1.43183  -0.19666
H     6.13280   1.29694   1.58644
