27
Generated by autodE on: 2022-06-08. E = -818.182926 Ha
C     3.76073  -1.67847  -0.25722
N     2.34170  -1.63609   0.03304
C     1.69438  -0.46511   0.20854
O     2.28042   0.62462   0.15184
C     0.23778  -0.57134   0.48064
C    -0.70523   0.37018   0.24922
C    -0.54554   1.72056  -0.37819
F     0.17330   1.69552  -1.51821
F     0.04584   2.61074   0.44248
F    -1.74968   2.23991  -0.70250
C    -2.06217  -0.25340   0.52536
C    -2.29790  -1.26885  -0.64306
C    -1.22290  -2.35845  -0.37524
C    -0.50442  -1.83106   0.91102
C    -1.69138  -1.21190   1.67359
H     3.99307  -1.15899  -1.20099
H     4.07565  -2.72536  -0.34265
H     4.34288  -1.19556   0.54340
H     1.82117  -2.50577   0.06750
H    -2.88337   0.45277   0.68898
H    -3.31561  -1.68005  -0.57505
H    -2.19130  -0.78583  -1.62427
H    -1.68320  -3.33513  -0.16696
H    -0.51778  -2.48696  -1.20828
H     0.09948  -2.57900   1.43865
H    -2.48454  -1.93915   1.90235
H    -1.38705  -0.68660   2.59047
