26
Generated by autodE on: 2022-06-08. E = -557.193293 Ha
C    -3.10773  -0.21672   0.65862
N    -1.90092  -0.50085   0.22779
C    -1.72233  -1.81293  -0.43306
C    -0.76290   0.30828   0.32391
C    -0.81416   1.59603   0.91756
C     0.48670   2.38681   0.96287
O    -1.85005   2.12657   1.40405
C     0.52020  -0.22525  -0.22438
C     1.39462  -0.97192   0.58432
C     2.60743  -1.45060   0.08102
C     2.96857  -1.18620  -1.24401
C     2.11197  -0.44068  -2.06035
C     0.89995   0.03514  -1.55240
H    -3.89255  -0.95514   0.50373
H    -3.27107   0.73759   1.14849
H    -2.68169  -2.33897  -0.44256
H    -0.97857  -2.40262   0.11437
H    -1.36811  -1.66181  -1.45906
H     0.88105   2.57422  -0.04788
H     1.27055   1.84617   1.51546
H     0.29438   3.34854   1.45802
H     1.11420  -1.17587   1.62070
H     3.27326  -2.03018   0.72518
H     3.91685  -1.55873  -1.63905
H     2.38905  -0.22827  -3.09586
H     0.23174   0.61962  -2.18974
