53
Generated by autodE on: 2022-06-08. E = -1375.364301 Ha. Imaginary frequency = -389.7 cm-1
C     5.22149   0.96507   1.28827
N     4.00030   0.95063   0.50771
C     2.99572   0.09378   0.79128
O     3.07948  -0.68942   1.74590
C     1.76850   0.20194  -0.07435
C     0.85630   1.49017   1.26079
N    -0.45927   1.50460   0.92683
C    -0.95684   2.68880   0.20640
C    -1.22453   0.36861   1.03345
C    -1.04140  -0.54771   2.16515
C    -1.96278  -1.74733   2.23661
O    -0.24155  -0.34285   3.08775
C    -2.56138   0.34518   0.36307
C    -3.60089   1.16892   0.83215
C    -4.86487   1.12996   0.24070
C    -5.11610   0.25570  -0.82230
C    -4.09592  -0.58026  -1.28394
C    -2.82890  -0.53554  -0.69543
C     0.91115  -0.90814  -0.32884
C     1.00148  -2.27813   0.25786
F     0.00600  -3.06773  -0.23103
F     2.16039  -2.92021  -0.08773
F     0.92627  -2.37961   1.59272
C     0.53403  -0.84083  -1.80982
C     1.81682  -1.18534  -2.63406
C     2.73544   0.03849  -2.36059
C     1.85852   0.93301  -1.43056
C     0.46894   0.67197  -2.03564
H     5.01424   1.18368   2.34798
H     5.74123  -0.00544   1.24099
H     5.88724   1.74086   0.89035
H     3.91796   1.58052  -0.28097
H     1.37908   2.43916   1.13744
H     1.11737   0.88028   2.11755
H    -1.52588   3.32495   0.89940
H    -1.61229   2.40957  -0.62356
H    -0.10207   3.25442  -0.17921
H    -1.60628  -2.41481   3.03157
H    -2.00699  -2.29194   1.28470
H    -2.98788  -1.42110   2.47526
H    -3.41454   1.84285   1.67119
H    -5.65902   1.77969   0.61626
H    -6.10573   0.22280  -1.28409
H    -4.28374  -1.27251  -2.10815
H    -2.04042  -1.19659  -1.05055
H    -0.34139  -1.43004  -2.10129
H     1.55097  -1.25859  -3.69964
H     2.26771  -2.13887  -2.33363
H     3.68868  -0.24059  -1.89307
H     2.96716   0.58310  -3.28784
H     2.17573   1.98242  -1.36912
H    -0.35977   1.15204  -1.51662
H     0.42271   0.93891  -3.10177
