34
Generated by autodE on: 2022-06-18. E = -907.936815 Ha
C     0.80253   2.69582   1.22268
N     0.85425   1.28569   0.86622
C     1.99023   0.72230   0.36567
C     2.08245  -0.53564  -0.14487
C     3.40205  -0.97176  -0.63206
N     3.45244  -2.17738  -1.25197
O     4.43606  -0.28801  -0.49773
C     0.85169  -1.40048  -0.26256
C    -0.22608  -0.96285   0.73920
C    -0.37793   0.56192   0.82359
C    -1.34486   0.88674  -0.41741
C    -2.29550   1.95410  -0.05504
N    -3.06522   2.76589   0.25004
C    -0.55580   1.33952  -1.58531
N     0.08328   1.66747  -2.49456
N    -1.99139  -0.38958  -0.70004
C    -1.65309  -1.39258   0.32080
C    -1.78396  -2.81369  -0.22878
C    -2.55706  -1.27371   1.49538
N    -3.28759  -1.16710   2.39114
H     0.17941   2.83249   2.11923
H     0.37900   3.31069   0.40909
H     1.81678   3.05653   1.43729
H     2.87976   1.35256   0.41379
H     2.62705  -2.73069  -1.44258
H     4.34043  -2.48798  -1.63068
H     1.09067  -2.45543  -0.06202
H     0.45669  -1.36404  -1.29219
H     0.01858  -1.35157   1.73638
H    -0.96417   0.81605   1.71807
H    -2.98303  -0.31935  -0.91925
H    -1.15840  -2.92995  -1.12201
H    -2.82968  -3.01395  -0.50365
H    -1.47491  -3.54420   0.53251
