14
Generated by autodE on: 2022-06-18. E = -450.169670 Ha
C    -2.87708   0.57191   0.62262
C    -1.51836   0.00652   0.35798
C    -1.35853  -1.40456   0.42415
N    -1.33901  -2.56576   0.51149
N    -0.50424   0.79983   0.07433
C     0.81683   0.57508  -0.22715
C     1.37313  -0.71436  -0.34193
N     1.89117  -1.75476  -0.45740
C     1.64554   1.69623  -0.44161
N     2.34815   2.61211  -0.62119
H    -3.60372   0.16015  -0.09604
H    -3.21421   0.29424   1.63415
H    -2.86727   1.66721   0.53345
H    -0.75079   1.79577   0.08064
