34
Generated by autodE on: 2022-06-18. E = -907.883082 Ha. Imaginary frequency = -331.9 cm-1
C     0.80659   2.61152   1.28832
N     0.98562   1.18052   1.06700
C     2.01594   0.73001   0.26069
C     2.13454  -0.55884  -0.12837
C     3.31105  -0.91002  -0.96062
N     3.37975  -2.19318  -1.38107
O     4.18345  -0.08126  -1.27077
C     1.08546  -1.59065   0.21948
C     0.02960  -1.04999   1.16914
C     0.03587   0.31310   1.49392
C    -1.62337   0.89067  -0.79411
C    -2.51454   1.67997  -0.04521
N    -3.23404   2.36931   0.57133
C    -0.65143   1.51696  -1.58899
N     0.19224   2.02671  -2.22257
N    -1.75581  -0.50389  -0.90020
C    -1.83000  -1.34604   0.16421
C    -1.87305  -2.82113  -0.14299
C    -2.66219  -0.95770   1.28030
N    -3.29617  -0.72543   2.22594
H     0.33250   2.77393   2.26516
H     0.16660   3.04824   0.50570
H     1.78438   3.10875   1.27255
H     2.75216   1.47956  -0.02619
H     2.68169  -2.88729  -1.14453
H     4.16704  -2.47457  -1.95593
H     1.55453  -2.48432   0.66373
H     0.61959  -1.94950  -0.71916
H    -0.31933  -1.71240   1.96478
H    -0.67302   0.71870   2.21841
H    -1.31053  -0.91375  -1.72045
H    -1.14928  -3.06394  -0.93424
H    -2.87948  -3.10268  -0.49121
H    -1.63991  -3.40415   0.75725
