11
Generated by autodE on: 2022-05-29. E = -2859.061998 Ha
C    -3.33862   0.24336  -0.29868
N    -2.98135   0.10843   1.10025
C    -1.74937  -0.01675   1.62864
O    -1.53819  -0.13085   2.84202
C    -0.62995  -0.01361   0.69041
C     0.35914  -0.02172  -0.01463
Br    1.81308  -0.03340  -1.06056
H    -3.87699   1.18751  -0.47436
H    -2.43412   0.24005  -0.91876
H    -3.98327  -0.58964  -0.61926
H    -3.73465   0.10107   1.78537
