14
Generated by autodE on: 2022-05-29. E = -545.274541 Ha
C    -2.77623   1.67198  -0.19841
O    -1.49089   1.03236  -0.14285
C    -1.47667  -0.25218   0.21292
O    -2.45920  -0.91365   0.48944
C    -0.11001  -0.80244   0.23810
C     0.09965  -2.15548   0.59772
N     0.25801  -3.27086   0.89581
N     0.91901  -0.04278  -0.07447
C     1.79680   0.68020  -0.36352
C     2.81868   1.50849  -0.69914
N     3.69947   2.22247  -0.98852
H    -3.42133   1.17060  -0.93397
H    -3.25732   1.64985   0.78984
H    -2.58267   2.70624  -0.50426
