19
Generated by autodE on: 2022-10-22. E = -681.041845 Ha
C     3.98293  -0.28708  -0.31657
O     2.66698   0.22203  -0.06234
C     1.64405  -0.60049  -0.33370
O     1.78623  -1.72766  -0.78213
C     0.36938   0.02303  -0.02262
C     0.12586   1.32523   0.50693
O     0.79188   2.27696   0.83968
O    -1.30865   1.38531   0.62352
C    -1.81048   0.22943   0.19774
C    -3.20074  -0.01347   0.18835
N    -4.34929  -0.19992   0.18582
N    -0.85554  -0.59940  -0.19388
C    -1.08509  -1.94494  -0.72545
H     4.67327   0.51711  -0.03732
H     4.10262  -0.53781  -1.38056
H     4.17621  -1.18172   0.29313
H    -2.16407  -2.13285  -0.74510
H    -0.58272  -2.67414  -0.08043
H    -0.67008  -2.00292  -1.73755
