10
Generated by autodE on: 2022-10-22. E = -7913.946576 Ha
C    -3.08376   0.00727   0.87259
O    -1.73992  -0.33837   1.25105
C    -0.82950  -0.43629   0.28508
Br   -1.10133  -1.84331  -0.99571
C     0.26118   0.35638   0.23601
Br    1.67550   0.16015  -0.99343
Br    0.45268   1.75831   1.49908
H    -3.64224   0.12356   1.80870
H    -3.09049   0.95181   0.30737
H    -3.53307  -0.79568   0.26830
