29
Generated by autodE on: 2022-10-22. E = -8594.954651 Ha. Imaginary frequency = -436.0 cm-1
C     4.41130  -1.59593  -1.23308
O     3.24531  -0.75783  -1.28252
C     2.14114  -1.29296  -1.79742
O     2.07204  -2.42951  -2.23074
C     0.98765  -0.39008  -1.73442
C    -0.29194  -0.68708  -2.34179
O    -0.74699  -1.64398  -2.91727
O    -1.07228   0.45255  -2.10193
C    -0.34242   1.26269  -1.25370
C    -0.76442   2.64274  -1.24059
N    -1.13126   3.74186  -1.20756
N     0.98953   0.95423  -1.41160
C     2.09434   1.76291  -0.90870
C    -0.83221   0.46005   0.46116
Br   -0.09305   1.66319   1.78609
Br   -2.76869   0.56258   0.46080
C    -0.31870  -0.89368   0.41368
Br    1.22552  -1.38398   1.45188
O    -1.17429  -1.85319   0.11943
C    -0.74453  -3.20042  -0.15020
H     5.19257  -0.99131  -0.75973
H     4.71365  -1.88859  -2.24831
H     4.20714  -2.49616  -0.63625
H     2.91162   1.74397  -1.63840
H     2.46178   1.38818   0.05428
H     1.74029   2.79401  -0.79427
H    -1.59775  -3.68528  -0.63687
H     0.12698  -3.20545  -0.81558
H    -0.51281  -3.70860   0.79662
