42
Generated by autodE on: 2022-10-21. E = -994.726952 Ha
C     4.17000   1.51099   0.35942
N     2.77229   1.19421   0.14477
C     2.27199  -0.00922   0.44147
O     2.93576  -0.94552   0.88981
C     0.78069  -0.19022   0.12983
O     0.34959  -1.40736   0.85440
C    -0.70226  -1.89394   0.16147
O    -1.27967  -2.91020   0.46042
C    -0.94044  -0.89929  -0.98273
C    -1.69181  -1.44849  -2.17248
N     0.44614  -0.44525  -1.24761
C     1.30733  -1.39186  -1.95533
C    -1.53997   0.36122  -0.22120
C    -2.16258   1.35870  -1.18518
O    -2.44126  -0.02331   0.80845
C    -3.68932  -0.60901   0.47070
C    -0.24172   0.92296   0.51872
C    -0.37151   1.08317   2.02469
O     0.21981   2.11178  -0.11920
C    -0.13398   3.37522   0.42854
H     4.81870   0.79678  -0.17041
H     4.43201   1.47635   1.42946
H     4.36757   2.52046  -0.02081
H     2.10001   1.90681  -0.14202
H    -2.74130  -1.63876  -1.91673
H    -1.25048  -2.39828  -2.50609
H    -1.66461  -0.73742  -3.00898
H     2.31530  -0.96471  -2.04397
H     1.38804  -2.37768  -1.46146
H     0.92249  -1.54049  -2.97203
H    -2.54555   2.22697  -0.63125
H    -1.42295   1.70556  -1.91456
H    -2.99943   0.90738  -1.73368
H    -3.57746  -1.64528   0.11390
H    -4.24092  -0.02354  -0.28147
H    -4.28102  -0.62687   1.39715
H    -0.58695   0.12055   2.49801
H    -1.18080   1.77605   2.28516
H     0.57458   1.46776   2.43339
H     0.15083   4.12305  -0.32455
H    -1.21436   3.46100   0.61800
H     0.41261   3.58739   1.36145
