22
Generated by autodE on: 2022-10-21. E = -608.243228 Ha
C    -3.96154   0.41013  -0.13834
N    -2.58685  -0.04361  -0.14221
C    -1.54069   0.79914  -0.05249
O    -1.64893   2.02313  -0.01248
C    -0.23401   0.12593  -0.01763
O    -0.14155  -1.20856  -0.07071
C     1.23089  -1.58818  -0.01076
O     1.53816  -2.76107  -0.04478
C     1.92747  -0.36995   0.07883
C     3.39174  -0.15384   0.17826
N     0.99169   0.63938   0.07302
C     1.35485   2.05333   0.16085
H    -3.99570   1.46551  -0.43378
H    -4.55291  -0.18096  -0.85186
H    -4.42060   0.31192   0.85995
H    -2.40369  -1.04187  -0.10819
H     3.67830   0.33683   1.12398
H     3.89302  -1.13072   0.13579
H     3.77901   0.46610  -0.64765
H     1.99786   2.30750  -0.69199
H     0.44353   2.65382   0.14532
H     1.91049   2.21868   1.09320
