20
Generated by autodE on: 2022-10-21. E = -386.448912 Ha
C    -2.76439  -0.86625   0.13862
O    -1.56509  -0.44635   0.77738
C    -0.40495  -0.53957   0.02500
C    -0.12320  -1.85229  -0.63898
C     0.40493   0.53959  -0.02505
C     0.12321   1.85231   0.63892
O     1.56511   0.44632  -0.77737
C     2.76438   0.86624  -0.13854
H    -3.59025  -0.62385   0.82207
H    -2.77590  -1.95233  -0.05376
H    -2.92068  -0.33229  -0.81547
H    -0.27893  -2.68114   0.07197
H     0.91100  -1.88395  -1.00193
H    -0.78893  -2.03343  -1.50013
H    -0.91096   1.88396   1.00196
H     0.78901   2.03349   1.50001
H     0.27885   2.68115  -0.07206
H     3.59028   0.62375  -0.82190
H     2.77591   1.95234   0.05374
H     2.92057   0.33236   0.81561
