42
Generated by autodE on: 2022-10-21. E = -994.676534 Ha. Imaginary frequency = -424.6 cm-1
C     4.13948  -0.50954   1.70998
N     2.77985  -0.77298   1.28276
C     2.29061  -0.24672   0.14742
O     2.97609   0.42026  -0.63672
C     0.83006  -0.49499  -0.08406
O     0.22769  -1.34058   0.82743
C    -0.96503  -1.79735   0.24938
O    -1.77875  -2.42916   0.91722
C    -0.90901  -1.38388  -1.10748
C    -1.85570  -1.75671  -2.18503
N     0.34128  -0.84683  -1.32510
C     0.76559  -0.32047  -2.61191
C    -1.52758   0.87912   0.16964
C    -2.32829   1.31940  -1.01572
O    -2.17779   0.55567   1.32494
C    -3.53906   0.14369   1.25876
C    -0.15334   1.20890   0.34182
C     0.33163   1.51989   1.74250
O     0.40580   1.99732  -0.67753
C     0.20490   3.39721  -0.54410
H     4.86390  -0.84503   0.95208
H     4.30265   0.56700   1.88246
H     4.32814  -1.05121   2.64454
H     2.14994  -1.28294   1.89281
H    -2.77550  -2.15543  -1.73573
H    -1.43486  -2.53371  -2.84669
H    -2.12130  -0.89402  -2.81606
H     0.66272  -1.10897  -3.36997
H     1.81153  -0.01108  -2.54413
H     0.15159   0.54221  -2.90742
H    -2.83856   2.27384  -0.78739
H    -3.10441   0.59938  -1.30597
H    -1.67055   1.48628  -1.87514
H    -3.67615  -0.67989   0.54388
H    -4.19721   0.98353   0.98430
H    -3.80340  -0.20589   2.26516
H     0.19272   0.65483   2.40340
H    -0.22568   2.36457   2.17959
H     1.39882   1.78306   1.72639
H    -0.86052   3.65148  -0.41045
H     0.56763   3.86304  -1.47144
H     0.77457   3.81292   0.30464
