24
Generated by autodE on: 2022-07-27. E = -722.273453 Ha
C    -3.30062  -2.35305  -0.56276
C    -2.16151  -1.36447  -0.52476
O    -1.80691  -0.73763  -1.53647
C    -1.44583  -1.23302   0.71387
C    -1.62052  -2.07542   1.82611
N    -1.79672  -2.76176   2.75609
O    -0.24144  -0.56326   0.71780
C    -0.00113   0.51764   0.03628
C    -1.07694   1.38396  -0.33607
N    -1.90983   2.16641  -0.55015
C     1.36765   0.89744  -0.18247
C     2.41308   0.02258   0.20110
C     3.73359   0.40378   0.00866
C     4.03163   1.64408  -0.57529
C     3.00270   2.50858  -0.96968
C     1.67565   2.14361  -0.77860
H    -3.92653  -2.14292  -1.43972
H    -2.90187  -3.37728  -0.64728
H    -3.90873  -2.30430   0.35220
H     2.17297  -0.94591   0.64035
H     4.54107  -0.26805   0.30550
H     5.07318   1.93427  -0.72954
H     3.23960   3.47024  -1.42825
H     0.87419   2.81757  -1.08550
