24
Generated by autodE on: 2022-06-25. E = -722.274626 Ha
C     2.45786   0.42801  -2.12019
C     2.87889  -0.39207  -0.92851
O     4.02080  -0.83810  -0.79554
C     1.88189  -0.65589   0.09644
C     2.20401  -1.40665   1.24382
N     2.53025  -2.03492   2.17274
O     0.66545  -0.14388  -0.11920
C    -0.46566  -0.13861   0.50929
C    -0.60919  -0.80424   1.76323
N    -0.78983  -1.32725   2.78665
C    -1.57658   0.56022  -0.09912
C    -2.83744   0.58138   0.53744
C    -3.90335   1.25320  -0.05374
C    -3.73002   1.90872  -1.27767
C    -2.48040   1.89134  -1.91402
C    -1.40750   1.22445  -1.33592
H     2.10555   1.42124  -1.80109
H     3.31542   0.53773  -2.79577
H     1.62544  -0.05927  -2.65109
H    -2.97967   0.07044   1.49129
H    -4.87548   1.26514   0.44277
H    -4.56884   2.43469  -1.73852
H    -2.34606   2.40371  -2.86875
H    -0.43572   1.21040  -1.82940
