50
Generated by autodE on: 2022-06-25. E = -1411.733647 Ha. Imaginary frequency = -323.3 cm-1
C    -4.81547   1.04907   0.05994
O    -3.76385   0.21787  -0.44869
C    -2.51294   0.54622  -0.01876
C    -1.71086   1.43570  -0.66883
O    -1.96874   2.07852  -1.80521
C    -2.82228   1.49100  -2.79813
C    -0.39273   1.83177  -0.07192
O     0.16601   2.84260  -0.47862
C     0.20107   0.97100   0.97743
C     1.34246   1.57398   1.74327
C     1.48657  -0.33029  -0.57633
C     0.87014   0.08925  -1.80869
N     0.54375   0.58006  -2.81087
C     2.85913   0.12115  -0.36044
C     3.66196  -0.51515   0.61040
C     4.95020  -0.05300   0.85901
C     5.45103   1.05204   0.15918
C     4.65733   1.69197  -0.79874
C     3.37079   1.23067  -1.06534
O     1.18239  -1.47905   0.01942
C    -0.01531  -1.95846   0.42504
C     0.15744  -2.91949   1.46824
N     0.28729  -3.68374   2.33633
C    -1.09798  -2.19691  -0.56323
C    -2.31276  -2.96037  -0.11879
O    -0.96683  -1.78222  -1.70598
C    -0.61039  -0.01544   1.59650
C    -0.27931  -0.46162   2.98917
C    -2.05998  -0.09971   1.22421
O    -2.86254  -0.70084   1.93423
H    -4.86439   0.98950   1.15801
H    -4.66550   2.09684  -0.24732
H    -5.75152   0.67050  -0.37089
H    -2.57788   2.00621  -3.73569
H    -2.60819   0.41754  -2.89493
H    -3.88263   1.64460  -2.55673
H     2.00070   0.80885   2.17161
H     1.93704   2.24163   1.11067
H     0.94027   2.16774   2.58278
H     3.26771  -1.36979   1.16009
H     5.56866  -0.55403   1.60648
H     6.46139   1.41412   0.36150
H     5.04387   2.55536  -1.34379
H     2.75593   1.73903  -1.80805
H    -3.20814  -2.40218  -0.42697
H    -2.31509  -3.92755  -0.64750
H    -2.34572  -3.14100   0.96132
H    -0.43104   0.38992   3.67544
H    -0.93296  -1.27711   3.31508
H     0.76957  -0.77025   3.08183
