31
Generated by autodE on: 2022-06-17. E = -859.200535 Ha
C    -0.81685   0.45641   1.97309
C    -1.00913   0.58620   0.45973
C    -1.23853   2.04762   0.08413
C    -2.13961  -0.36591  -0.10583
C    -2.89157  -1.15383   0.94106
O    -3.78467  -0.67133   1.59941
N    -1.40176  -1.31538  -1.00507
O    -0.14370  -1.44515  -0.30024
C     0.20099  -0.07296  -0.28932
C     1.58652   0.19433   0.19411
C     2.19997  -0.68844   1.09202
C     3.47948  -0.40729   1.57605
C     4.14663   0.75189   1.16821
C     3.53324   1.63067   0.26994
C     2.25419   1.35523  -0.21819
O     0.06686   0.24712  -1.71123
C    -0.97316  -0.49501  -2.12825
O    -1.47824  -0.45307  -3.21155
H     0.01638   1.09312   2.30192
H    -0.60434  -0.57854   2.27785
H    -1.72492   0.78920   2.49426
H    -1.39454   2.18139  -0.99510
H    -0.37850   2.66050   0.39363
H    -2.12959   2.42172   0.60952
H    -2.87431   0.19454  -0.70009
H    -2.56964  -2.21368   1.06917
H     1.67852  -1.59252   1.40935
H     3.95704  -1.09847   2.27394
H     5.14725   0.96948   1.54875
H     4.05263   2.53495  -0.05470
H     1.77624   2.03742  -0.92268
