14
Generated by autodE on: 2022-06-17. E = -270.683225 Ha
C    -1.55700  -1.74887  -0.19169
C    -0.67833  -0.54890  -0.03015
C    -1.36136   0.72038   0.39219
C     0.66018  -0.63983  -0.26116
C     1.62140   0.44594  -0.14078
O     1.38165   1.60762   0.18084
H    -2.34714  -1.53811  -0.93381
H    -2.08186  -1.95957   0.75682
H    -1.00069  -2.64405  -0.50198
H    -1.20839   1.51631  -0.35393
H    -2.44043   0.56362   0.52895
H    -0.93403   1.10364   1.33232
H     1.07912  -1.60344  -0.56553
H     2.67311   0.14997  -0.37377
