31
Generated by autodE on: 2022-06-17. E = -859.150884 Ha. Imaginary frequency = -493.1 cm-1
C    -0.74068   0.37641   2.16916
C    -1.11373   0.71291   0.73531
C    -0.94902   2.18009   0.37844
C    -2.23261   0.06220   0.14754
C    -2.98885  -1.04232   0.75999
O    -4.15862  -1.26382   0.49107
N    -1.17656  -1.60365  -1.02324
O    -0.07353  -1.45698  -0.21660
C     0.32988  -0.16851  -0.35363
C     1.64935   0.20664   0.16511
C     2.23438  -0.54199   1.19999
C     3.47598  -0.16302   1.70707
C     4.13225   0.96169   1.19406
C     3.54858   1.70567   0.16380
C     2.30786   1.33292  -0.35368
O     0.00340   0.20525  -1.62789
C    -1.02345  -0.64971  -2.01632
O    -1.64606  -0.51060  -3.03854
H     0.19445   0.87978   2.44915
H    -0.61947  -0.70184   2.33666
H    -1.53009   0.73985   2.84636
H    -1.17433   2.37091  -0.67980
H     0.06983   2.52871   0.59945
H    -1.64179   2.77831   0.99215
H    -2.76051   0.55824  -0.67230
H    -2.44283  -1.66903   1.49728
H     1.72094  -1.41848   1.59648
H     3.93442  -0.74809   2.50692
H     5.10357   1.25689   1.59719
H     4.06231   2.57985  -0.24130
H     1.85135   1.90646  -1.16095
