22
Generated by autodE on: 2022-06-17. E = -404.702352 Ha
C     3.07143   0.48636   0.27508
C     1.60251   0.54810   0.04022
N     0.78632  -0.48400   0.08813
C     1.35151  -1.81691   0.37655
C    -0.61786  -0.43392  -0.10293
C    -1.33413  -1.75436  -0.22227
C    -1.30120   0.79913  -0.14460
C    -2.82503   0.77343  -0.25259
O    -0.75689   1.94738  -0.08733
H     3.49365   1.49256   0.15096
H     3.58490  -0.18727  -0.43296
H     3.32247   0.13838   1.29296
H     1.11220   1.49337  -0.18124
H     0.76849  -2.30053   1.16727
H     1.31588  -2.43953  -0.52628
H     2.38724  -1.72573   0.70728
H    -2.36171  -1.59599  -0.56598
H    -0.86297  -2.42697  -0.95803
H    -1.39994  -2.31785   0.72701
H    -3.18693   1.80626  -0.15553
H    -3.15905   0.38124  -1.22754
H    -3.29812   0.15700   0.52761
