22
Generated by autodE on: 2022-07-27. E = -404.707058 Ha
C    -1.83459  -0.16242   1.52011
C    -1.55185   0.90802   0.55324
N    -0.71397   0.79468  -0.45129
C    -0.73036   1.82885  -1.50055
C     0.21476  -0.25660  -0.59223
C     0.46554  -0.74827  -1.99392
C     1.01995  -0.60124   0.51498
C     2.07665  -1.68238   0.30372
O     0.96277  -0.04656   1.65317
H    -1.04751  -0.19625   2.29742
H    -2.81787  -0.00866   1.98562
H    -1.78499  -1.14493   1.01603
H    -2.09291   1.85516   0.61448
H    -1.11645   1.40205  -2.43560
H     0.28928   2.19872  -1.66893
H    -1.38419   2.65250  -1.19145
H     0.91414  -1.75001  -1.97516
H     1.14770  -0.10343  -2.58071
H    -0.47100  -0.83293  -2.56879
H     1.63878  -2.62881  -0.05176
H     2.83259  -1.37517  -0.43765
H     2.58212  -1.86379   1.26226
