36
Generated by autodE on: 2022-06-17. E = -675.376058 Ha. Imaginary frequency = -302.9 cm-1
C     2.77388  -1.25580   0.63469
C     1.96814   0.00707   0.81695
O     2.09484   0.67324   1.84963
C     1.16985   0.49709  -0.32710
C     1.78463   0.26760  -1.68015
C    -1.00336  -0.93629  -0.87312
C    -0.37989  -2.09237  -0.33144
O     0.40202  -2.84078  -0.95897
C    -2.00571  -0.13833  -0.26300
C    -2.85997  -0.72744   0.84694
C    -2.83690   0.72528  -1.19709
C    -0.82908   1.31201   0.74276
C    -0.65913   0.69276   2.09296
N     0.22355   1.46400  -0.14365
C     0.00405   2.42374  -1.23591
H     2.20507  -2.05756   0.14294
H     3.65245  -1.04025   0.00321
H     3.13421  -1.58431   1.61897
H     1.92000  -0.81583  -1.82270
H     2.77963   0.73823  -1.77105
H     1.15691   0.62544  -2.50216
H    -0.72090  -0.70180  -1.90359
H    -0.62110  -2.33743   0.72808
H    -2.29857  -1.33251   1.56771
H    -3.39502   0.06077   1.39703
H    -3.62392  -1.37990   0.39016
H    -3.28697   1.58074  -0.67094
H    -3.66833   0.12272  -1.60468
H    -2.25908   1.10312  -2.05011
H    -1.48406   2.18701   0.73454
H     0.09928   1.24313   2.66934
H    -1.61285   0.73804   2.63093
H    -0.32603  -0.35274   2.04300
H    -0.41487   1.93713  -2.12648
H     0.95845   2.89389  -1.50402
H    -0.69368   3.19533  -0.89463
