42
Generated by autodE on: 2022-05-30. E = -1107.654288 Ha
C    -4.73808  -1.72044   0.99523
N    -3.29401  -1.79306   0.91813
C    -2.56643  -0.93471   0.19095
O    -3.03651   0.02331  -0.43620
C    -1.08772  -1.20103   0.16144
N    -0.57884  -2.31054   0.53419
C     0.86413  -2.28731   0.33131
C     1.23749  -0.95234  -0.34846
C     2.26888  -0.18990   0.46297
O     2.40381  -0.30906   1.66551
O     2.98788   0.66142  -0.26518
C     3.88577   1.52670   0.44497
C     1.57014  -1.01206  -1.88797
C     0.58504  -1.97316  -2.53809
C    -0.57865  -1.31142  -2.58111
C    -0.29065   0.04549  -1.96145
O     1.07438   0.25796  -2.33510
C    -0.14602  -0.15554  -0.39499
C    -0.16940   1.14723   0.38816
C    -0.58674   1.15655   1.72842
C    -0.56218   2.33434   2.47906
C    -0.10672   3.52414   1.90456
C     0.32279   3.52341   0.57412
C     0.29280   2.34605  -0.17736
H    -5.05664  -0.67138   1.06898
H    -5.08124  -2.26231   1.88550
H    -5.21959  -2.16224   0.10624
H    -2.80230  -2.58148   1.32881
H     1.16053  -3.15948  -0.27022
H     1.35872  -2.39254   1.30668
H     3.32437   2.15034   1.15565
H     4.64146   0.93944   0.98548
H     4.36348   2.15416  -0.31599
H     2.63251  -1.13226  -2.12061
H     0.79635  -3.00545  -2.81482
H    -1.56124  -1.66491  -2.89209
H    -0.92840   0.88662  -2.24561
H    -0.92876   0.23381   2.20147
H    -0.89617   2.31860   3.51917
H    -0.08332   4.44561   2.49095
H     0.68785   4.44529   0.11514
H     0.65526   2.35789  -1.20457
