17
Generated by autodE on: 2022-06-14. E = -530.472857 Ha
C    -3.09959   1.19207  -1.07800
C    -2.77816   0.03758  -0.17648
O    -3.58797  -0.70207   0.35723
C    -1.35965  -0.17519   0.03321
N    -0.21791  -0.34293   0.22930
C     1.10467  -0.30963   0.28586
C     1.79987  -1.28172   1.04183
N     2.40158  -2.06981   1.65646
C     1.75844   0.77669  -0.47089
C     3.25991   0.82417  -0.41681
O     1.07952   1.58213  -1.09962
H    -3.86751   1.81463  -0.59372
H    -3.52445   0.78911  -2.01251
H    -2.21042   1.79300  -1.31381
H     3.59961   0.93188   0.62591
H     3.62210   1.66914  -1.01553
H     3.68485  -0.11693  -0.80147
