60
Generated by autodE on: 2022-06-14. E = -1956.276253 Ha. Imaginary frequency = -318.4 cm-1
C    -0.34641   1.68365   0.08082
N    -0.81353   1.21526  -1.20857
C    -0.80427  -0.07407  -1.59316
O    -0.38964  -0.99164  -0.88755
C    -1.41048  -0.32086  -3.01480
C    -1.33521  -1.79520  -3.41248
C    -0.79925  -2.20279  -4.63928
C    -0.79623  -3.55142  -5.00992
C    -1.33773  -4.51510  -4.15814
C    -1.89214  -4.11616  -2.93662
C    -1.89592  -2.76977  -2.57004
C    -2.92319   0.11929  -2.91575
C    -3.82346  -0.30240  -4.07504
C    -3.34665   0.07431  -5.47911
C    -3.07521   1.57447  -5.69749
C    -1.59184   2.00245  -5.94108
C    -1.56350   3.55785  -5.88190
F    -0.51201   4.08272  -6.53782
F    -1.49428   3.97218  -4.61041
F    -2.65564   4.10730  -6.42576
C    -1.14854   1.54002  -7.35312
F     0.15593   1.75355  -7.57992
F    -1.83394   2.19044  -8.30669
F    -1.35407   0.22957  -7.53388
C    -0.68289   1.41783  -4.89961
C    -0.73891   0.56776  -3.98628
C     1.83644   0.52676  -3.39261
C     2.16733   0.48490  -2.00727
N     2.48191   0.43778  -0.88799
C     2.03400  -0.68592  -4.25213
C     2.22452  -1.98672  -3.52858
O     2.06103  -0.57068  -5.46780
N     1.88284   1.69802  -4.01406
C     1.30371   2.30703  -4.88948
C     1.94001   3.40853  -5.71300
C     2.59882   3.01674  -6.99821
O     1.93937   4.52018  -5.23559
H    -0.01293   0.82505   0.67343
H     0.49679   2.38071  -0.03579
H    -1.15614   2.19918   0.62096
H    -1.13611   1.91192  -1.87281
H    -0.37713  -1.46649  -5.32205
H    -0.36596  -3.84319  -5.97078
H    -1.33527  -5.56955  -4.44400
H    -2.32937  -4.85855  -2.26462
H    -2.34074  -2.47539  -1.62001
H    -2.95390   1.21117  -2.79318
H    -3.32357  -0.30955  -1.98419
H    -4.81339   0.14882  -3.89005
H    -3.97289  -1.39284  -4.04562
H    -4.11901  -0.24227  -6.19615
H    -2.46438  -0.52286  -5.72741
H    -3.42435   2.15012  -4.82850
H    -3.65339   1.93969  -6.55561
H     1.51465  -2.09010  -2.69654
H     2.11863  -2.82183  -4.23033
H     3.24215  -1.99486  -3.10089
H     3.58559   3.50255  -7.03281
H     2.00056   3.40666  -7.83647
H     2.69729   1.92895  -7.09559
