50
Generated by autodE on: 2022-06-23. E = -1315.946464 Ha
C     4.19662  -1.66821   1.39383
N     3.26305  -0.71399   0.83256
C     2.56200  -0.98357  -0.26947
O     2.76507  -1.94531  -1.01221
C     1.50042   0.10148  -0.64207
C     1.84670   0.52165  -2.01475
N     2.18625   0.86254  -3.07023
N     1.49764   1.22531   0.29129
C     0.13592   1.65849   0.63400
C     0.01428   3.18663   0.60809
C    -0.24992   1.27917   2.08426
C     0.84571   1.02226   3.07193
O    -1.42575   1.26399   2.40401
C    -0.75588   0.96304  -0.45200
O    -0.64373   1.77950  -1.58539
C    -1.40769   1.52525  -2.76514
C    -2.22712   0.76787  -0.06069
O    -3.02096   1.66355  -0.29976
C    -2.67674  -0.51649   0.54552
C    -4.12308  -0.54106   0.91811
C    -1.79166  -1.51936   0.80646
C    -2.11253  -2.79155   1.52736
C    -0.35303  -1.33422   0.50288
O     0.50737  -1.95618   1.10208
C    -0.00898  -0.38423  -0.65571
O    -0.43850  -0.93638  -1.86582
C    -0.18870  -2.31966  -2.13073
H     3.66872  -2.51847   1.85829
H     4.80738  -1.17024   2.15708
H     4.85615  -2.06205   0.60791
H     2.93123   0.07270   1.38566
H     2.07310   1.99649  -0.03796
H    -1.03346   3.48328   0.74757
H     0.37669   3.57245  -0.35219
H     0.61626   3.62362   1.41897
H     1.22883   0.00269   2.90636
H     1.68789   1.71414   2.93552
H     0.44128   1.08985   4.08989
H    -0.73511   1.19164  -3.56937
H    -1.88781   2.47035  -3.06172
H    -2.18276   0.76430  -2.61840
H    -4.29648   0.16496   1.74843
H    -4.46642  -1.53343   1.22811
H    -4.73791  -0.18918   0.07628
H    -1.74086  -2.73221   2.56459
H    -1.59771  -3.64185   1.05542
H    -3.18795  -2.99654   1.55996
H    -0.52651  -2.48992  -3.16112
H    -0.77096  -2.97031  -1.45723
H     0.87981  -2.55373  -2.04247
