24
Generated by autodE on: 2022-06-23. E = -626.472865 Ha
C     4.32625  -0.17086   0.02709
N     3.03979   0.49654  -0.01075
C     1.88773  -0.19789   0.01394
O     1.85108  -1.44021   0.06682
C     0.62189   0.56777  -0.02393
C     0.59726   1.97331  -0.08439
N     0.68059   3.13884  -0.13464
N    -0.47686  -0.21770   0.00504
C    -1.78011  -0.01799  -0.00580
C    -2.37362   1.34483  -0.06111
C    -2.54825  -1.28226   0.04551
C    -4.04731  -1.21198   0.04103
O    -1.94695  -2.35855   0.09182
H     5.11756   0.58619  -0.02917
H     4.45322  -0.74680   0.95779
H     4.44034  -0.86605  -0.81960
H     3.01412   1.51010  -0.05077
H    -0.21376  -1.22255   0.04722
H    -3.46769   1.30082  -0.05921
H    -2.05250   1.94888   0.80365
H    -2.05256   1.87770  -0.97143
H    -4.40728  -0.63717   0.90969
H    -4.46029  -2.22783   0.07347
H    -4.40699  -0.69230  -0.86162
