67
Generated by autodE on: 2022-06-14. E = -1660.825843 Ha
C     9.22843   7.00165  -0.63711
N     8.34203   5.98769  -1.16873
C     8.78623   4.98747  -1.93405
O     9.94602   4.91205  -2.35725
C     7.75708   3.84954  -2.20586
C     7.80712   3.38542  -3.66965
C     8.20728   4.24834  -4.70009
C     8.13506   3.84528  -6.03613
C     7.65698   2.57382  -6.36519
C     7.24137   1.71183  -5.34657
C     7.31258   2.11760  -4.01182
C     8.05615   2.69216  -1.23548
C     6.94833   2.36408  -0.55519
C     6.69574   1.18301   0.39229
C     7.69461   1.13999   1.47797
N     8.45394   1.10578   2.35223
C     5.39902   1.29959   1.10136
N     4.38988   1.25789   1.66907
C     6.58996  -0.19067  -0.39435
C     7.86834  -0.97054  -0.67688
C     8.94286  -0.34162  -1.56474
C     9.80617   0.71884  -0.86831
C     9.47918   2.19461  -1.19788
C    10.28770   3.07961  -0.25299
O     9.82713   3.73125   0.66415
O    11.58934   3.02189  -0.52824
C    12.45706   3.83637   0.27512
C     5.78960   3.30727  -0.90854
C     4.73826   2.51992  -1.61446
N     3.95793   1.92179  -2.23041
C     5.20557   4.04207   0.30663
C     6.09037   4.48962   1.29851
C     5.60817   5.20765   2.39337
C     4.24197   5.49084   2.50192
C     3.36169   5.05296   1.50916
C     3.84169   4.32753   0.41461
N     6.41765   4.27147  -1.80271
C     5.58059   5.01132  -2.72481
H     8.63076   7.82442  -0.22541
H     9.87977   7.39390  -1.43086
H     9.86864   6.59034   0.16166
H     7.39447   5.88425  -0.81192
H     8.57827   5.24664  -4.46722
H     8.45351   4.53227  -6.82374
H     7.60423   2.25854  -7.40986
H     6.85755   0.71799  -5.58833
H     6.97179   1.43816  -3.23081
H     6.05544   0.04643  -1.32505
H     5.93269  -0.83926   0.20060
H     7.52489  -1.90283  -1.15395
H     8.32602  -1.27541   0.27983
H     9.60881  -1.15789  -1.88363
H     8.49812   0.06220  -2.48759
H     9.79412   0.55549   0.21710
H    10.85476   0.59088  -1.16952
H     9.88758   2.38290  -2.19995
H    13.47598   3.61739  -0.06388
H    12.22346   4.89928   0.11516
H    12.34655   3.58874   1.34007
H     7.15672   4.27121   1.21571
H     6.30210   5.54492   3.16656
H     3.86497   6.05112   3.36056
H     2.29422   5.27149   1.58620
H     3.14511   3.97468  -0.34836
H     5.18215   4.39329  -3.55077
H     6.15927   5.83698  -3.16058
H     4.73286   5.44698  -2.17499
