39
Generated by autodE on: 2022-07-27. E = -936.038994 Ha
C    -0.12696   3.31150   0.93745
N    -0.39339   2.20791   0.03414
C     0.55488   1.28363  -0.22191
O     1.73836   1.45377   0.09808
C     0.14115   0.05854  -0.97925
C     1.10961  -0.49182  -1.92944
C     1.87071   0.36959  -2.74873
C     2.81270  -0.14371  -3.63763
C     3.02154  -1.52531  -3.72667
C     2.28354  -2.38965  -2.91145
C     1.34069  -1.88092  -2.01874
N    -1.02603  -0.55889  -0.71838
C    -1.66728  -1.39567  -1.75653
C    -1.69213  -0.45840   0.48525
C    -3.08381  -0.67461   0.49629
N    -4.23944  -0.85691   0.56664
C    -1.03134  -0.13941   1.76098
C     0.27183  -0.59441   2.05784
C     0.85250  -0.32235   3.29396
C     0.15627   0.41011   4.26446
C    -1.13646   0.86040   3.98404
C    -1.72360   0.59188   2.74616
H     0.64793   3.97853   0.53028
H     0.21606   2.94782   1.91996
H    -1.05025   3.88682   1.07495
H    -1.36268   1.98049  -0.16206
H     1.70929   1.44762  -2.69347
H     3.38621   0.53826  -4.26967
H     3.76157  -1.92524  -4.42358
H     2.45189  -3.46794  -2.96111
H     0.79382  -2.56430  -1.36739
H    -1.63779  -2.45269  -1.46508
H    -1.16840  -1.24275  -2.71598
H    -2.71341  -1.07596  -1.84601
H     0.83553  -1.16307   1.31620
H     1.86048  -0.68804   3.50382
H     0.62021   0.62613   5.22940
H    -1.69193   1.43434   4.72960
H    -2.72899   0.96087   2.53243
