28
Generated by autodE on: 2022-06-14. E = -724.674405 Ha
C    -3.48780   0.66025  -3.39618
O    -2.76809   1.26254  -2.30825
C    -2.04619   0.44649  -1.53986
O    -1.99378  -0.75601  -1.69218
C    -1.26438   1.23611  -0.49957
C    -0.77995   0.38444   0.57391
C    -0.03846  -0.28647   1.25540
C     1.26876  -0.85787   1.60803
C     1.16954  -2.25089   2.08953
N     1.09734  -3.35532   2.43193
C     1.90756  -0.04104   2.66370
N     2.42512   0.62272   3.45992
C     2.15051  -0.81934   0.29705
C     2.20643   0.54615  -0.41104
C     1.14415   0.87035  -1.49834
C     0.01497   1.86175  -1.15266
H    -4.21527  -0.07068  -3.01530
H    -2.79150   0.16075  -4.08499
H    -4.00485   1.48070  -3.90652
H    -1.91102   2.04908  -0.13844
H     1.73642  -1.58849  -0.37109
H     3.16011  -1.14018   0.59275
H     3.18926   0.56608  -0.90525
H     2.24401   1.35553   0.33804
H     0.71430  -0.06606  -1.89206
H     1.68684   1.31985  -2.34362
H     0.39142   2.63356  -0.46404
H    -0.31539   2.38048  -2.06499
