38
Generated by autodE on: 2022-06-18. E = -992.329724 Ha
C     3.86957   1.40211   1.48790
O     3.13123   0.98143   0.33168
C     1.80855   0.91384   0.46058
O     1.20304   1.29778   1.44396
C     1.12826   0.42383  -0.81458
O     0.17949   1.40436  -1.22759
C    -1.08868   1.12415  -0.63321
C    -1.51483   2.21784   0.34335
C    -0.92832   3.58399   0.14872
O    -2.33529   1.96972   1.21115
C    -1.00061  -0.28293   0.01125
N    -2.19159  -1.09321  -0.12322
C    -2.92147  -1.39555   1.09898
C    -2.28130  -1.97470  -1.18222
C    -1.32627  -2.14867  -2.12124
C    -0.02258  -1.40930  -2.07014
C     0.29082  -0.85907  -0.65574
C     0.94935  -1.89739   0.24411
N     0.34327  -3.09403   0.30440
O     1.96482  -1.63400   0.89987
H     3.55676   2.40797   1.80244
H     3.71066   0.69275   2.31345
H     4.92414   1.40721   1.18975
H     1.88273   0.32088  -1.60432
H    -1.84834   1.12136  -1.43510
H    -0.98694   3.88413  -0.90899
H    -1.44872   4.30979   0.78716
H     0.14014   3.55379   0.41393
H    -0.80331  -0.15827   1.08201
H    -2.35809  -2.07266   1.76801
H    -3.87475  -1.87994   0.84360
H    -3.14099  -0.46719   1.64280
H    -3.21223  -2.54752  -1.21377
H    -1.51375  -2.83770  -2.94643
H     0.80952  -2.05596  -2.39267
H    -0.02948  -0.55768  -2.77208
H    -0.45151  -3.31109  -0.29336
H     0.75630  -3.82556   0.87538
