20
Generated by autodE on: 2022-06-18. E = -457.715314 Ha
C    -3.04250  -0.62469  -0.67714
N    -1.80004   0.04447  -0.32840
C    -1.82463   1.39547   0.03981
C    -0.72328   2.06369   0.41714
C     0.64410   1.42917   0.48307
C     0.56954  -0.03640   0.08637
C     1.76852  -0.88970   0.08091
N     2.93011  -0.28996   0.44511
O     1.75288  -2.09725  -0.23433
C    -0.60904  -0.61500  -0.28037
H    -2.82461  -1.65238  -0.99337
H    -3.73289  -0.66025   0.18206
H    -3.54841  -0.10329  -1.50515
H    -2.80878   1.86554  -0.00470
H    -0.82192   3.11755   0.68735
H     1.06599   1.54243   1.50277
H     1.35119   1.98123  -0.16999
H     2.98505   0.68379   0.71518
H     3.77827  -0.84571   0.45999
H    -0.63449  -1.66897  -0.56114
