18
Generated by autodE on: 2022-06-18. E = -534.526637 Ha
C     3.87356   0.76677   0.91433
O     2.56189   1.32729   0.78873
C     1.58255   0.48276   0.41426
O     1.76377  -0.70852   0.18316
C     0.31524   1.16694   0.32555
O    -0.78493   0.55659  -0.02410
C    -1.06201  -0.67456  -0.35663
C    -2.44005  -0.96803  -0.68822
C    -3.45039   0.15011  -0.62872
O    -2.74506  -2.12234  -1.00770
H     3.88555  -0.02758   1.67566
H     4.52750   1.59166   1.22038
H     4.21281   0.35218  -0.04673
H     0.18862   2.22624   0.54012
H    -0.27185  -1.42344  -0.37425
H    -4.43417  -0.23755  -0.92284
H    -3.50559   0.56653   0.38986
H    -3.15870   0.97353  -1.29976
