38
Generated by autodE on: 2022-06-18. E = -992.224746 Ha. Imaginary frequency = -353.1 cm-1
C     3.79885   0.85549   1.17071
O     3.01626   0.78567  -0.02759
C     1.71551   1.11571   0.08036
O     1.21334   1.52663   1.11821
C     1.03212   0.83372  -1.16748
O    -0.22291   1.12844  -1.42695
C    -1.23134   1.21541  -0.55576
C    -1.27879   2.18790   0.56393
C    -0.58105   3.51538   0.38691
O    -2.03830   1.99169   1.50771
C    -1.11040  -0.94679   0.34853
N    -2.38358  -1.34769  -0.00934
C    -3.53007  -0.79005   0.68531
C    -2.56779  -1.87037  -1.29034
C    -1.54623  -2.18898  -2.10140
C    -0.10379  -2.05301  -1.69430
C     0.03514  -1.41211  -0.31910
C     1.24054  -1.64921   0.49522
N     2.29213  -2.24046  -0.13347
O     1.29889  -1.37329   1.70882
H     3.83255   1.88726   1.55106
H     3.37839   0.19315   1.93944
H     4.80604   0.52418   0.89236
H     1.60532   0.55143  -2.04926
H    -2.18722   1.08907  -1.07331
H     0.16728   3.51907  -0.41482
H    -1.36349   4.25303   0.13839
H    -0.11413   3.81738   1.33477
H    -1.00612  -0.61270   1.38094
H    -3.30242  -0.69308   1.75490
H    -4.38969  -1.46409   0.56768
H    -3.80913   0.20829   0.30292
H    -3.60974  -2.01429  -1.58210
H    -1.76776  -2.61968  -3.08032
H     0.36726  -3.05483  -1.68245
H     0.45787  -1.49338  -2.46565
H     2.35715  -2.23794  -1.14490
H     3.16706  -2.27960   0.38009
