46
Generated by autodE on: 2022-06-02. E = -1349.910561 Ha
C    -0.30459   4.91196   0.12357
O    -0.41818   3.62835  -0.52227
C    -0.03541   2.58970   0.18826
O     0.36577   2.62551   1.32475
N    -0.14972   1.38511  -0.56766
N    -0.25692   1.52469  -1.89126
C    -0.27558   0.29588  -2.37005
C    -0.32731   0.17232  -3.79368
N    -0.35285   0.13647  -4.95496
C    -0.19391  -0.71425  -1.34207
C    -0.11239   0.03200  -0.16321
C     0.02464  -0.32165   1.31793
C    -0.82013   0.65799   2.19015
C    -0.37122   1.02878   3.57706
O    -1.92206   0.95773   1.76830
C     1.53185  -0.40323   1.64851
F     2.12837  -1.33887   0.87779
F     2.20339   0.73531   1.43642
F     1.74889  -0.76347   2.92497
C    -0.61249  -1.68293   1.79496
C    -1.82292  -2.18407   1.00175
C    -1.44737  -3.41649   0.17871
C    -0.15872  -3.25158  -0.62344
C    -0.14667  -2.19712  -1.74827
C    -1.34010  -2.50233  -2.68308
C     1.18547  -2.39842  -2.51111
H     0.74384   5.11014   0.38561
H    -0.92864   4.93403   1.02743
H    -0.66285   5.64134  -0.61063
H     0.64916   1.42837   3.58586
H    -0.39217   0.14182   4.22875
H    -1.07136   1.77546   3.97263
H    -0.88736  -1.54820   2.84844
H     0.16591  -2.45403   1.81383
H    -2.22528  -1.38756   0.35934
H    -2.63305  -2.44357   1.69930
H    -2.28192  -3.70075  -0.48018
H    -1.30047  -4.26480   0.86916
H     0.69307  -3.07472   0.04636
H     0.05743  -4.21130  -1.11830
H    -1.37007  -3.58278  -2.89032
H    -2.29601  -2.21522  -2.22191
H    -1.26471  -1.99177  -3.65027
H     1.24078  -3.42902  -2.89375
H     1.29045  -1.71875  -3.36831
H     2.03995  -2.23257  -1.83744
