34
Generated by autodE on: 2022-06-02. E = -880.730071 Ha
C     2.60127   1.50467   0.60657
C     2.39972   0.21656  -0.13111
O     3.31212  -0.41034  -0.63100
C     0.93572  -0.27834  -0.28448
C     0.90899  -1.81799  -0.24901
F     1.51352  -2.37848  -1.30446
F    -0.35119  -2.29229  -0.22955
F     1.51629  -2.28271   0.85920
C     0.02361   0.24746   0.72929
C    -0.97207   0.77955   1.17068
C    -2.25142   1.49482   1.23166
C    -2.00107   2.98230   1.54355
C    -3.20496   0.89507   2.27614
C    -2.85306   1.32295  -0.20124
C    -1.89758   1.52959  -1.39546
C    -1.09264   0.29983  -1.90502
C     0.43132   0.27388  -1.66814
H     1.87813   2.26578   0.27812
H     3.63066   1.85759   0.46530
H     2.41222   1.32878   1.67861
H    -2.95974   3.52409   1.55914
H    -1.35152   3.44723   0.78703
H    -1.52026   3.10070   2.52654
H    -2.80632   1.02531   3.29406
H    -4.18254   1.39933   2.22228
H    -3.36055  -0.18002   2.09903
H    -3.69164   2.03519  -0.27717
H    -3.29304   0.31413  -0.26982
H    -1.20941   2.36594  -1.18710
H    -2.52285   1.87374  -2.23406
H    -1.54813  -0.62998  -1.53229
H    -1.20811   0.26334  -2.99956
H     0.82340   1.29827  -1.76425
H     0.92762  -0.32306  -2.44695
