46
Generated by autodE on: 2022-06-02. E = -1349.760483 Ha. Imaginary frequency = -291.4 cm-1
C    -1.39148   4.44934  -0.00454
O    -0.65787   3.41171  -0.67548
C     0.32948   2.84479   0.01530
O     0.68763   3.17162   1.12465
N     0.93855   1.77779  -0.66896
N     0.58441   1.54971  -1.84160
C     0.24278   0.72263  -2.64952
C     0.14657   0.54238  -4.01777
N     0.02643   0.34580  -5.16153
C    -0.06019  -1.10114  -1.09448
C     0.15325  -0.57242  -0.00235
C     0.06753  -0.52700   1.46443
C    -0.82749   0.65306   1.94153
C    -0.69604   1.16149   3.34546
O    -1.66051   1.09273   1.17214
C     1.48129  -0.51311   2.07315
F     2.24991  -1.46291   1.51177
F     2.10879   0.65889   1.89403
F     1.46906  -0.75676   3.39573
C    -0.65781  -1.85095   1.92747
C    -1.91572  -2.20027   1.11038
C    -1.78116  -3.40108   0.15612
C    -0.61101  -3.45365  -0.83537
C    -0.45869  -2.30651  -1.87922
C    -1.77929  -2.06695  -2.62838
C     0.65492  -2.70885  -2.86185
H    -0.71722   5.26215   0.29956
H    -1.90066   4.03469   0.87689
H    -2.12495   4.81409  -0.73241
H     0.26374   1.68964   3.45286
H    -0.70184   0.33804   4.07340
H    -1.51735   1.85924   3.55066
H    -0.90274  -1.73984   2.99261
H     0.08119  -2.66274   1.85939
H    -2.26119  -1.31455   0.55854
H    -2.72723  -2.43823   1.81541
H    -2.73066  -3.49808  -0.39545
H    -1.70222  -4.31498   0.77020
H     0.34212  -3.52859  -0.28720
H    -0.70928  -4.39137  -1.40794
H    -2.12488  -3.01318  -3.07353
H    -2.56470  -1.69532  -1.95491
H    -1.65606  -1.33885  -3.44215
H     0.36019  -3.62315  -3.39965
H     0.84841  -1.92641  -3.60782
H     1.59427  -2.91215  -2.32534
