22
Generated by autodE on: 2022-10-06. E = -571.061725 Ha
C    -2.37877   0.27896   1.63550
C    -0.99663  -0.04471   1.12294
O    -0.13073  -0.41856   1.92953
C    -0.66592   0.04297  -0.28465
N     0.62411  -0.21740  -0.69910
C     1.82901  -0.25382  -0.18356
C     2.98500  -0.66712  -1.04205
C     2.16185   0.18829   1.13122
N     2.66737   0.60109   2.09693
C    -1.53982   0.15101  -1.45434
C    -3.01695   0.40839  -1.33845
O    -1.03524   0.01921  -2.58456
H    -3.11464  -0.46430   1.29489
H    -2.34167   0.25948   2.73239
H    -2.71836   1.26763   1.29687
H     0.58946  -0.38072  -1.72482
H     3.46455  -1.56486  -0.61880
H     3.74519   0.12948  -1.07318
H     2.64782  -0.89220  -2.06307
H    -3.52215  -0.41293  -0.80937
H    -3.22117   1.33543  -0.78458
H    -3.43024   0.49084  -2.35155
