22
Generated by autodE on: 2022-10-13. E = -571.060178 Ha
C    -0.45736   2.18636  -0.57326
C    -0.65321   1.21566   0.57370
O    -1.04510   1.64955   1.66137
C    -0.53185  -0.22005   0.33493
N     0.23330  -0.77386  -0.65617
C     1.33437  -0.41837  -1.28568
C     1.86841  -1.23555  -2.41708
C     2.07940   0.71311  -0.85596
N     2.76813   1.58474  -0.50508
C    -1.38669  -1.23438   0.95735
C    -2.32367  -0.87041   2.07403
O    -1.33875  -2.39978   0.53065
H     0.39741   2.84913  -0.37055
H    -1.36078   2.81497  -0.60455
H    -0.31717   1.71440  -1.55468
H    -0.10933  -1.73067  -0.86200
H     1.30292  -2.17316  -2.51464
H     1.78011  -0.67337  -3.36183
H     2.93483  -1.45994  -2.26196
H    -2.96422  -0.01974   1.79894
H    -1.75283  -0.55900   2.96153
H    -2.93870  -1.74726   2.31568
