13
Generated by autodE on: 2022-10-06. E = -245.298498 Ha
C     1.97286  -0.11892   0.07293
N     0.64525  -0.69371  -0.05820
C    -0.48244   0.01992  -0.01970
N    -1.66300  -0.59595  -0.13353
N    -0.43735   1.34433   0.13903
H     2.09474   0.39554   1.03934
H     2.18720   0.59381  -0.73956
H     2.70506  -0.93243   0.02062
H     0.55802  -1.69597  -0.19294
H    -2.52517  -0.06204  -0.13360
H    -1.70899  -1.60026  -0.26582
H    -1.29553   1.88429   0.16587
H     0.44532   1.83702   0.20421
