35
Generated by autodE on: 2022-10-06. E = -816.297424 Ha. Imaginary frequency = -492.0 cm-1
C     3.64009  -0.34512   0.98537
N     2.28282  -0.08979   1.44692
C     1.23017  -0.82365   0.90478
N     1.38136  -2.20527   0.84748
N    -0.04635  -0.42095   1.35499
C    -1.19726   0.01858  -0.19210
C    -1.32370   1.53437   0.03154
C    -1.83940   2.28604  -1.15520
O    -1.09666   2.03762   1.11220
C    -2.46811  -0.81162   0.04596
C    -3.47030  -0.27290   1.00837
O    -2.56123  -1.87523  -0.53259
N    -0.42781  -0.46706  -1.17314
C     0.96811  -0.24640  -1.13215
C     1.76468  -1.13284  -2.05674
C     1.38570   1.11842  -1.05457
N     1.78910   2.19801  -0.87429
H     3.78796  -0.15260  -0.09073
H     4.32021   0.30982   1.54534
H     3.93235  -1.38278   1.19993
H     2.07097   0.90742   1.46366
H     2.25101  -2.49885   0.40628
H     0.59624  -2.67386   0.39510
H    -0.55265  -1.15289   1.85899
H    -0.07229   0.46605   1.87010
H    -1.96296   3.34525  -0.89774
H    -2.80231   1.85173  -1.47138
H    -1.14729   2.17561  -2.00425
H    -3.90275   0.65720   0.60250
H    -2.97726  -0.00658   1.95722
H    -4.26354  -1.01046   1.17866
H    -0.69651  -1.41955  -1.44640
H     2.83810  -0.93118  -1.95393
H     1.47915  -0.97070  -3.10898
H     1.58334  -2.19006  -1.80858
