48
Generated by autodE on: 2022-06-06. E = -1955.949589 Ha
C    -1.64204  -4.57103   1.29607
N    -1.63739  -3.15172   1.59865
C    -0.71880  -2.32720   1.09469
O     0.26503  -2.69498   0.44252
C    -0.82862  -0.82472   1.42900
Cl   -2.61009  -0.30114   1.54510
C    -0.22995  -0.58667   2.82841
C     1.22897  -1.01047   3.04627
C     2.29766  -0.44497   2.10686
C     2.40777   1.07753   2.00264
C     1.24529   1.81926   1.35070
F     1.72713   2.99586   0.81130
F     0.33282   2.24898   2.28881
C     0.54088   1.05714   0.25864
C    -0.25953  -0.02258   0.29103
C    -0.65086  -0.25027  -1.21712
C    -1.24121  -1.57813  -1.63364
O    -2.33551  -1.95136  -1.27412
O    -0.42497  -2.25419  -2.42618
C    -0.84432  -3.57637  -2.80840
N     0.54506   0.19765  -1.94731
C     0.61598   1.46299  -1.23339
C     1.73036   2.38041  -1.70199
O     1.55945   3.46367  -2.20320
O     2.89588   1.78392  -1.50034
C     4.07929   2.53163  -1.83685
O    -0.68047   2.03636  -1.55730
C    -1.53928   0.97972  -1.55321
O    -2.71107   1.06250  -1.77670
H    -2.10704  -4.76565   0.31517
H    -2.20938  -5.10409   2.06949
H    -0.61278  -4.95125   1.27734
H    -2.46595  -2.74064   2.01868
H    -0.85610  -1.15900   3.52695
H    -0.37406   0.46703   3.08016
H     1.29695  -2.10934   3.01107
H     1.47420  -0.72272   4.08214
H     2.17417  -0.86964   1.09967
H     3.27442  -0.80743   2.46311
H     3.28379   1.31636   1.38201
H     2.56279   1.54218   2.98976
H    -1.82450  -3.54041  -3.30283
H    -0.89738  -4.21729  -1.91653
H    -0.07820  -3.94506  -3.49908
H     1.34207  -0.39335  -1.69678
H     4.07331   2.79038  -2.90449
H     4.12370   3.44657  -1.22962
H     4.92436   1.87500  -1.60431
