21
Generated by autodE on: 2022-06-06. E = -777.427686 Ha
C    -4.66932   0.77336   0.41811
O    -3.40730   0.10822   0.21894
C    -2.32479   0.86516   0.28604
O    -2.28836   2.06032   0.49470
C    -1.09372   0.07986   0.07390
N     0.11635   0.58869   0.09755
C     1.05146  -0.39837  -0.13058
C     2.48134  -0.18736  -0.17456
O     3.30208  -1.06727  -0.37828
O     2.79890   1.10258   0.03621
C     4.19351   1.43425   0.01169
C     0.34362  -1.61801  -0.30984
O     0.61940  -2.77333  -0.53284
O    -1.04950  -1.22158  -0.16129
H    -5.43409  -0.00479   0.32292
H    -4.81066   1.54982  -0.34667
H    -4.70180   1.22664   1.41878
H     0.32049   1.57729   0.26173
H     4.73592   0.88180   0.79277
H     4.25061   2.51205   0.20273
H     4.62937   1.19954  -0.97036
