48
Generated by autodE on: 2022-06-06. E = -1955.890287 Ha. Imaginary frequency = -329.4 cm-1
C    -1.70719  -4.54096   1.10268
N    -1.73453  -3.15136   1.51778
C    -0.79517  -2.27573   1.14976
O     0.22927  -2.57041   0.52857
C    -0.96687  -0.81845   1.63595
Cl   -2.75468  -0.33995   1.63835
C    -0.47845  -0.67166   3.09886
C     0.95267  -1.13061   3.40520
C     2.12375  -0.44697   2.68060
C     2.06856   1.09214   2.64254
C     1.76323   1.65032   1.26334
F     2.88345   1.50595   0.46463
F     1.55321   3.00266   1.34230
C     0.61537   0.99386   0.58825
C    -0.25908   0.11824   0.75532
C    -0.87839  -0.14613  -1.60003
C    -1.32161  -1.52560  -1.83217
O    -2.41096  -1.94934  -1.49983
O    -0.37290  -2.23907  -2.43887
C    -0.63881  -3.63418  -2.65420
N     0.34629   0.32544  -1.95761
C     0.44177   1.58310  -1.47262
C     1.55168   2.51750  -1.80728
O     1.49763   3.70693  -1.59649
O     2.57742   1.85561  -2.32214
C     3.78434   2.60686  -2.54314
O    -0.81759   2.09819  -1.37806
C    -1.72357   1.02117  -1.38525
O    -2.90922   1.19153  -1.26670
H    -2.15448  -4.66642   0.10307
H    -2.27371  -5.14569   1.82257
H    -0.67008  -4.89794   1.07087
H    -2.58867  -2.78564   1.92784
H    -1.16806  -1.25617   3.72542
H    -0.61557   0.38445   3.37220
H     1.03299  -2.21784   3.24598
H     1.07706  -0.97489   4.48989
H     2.20719  -0.84023   1.65632
H     3.04745  -0.75742   3.19087
H     3.02921   1.53928   2.93909
H     1.30423   1.48727   3.32755
H    -1.58845  -3.76713  -3.19031
H    -0.67610  -4.16001  -1.69028
H     0.19611  -4.00773  -3.25740
H     1.16155  -0.26956  -2.10716
H     3.60228   3.41825  -3.26122
H     4.14046   3.02308  -1.59027
H     4.51070   1.89329  -2.94660
