56
Generated by autodE on: 2022-06-23. E = -1079.782353 Ha
C     3.42895   1.22600   2.89089
N     2.62134   0.97094   1.72123
C     2.96594   0.12094   0.74257
O     4.06838  -0.44361   0.68893
C     1.91162  -0.03692  -0.39452
C     2.68388   0.35920  -1.66545
N     0.78340   0.85501  -0.14755
C    -0.53050   0.22517  -0.09173
C    -1.39664   0.96573   0.95896
C    -2.56504   0.41136   1.51124
C    -3.35133   1.12517   2.41830
C    -2.99696   2.42419   2.79469
C    -1.84239   2.99198   2.25362
C    -1.05436   2.26936   1.35092
C    -1.31046   0.36395  -1.43369
C    -0.77302   1.07842  -2.51562
C    -1.48136   1.25100  -3.70981
C    -2.75974   0.71219  -3.85642
C    -3.32119   0.01212  -2.78449
C    -2.61113  -0.14944  -1.59323
C    -0.12597  -1.26857   0.31543
C     0.06963  -1.35486   1.84241
C    -1.13219  -2.36322  -0.05684
C     1.25702  -1.47829  -0.43836
C     1.03824  -1.93281  -1.89465
C     2.11798  -2.57287   0.20905
H     3.33129   2.27711   3.19836
H     3.13107   0.58802   3.74119
H     4.48224   1.01866   2.65911
H     1.67160   1.33434   1.63743
H     3.54332  -0.30535  -1.82216
H     3.06742   1.38624  -1.55260
H     2.04788   0.33024  -2.55664
H     0.82178   1.72207  -0.66991
H    -2.86898  -0.60241   1.25785
H    -4.24565   0.65655   2.83642
H    -3.61260   2.98387   3.50287
H    -1.54532   4.00591   2.53333
H    -0.15643   2.73759   0.94932
H     0.22300   1.51177  -2.45108
H    -1.02205   1.81166  -4.52769
H    -3.31521   0.84138  -4.78830
H    -4.32541  -0.41043  -2.87024
H    -3.09652  -0.68449  -0.78172
H     0.78476  -0.61775   2.22533
H    -0.87972  -1.20097   2.36830
H     0.42919  -2.35407   2.12114
H    -0.69417  -3.34694   0.17240
H    -1.41432  -2.36205  -1.11445
H    -2.05152  -2.27911   0.53891
H     0.58061  -2.93091  -1.91282
H     0.39598  -1.25682  -2.47084
H     2.00110  -2.01698  -2.41695
H     3.04203  -2.71695  -0.36857
H     1.56942  -3.52743   0.20434
H     2.41101  -2.35496   1.24169
