18
Generated by autodE on: 2022-06-23. E = -235.968089 Ha
C    -1.52628  -1.08826  -0.60988
C    -0.67677  -0.00925   0.01763
C    -1.52089   1.04845   0.68729
C     0.67680   0.00893  -0.01752
C     1.52538   1.09679   0.59582
C     1.52180  -1.05679  -0.67328
H    -2.13498  -1.59702   0.15934
H    -2.24651  -0.64215  -1.31891
H    -0.95812  -1.85494  -1.15008
H    -0.94583   1.82652   1.20340
H    -2.17559   1.54513  -0.05154
H    -2.19755   0.58440   1.42697
H     2.20351   1.52518  -0.16376
H     0.95352   1.92235   1.03614
H     2.17870   0.67947   1.38336
H     2.24750  -1.46708   0.05157
H     2.12423  -0.62300  -1.49182
H     0.95071  -1.89730  -1.08536
