38
Generated by autodE on: 2022-06-23. E = -843.779480 Ha
C     5.49119   0.12805  -1.12666
N     4.24716  -0.52152  -0.77452
C     3.10692   0.18574  -0.57535
O     3.10217   1.43938  -0.68547
C     1.89619  -0.54118  -0.21671
C     1.82556  -1.99659   0.08893
N     0.84569   0.29311  -0.06068
C    -0.46692   0.13637   0.16680
C    -1.20224   1.32099   0.61588
C    -0.54550   2.38340   1.28195
C    -1.23789   3.53354   1.66170
C    -2.60878   3.65225   1.41185
C    -3.27802   2.60329   0.76878
C    -2.58951   1.45817   0.37404
C    -1.14861  -1.13730  -0.11528
C    -0.90246  -1.83387  -1.31670
C    -1.58353  -3.01636  -1.61013
C    -2.52467  -3.53122  -0.71306
C    -2.78497  -2.84566   0.47996
C    -2.10920  -1.66210   0.77415
H     6.26958  -0.63631  -1.24346
H     5.40613   0.68919  -2.07239
H     5.81303   0.83797  -0.34726
H     4.22054  -1.53268  -0.73724
H     2.80541  -2.36822   0.42308
H     1.50289  -2.62071  -0.76453
H     1.10835  -2.18373   0.90273
H     1.18026   1.26664  -0.12795
H     0.51472   2.29989   1.53130
H    -0.70321   4.33610   2.17580
H    -3.15197   4.54840   1.72011
H    -4.34828   2.68317   0.56238
H    -3.12624   0.66396  -0.14631
H    -0.18379  -1.43207  -2.03356
H    -1.38111  -3.53604  -2.54987
H    -3.05463  -4.45858  -0.94242
H    -3.51688  -3.24026   1.18903
H    -2.31450  -1.13803   1.70969
