56
Generated by autodE on: 2022-06-23. E = -1079.705424 Ha. Imaginary frequency = -375.8 cm-1
C     4.12306   1.12573   2.48314
N     3.58164   1.05693   1.14240
C     2.25517   0.85159   0.93590
O     1.48203   0.84334   1.90535
C     1.84607   0.60211  -0.47850
C     2.93449   0.73083  -1.52058
N     0.62253   1.02100  -0.95853
C    -0.65201   0.79328  -0.47770
C    -1.06315   1.44056   0.79376
C    -2.07883   0.91377   1.61171
C    -2.48909   1.57574   2.77126
C    -1.90259   2.79140   3.13721
C    -0.90568   3.33991   2.32265
C    -0.49540   2.67392   1.16823
C    -1.67911   0.68157  -1.54465
C    -1.34437   0.22824  -2.84431
C    -2.29709   0.12760  -3.85767
C    -3.63383   0.45530  -3.61278
C    -3.99132   0.90141  -2.33705
C    -3.03455   1.02075  -1.32841
C    -0.02265  -1.58698   0.12636
C    -0.37246  -1.76943   1.58511
C    -1.03164  -2.22766  -0.79478
C     1.35153  -1.56596  -0.24837
C     1.69918  -2.03618  -1.64709
C     2.38898  -1.99971   0.76978
H     3.97695   0.17875   3.03057
H     3.64219   1.92608   3.06643
H     5.19889   1.33287   2.42148
H     4.22897   1.03131   0.36612
H     3.75162   0.01910  -1.33756
H     2.53604   0.51645  -2.52195
H     3.36979   1.74518  -1.54599
H     0.64533   1.03840  -1.97377
H    -2.55481  -0.02639   1.33734
H    -3.27447   1.13726   3.39217
H    -2.22345   3.30947   4.04421
H    -0.44487   4.29510   2.58780
H     0.28043   3.11101   0.53771
H    -0.32539  -0.08118  -3.08052
H    -1.99007  -0.22733  -4.84462
H    -4.38312   0.36508  -4.40249
H    -5.02742   1.17592  -2.12305
H    -3.34931   1.40378  -0.35974
H    -1.45793  -1.73806   1.74426
H    -0.03419  -2.76544   1.93389
H     0.09191  -1.01863   2.23481
H    -0.95320  -3.33177  -0.71328
H    -0.89326  -1.98151  -1.85267
H    -2.06362  -1.95828  -0.52340
H     1.16160  -1.48530  -2.43106
H     1.43703  -3.10370  -1.76827
H     2.77562  -1.94826  -1.84797
H     3.40611  -1.72667   0.45143
H     2.36614  -3.10206   0.86942
H     2.22084  -1.58312   1.76917
