25
Generated by autodE on: 2022-07-27. E = -796.894405 Ha
C     4.36981  -2.22614   0.01428
N     3.11330  -1.57905   0.33892
C     2.27680  -1.17352  -0.62829
O     2.49743  -1.31806  -1.83391
C     1.03772  -0.52103  -0.11340
O     0.88064  -0.34778   1.19568
C    -0.38190   0.30100   1.44165
O    -0.71040   0.54867   2.58178
C    -0.92114   0.47552   0.14055
C    -2.18321   1.07988  -0.22923
O    -2.60435   1.22290  -1.36890
O    -2.86981   1.48093   0.85662
C    -4.14146   2.09376   0.61633
N    -0.00146  -0.05007  -0.77442
C    -0.18732  -0.06940  -2.22966
H     5.01729  -1.55839  -0.57546
H     4.88175  -2.48874   0.94703
H     4.20013  -3.14163  -0.57331
H     2.86578  -1.42141   1.31122
H    -4.02650   3.00876   0.01670
H    -4.54720   2.34017   1.60463
H    -4.81628   1.39999   0.09364
H    -1.11296  -0.60892  -2.45816
H     0.67660  -0.56377  -2.67622
H    -0.27598   0.96287  -2.58692
