43
Generated by autodE on: 2022-05-31. E = -1257.128438 Ha. Imaginary frequency = -414.6 cm-1
C     5.08358  -0.85705  -0.26789
N     3.76627  -0.35080   0.07090
C     2.77522  -0.33739  -0.82895
O     2.88368  -0.72380  -1.99418
C     1.45289   0.15104  -0.30599
O     1.39876   0.51125   1.00890
C     0.23106   1.24796   1.21308
O    -0.13975   1.54062   2.32670
C    -0.25333   1.52449  -0.12601
C    -1.43297   2.32192  -0.47683
O    -1.77114   2.61917  -1.60872
O    -2.12866   2.65825   0.61267
C    -3.34795   3.38358   0.39516
N     0.65350   1.01652  -1.01049
C     0.62470   1.08142  -2.47201
C    -0.98632  -1.10107   0.14158
C    -2.11382  -0.64680  -0.66810
C    -3.42437  -0.44247   0.05073
O    -2.01288  -0.45307  -1.88357
C    -1.11113  -1.73099   1.54488
C    -1.33448  -3.23985   1.28536
C    -0.16127  -3.68367   0.82176
C     0.76392  -2.44525   0.81579
O     0.26167  -1.73947   1.95985
C     0.26492  -1.52491  -0.32822
H     5.57368  -0.22037  -1.02132
H     5.69893  -0.87326   0.63907
H     5.01389  -1.87718  -0.67472
H     3.58708   0.00271   1.00567
H    -3.14027   4.34393  -0.09790
H    -3.77622   3.55038   1.38982
H    -4.03826   2.79341  -0.22400
H     0.29054   0.12020  -2.88056
H     1.63432   1.30393  -2.83427
H    -0.07274   1.86778  -2.76352
H    -3.28755   0.22779   0.91301
H    -3.79050  -1.40635   0.44284
H    -4.16836  -0.02331  -0.63876
H    -1.75628  -1.23145   2.27406
H    -2.28208  -3.76452   1.40193
H     0.11748  -4.67338   0.46180
H     1.84273  -2.61891   0.88175
H     0.45961  -1.76100  -1.37622
