42
Generated by autodE on: 2022-06-11. E = -1127.779675 Ha
C     4.13445   0.18777   0.50872
O     2.87745  -0.03398  -0.14843
C     1.82757  -0.29517   0.62414
O     1.89021  -0.40543   1.83133
C     0.54775  -0.39783  -0.19292
C     0.71130  -1.33942  -1.42614
C     1.31601  -2.66395  -0.89622
C     0.14891  -3.28065  -0.06555
C    -1.00637  -2.27529  -0.28472
C    -0.72547  -1.80829  -1.72660
C    -0.66688  -1.03772   0.56950
C    -1.66076   0.14615   0.58157
C    -3.09128  -0.18120   0.98833
C    -4.07319  -0.41781  -0.11433
O    -3.35950  -0.25736   2.17072
N    -1.44540   0.79938  -0.67639
C    -0.01869   1.06851  -0.46162
C     0.70715   1.86881  -1.52969
C     0.06946   1.93440  -2.88267
O     1.76141   2.41012  -1.25575
C    -0.06058   1.70414   0.95308
O     0.63893   2.53805   1.46528
O    -1.09226   1.09894   1.58016
H     4.43668  -0.70861   1.06853
H     4.05454   1.04344   1.19399
H     4.85605   0.40196  -0.28746
H     1.27251  -0.88550  -2.25143
H     1.57452  -3.30285  -1.75265
H     2.23570  -2.52738  -0.31139
H    -0.13086  -4.27375  -0.44472
H     0.40177  -3.38693   0.99947
H    -2.00330  -2.68847  -0.08337
H    -1.39277  -1.02152  -2.08471
H    -0.73052  -2.64728  -2.43879
H    -0.43511  -1.29903   1.60739
H    -4.25399   0.53346  -0.64356
H    -5.01678  -0.79412   0.30044
H    -3.66694  -1.12063  -0.85720
H    -1.98014   1.67018  -0.74343
H    -0.88245   2.48696  -2.81173
H     0.74053   2.44225  -3.58682
H    -0.17628   0.92240  -3.23938
