23
Generated by autodE on: 2022-06-11. E = -500.847962 Ha
C    -3.41106  -0.58876  -0.78705
O    -2.07355  -0.09040  -0.67011
C    -1.37373  -0.48337   0.41024
O    -1.84079  -1.22096   1.26436
C    -0.01770   0.07504   0.42119
C     0.97780  -0.32934   1.24087
C     2.24459   0.35357   0.78208
C     2.61161  -0.32996  -0.58233
C     1.47406   0.14414  -1.53112
C     0.58984   1.03019  -0.59713
C     1.67402   1.69784   0.27509
H    -4.02122  -0.26706   0.06986
H    -3.41252  -1.68760  -0.83897
H    -3.81283  -0.16683  -1.71579
H     0.91071  -1.10356   2.00752
H     3.06757   0.38457   1.50657
H     3.59461   0.03051  -0.92006
H     2.66878  -1.42369  -0.48785
H     0.89643  -0.68541  -1.96320
H     1.87124   0.74811  -2.36045
H    -0.11833   1.68371  -1.11884
H     2.40146   2.28475  -0.30641
H     1.25507   2.31756   1.08187
