42
Generated by autodE on: 2022-06-11. E = -1127.740788 Ha. Imaginary frequency = -420.1 cm-1
C     3.99638   0.44478   0.66022
O     2.85762  -0.12640   0.00716
C     1.78978  -0.39544   0.78095
O     1.80404  -0.25710   1.99528
C     0.64140  -0.83935  -0.01321
C     0.79882  -1.57441  -1.33404
C     1.15517  -3.03248  -0.88860
C    -0.16538  -3.52551  -0.22527
C    -1.12992  -2.31340  -0.41000
C    -0.65981  -1.79003  -1.77968
C    -0.59915  -1.24116   0.54180
C    -1.71827   0.41960   0.52160
C    -3.11159  -0.07109   0.75678
C    -3.53363  -0.27272   2.17416
O    -3.79464  -0.32404  -0.22113
N    -1.40428   1.04599  -0.65222
C    -0.15941   1.57862  -0.50084
C     0.74571   2.03149  -1.55998
C     0.30929   1.81869  -2.98148
O     1.83157   2.51987  -1.26024
C     0.00284   1.80562   0.92704
O     0.79918   2.42862   1.58692
O    -1.05596   1.10770   1.52023
H     4.73972   0.62046  -0.12618
H     3.72062   1.39483   1.13986
H     4.40097  -0.24378   1.41635
H     1.49562  -1.13097  -2.05351
H     1.40735  -3.63142  -1.77651
H     2.01866  -3.05774  -0.20884
H    -0.03919  -3.78764   0.83499
H    -0.57033  -4.40642  -0.74441
H    -2.19329  -2.55756  -0.30216
H    -1.17215  -0.89152  -2.13580
H    -0.73908  -2.55281  -2.56796
H    -0.68492  -1.37831   1.62287
H    -3.48564   0.68640   2.71443
H    -4.55069  -0.68183   2.20754
H    -2.82946  -0.95768   2.67460
H    -1.83109   0.76783  -1.53311
H     0.19141   0.74011  -3.17648
H     1.06064   2.23603  -3.66318
H    -0.66891   2.29276  -3.16385
