20
Generated by autodE on: 2022-06-20. E = -457.715333 Ha
C     3.02439  -0.14078  -0.96269
N     1.79018  -0.32127  -0.21546
C     1.84131  -0.84589   1.08227
C     0.75736  -0.94413   1.86796
C    -0.61872  -0.50344   1.43344
C    -0.56844   0.09095   0.03530
C    -1.77703   0.62612  -0.61220
N    -2.92404   0.54703   0.10816
O    -1.78081   1.12989  -1.75401
C     0.59417   0.14455  -0.67385
H     2.78752   0.13777  -1.99739
H     3.65415   0.65031  -0.52079
H     3.60457  -1.07596  -0.97769
H     2.83098  -1.17217   1.40711
H     0.87650  -1.37073   2.86655
H    -1.03079   0.22667   2.15961
H    -1.32294  -1.36007   1.47464
H    -3.77889   0.90900  -0.30014
H    -2.96215   0.14540   1.03617
H     0.60143   0.57690  -1.67569
