38
Generated by autodE on: 2022-06-20. E = -1046.474030 Ha. Imaginary frequency = -428.6 cm-1
C     4.25723   1.21589   0.08115
O     2.99309   0.53336   0.14467
C     2.16379   0.71062  -0.88228
O     2.38931   1.40172  -1.85215
C     0.89266  -0.02591  -0.64316
N     0.96868  -1.35737  -0.24602
C    -0.23992  -1.90370  -0.50409
C    -0.66535  -3.26901  -0.12771
C    -0.85951  -1.08057  -1.52431
O    -1.87906  -1.21555  -2.17110
O    -0.01430   0.01133  -1.68639
C    -1.16784  -0.15012   1.04088
C    -0.80973  -1.12726   2.07183
N    -1.81069  -1.87412   2.60013
O     0.37194  -1.28152   2.46157
C    -2.62133   0.06473   0.66443
C    -2.79281   1.27515  -0.21343
C    -1.81867   2.19158  -0.34764
N    -0.57480   2.08731   0.26410
C     0.40256   3.14043   0.04880
C    -0.16453   0.83863   0.76360
H     4.82326   0.88872  -0.80221
H     4.09676   2.30244   0.03693
H     4.79058   0.94537   0.99904
H     1.45695  -1.58758   0.62464
H    -1.75738  -3.30125  -0.01137
H    -0.18855  -3.58372   0.81028
H    -0.38997  -3.98686  -0.91917
H    -1.55908  -2.62995   3.22829
H    -2.74384  -1.87225   2.20796
H    -3.03455  -0.83231   0.16632
H    -3.22867   0.18045   1.58658
H    -3.74910   1.43479  -0.71425
H    -1.95795   3.09495  -0.94659
H    -0.02044   4.11590   0.33505
H     0.73218   3.20271  -1.00084
H     1.28220   2.95679   0.68040
H     0.64370   0.90479   1.49575
