12
Generated by autodE on: 2022-06-17. E = -157.300302 Ha
C    -1.96003   0.01675  -0.12523
C    -0.49862  -0.10080  -0.43580
C     0.49862   0.10086   0.43578
C     1.96003  -0.01678   0.12524
H    -2.48757  -0.93486  -0.31579
H    -2.44677   0.77117  -0.76862
H    -2.13275   0.29946   0.92516
H    -0.24286  -0.37728  -1.46831
H     0.24287   0.37735   1.46830
H     2.13275  -0.29902  -0.92528
H     2.48773   0.93462   0.31633
H     2.44660  -0.77163   0.76828
