27
Generated by autodE on: 2022-06-17. E = -628.637800 Ha
C    -2.42762   3.16972   0.07384
N    -1.23536   2.35274   0.07321
N    -1.48613   1.10245  -0.01683
C    -0.64489   0.05547  -0.06377
C    -1.37740  -1.21500  -0.17595
O    -2.62155  -1.22454  -0.31944
N    -0.67832  -2.36794  -0.08879
C    -1.33015  -3.65924  -0.15787
C     0.81410   0.21429   0.02860
C     1.39399   1.06892   0.98904
C     2.77912   1.20118   1.08412
C     3.62071   0.48691   0.22365
C     3.06094  -0.35899  -0.73775
C     1.67416  -0.49044  -0.83903
H    -2.50799   3.72997   1.02186
H    -3.35570   2.58408  -0.06233
H    -2.36993   3.92096  -0.73207
H    -2.47265   0.77326  -0.09205
H     0.31891  -2.33054   0.08647
H    -0.56212  -4.44262  -0.16982
H    -1.93859  -3.74736  -1.07122
H    -1.99448  -3.83133   0.70582
H     0.74991   1.62907   1.66666
H     3.20629   1.86497   1.83989
H     4.70532   0.59316   0.30021
H     3.70586  -0.91373  -1.42351
H     1.25228  -1.13533  -1.61188
