39
Generated by autodE on: 2022-06-17. E = -785.917667 Ha. Imaginary frequency = -392.5 cm-1
C    -1.17607   2.41874   2.75626
N    -0.59784   1.25678   2.11694
C    -0.13336   1.32507   0.85249
O    -0.02828   2.41078   0.25517
C     0.27749   0.03638   0.20611
C     1.27287   0.10729  -0.88991
C     1.07900   0.96353  -1.99267
C     2.00450   1.00758  -3.03575
C     3.14432   0.19681  -3.01084
C     3.35143  -0.65543  -1.92325
C     2.43149  -0.69459  -0.87282
N     0.25700  -1.13269   0.91213
N    -0.75670  -1.38758   1.72718
C    -0.78197  -2.76602   2.16814
C    -2.40463  -1.03283   0.48082
C    -3.33783  -0.32414   1.42272
C    -1.84728  -0.40402  -0.63768
C    -1.44752  -1.22530  -1.83399
H    -0.43741   3.22840   2.86218
H    -1.52884   2.13564   3.75629
H    -2.02955   2.82024   2.18251
H    -0.83414   0.31168   2.44172
H     0.18878   1.58751  -2.03304
H     1.82747   1.67638  -3.88166
H     3.86531   0.23161  -3.83093
H     4.24234  -1.28667  -1.88077
H     2.63672  -1.34273  -0.01815
H     0.65535  -1.93701   0.41249
H    -1.78054  -2.98434   2.57195
H    -0.04914  -2.93727   2.97663
H    -0.56712  -3.48119   1.34963
H    -2.56688  -2.11330   0.39558
H    -3.16071   0.76100   1.43050
H    -3.23662  -0.69580   2.45548
H    -4.38792  -0.48737   1.12148
H    -2.08069   0.65184  -0.80547
H    -0.87890  -0.64628  -2.57383
H    -0.82816  -2.08847  -1.53226
H    -2.33377  -1.63773  -2.35059
