34
Generated by autodE on: 2022-06-17. E = -670.430893 Ha
C     3.88452   1.04365   1.06757
N     2.51620   0.83361   0.64696
C     2.12857  -0.11649  -0.21787
O     2.89483  -0.92667  -0.75732
C     0.62948  -0.21253  -0.46667
C     0.01314  -1.35904   0.39144
C    -0.28861  -2.58923  -0.46027
C    -1.19760  -0.68799   1.09826
C    -2.40525  -1.57509   1.36375
C    -1.47231   0.58601   0.25728
C    -2.22971   1.66863   1.02807
C    -2.26407   0.23047  -0.95609
N    -2.84386  -0.02398  -1.92976
N    -0.11699   0.99813  -0.12804
C    -0.01383   2.05420  -1.12419
H     4.54698   0.43303   0.44171
H     4.16621   2.10178   0.95841
H     4.03238   0.75321   2.12078
H     1.77587   1.42855   1.00979
H     0.51979  -0.46219  -1.53992
H     0.73217  -1.65619   1.16920
H     0.63866  -2.93017  -0.94651
H    -0.67561  -3.41940   0.14905
H    -1.02116  -2.36858  -1.25152
H    -0.83880  -0.29515   2.06120
H    -2.11960  -2.42887   1.99667
H    -3.19062  -1.01585   1.89522
H    -2.84238  -1.97536   0.43705
H    -1.64570   1.95047   1.91581
H    -2.39827   2.56216   0.41086
H    -3.20935   1.28867   1.35116
H    -0.54502   2.95476  -0.78644
H    -0.42156   1.75327  -2.11038
H     1.04254   2.32239  -1.26461
