12
Generated by autodE on: 2022-06-17. E = -157.299005 Ha
C    -1.57500  -0.48697   0.32452
C    -0.65522   0.65130  -0.00243
C     0.67157   0.60156  -0.20150
C     1.56077  -0.60462  -0.14678
H    -2.36671  -0.58305  -0.43943
H    -1.05537  -1.45313   0.39673
H    -2.09482  -0.30812   1.28240
H    -1.13928   1.63280  -0.08483
H     1.18071   1.54579  -0.43317
H     1.01684  -1.52972   0.09195
H     2.07861  -0.75385  -1.11079
H     2.35477  -0.47232   0.60931
