39
Generated by autodE on: 2022-06-19. E = -993.261275 Ha
C     0.20948   2.03308  -2.05205
C     0.12059   2.19924  -0.72566
C     0.24077   3.53960  -0.05896
C    -0.06843   1.02340   0.21833
C    -1.21816   0.03213  -0.15747
C    -2.37544  -0.01296   0.79154
C    -3.66076  -0.23712   0.46036
C    -4.72903  -0.28026   1.51835
C    -4.15075  -0.48020  -0.94062
C    -0.40328  -1.29102  -0.22566
C    -1.04187  -2.41177  -0.90956
N    -1.59625  -3.26843  -1.45596
O    -0.03401  -1.68312   1.12176
C     0.98030  -0.83081   1.45971
O     1.51643  -0.81963   2.52881
C     1.16375   0.04506   0.21289
C     2.53413   0.67112   0.06546
O     2.86683   1.54427   0.86911
N     3.28329   0.19636  -0.93526
C     4.61900   0.67661  -1.23182
O     0.81800  -0.91209  -0.80691
H     0.37454   2.88773  -2.71427
H     0.13000   1.04849  -2.51961
H     0.38665   4.34740  -0.79028
H     1.08941   3.54042   0.64492
H    -0.66352   3.75858   0.53496
H    -0.21359   1.39813   1.23894
H    -1.54773   0.23082  -1.18351
H    -2.12248   0.12271   1.84818
H    -4.32061  -0.12494   2.52751
H    -5.49535   0.49122   1.32694
H    -5.25559  -1.25038   1.49821
H    -4.53535  -1.51089  -1.02925
H    -4.99591   0.18951  -1.17333
H    -3.37802  -0.34588  -1.70866
H     2.88743  -0.53604  -1.51727
H     4.67851   1.03103  -2.27161
H     4.85623   1.50684  -0.55664
H     5.36322  -0.12229  -1.09046
