16
Generated by autodE on: 2022-07-27. E = -641.679386 Ha
C     3.03902   1.89736  -1.62535
N     1.86368   1.14870  -1.22860
C     1.51147   0.95832   0.06024
O     2.14416   1.38776   1.03439
C     0.29062   0.18421   0.29131
O    -0.45302  -0.31617  -0.75784
C    -1.47630  -0.94615  -0.27557
C    -2.42681  -1.57048  -1.12086
N    -3.21310  -2.08698  -1.80246
O    -1.53234  -0.94342   1.00810
C    -0.31327  -0.15860   1.50979
O    -0.15982  -0.02429   2.68929
H     2.76202   2.78670  -2.21334
H     3.57357   2.22253  -0.72548
H     3.71346   1.27509  -2.23391
H     1.27471   0.75997  -1.95831
