52
Generated by autodE on: 2022-10-22. E = -1754.520599 Ha
C    -5.25629  10.96547  10.18860
O    -4.67764   9.74823   9.70229
C    -3.60200   9.83599   8.92531
O    -3.05925  10.88138   8.63908
C    -3.19174   8.47243   8.36268
C    -3.17956   7.31910   9.38362
C    -4.31709   6.61598   9.22457
C    -5.13936   7.22819   8.09819
C    -6.40533   7.96615   8.57012
C    -7.01618   8.93518   7.59891
O    -6.91015   7.73382   9.65349
N    -4.20132   8.08681   7.36318
C    -3.58301   7.37498   6.24274
C    -4.84767   5.38221   9.93312
F    -6.02003   4.99013   9.23817
O    -3.92926   4.36171   9.71550
C    -4.19705   3.09128  10.30646
C    -5.30162   5.62231  11.38892
C    -4.60342   6.73325  12.17466
C    -3.15370   6.46265  12.57733
C    -2.17387   6.07915  11.46515
C    -1.96460   7.06373  10.28065
C    -0.85225   6.42765   9.38892
F    -0.57061   7.14903   8.29030
F     0.30123   6.28558  10.06330
F    -1.22264   5.21371   8.96662
C    -1.43103   8.40463  10.85351
F    -0.88243   9.19768   9.91472
F    -0.49774   8.21924  11.79402
F    -2.43039   9.10757  11.41782
H    -5.48993  11.63981   9.35296
H    -6.17346  10.67143  10.71141
H    -4.56203  11.46120  10.88221
H    -2.22739   8.63165   7.87466
H    -5.52333   6.44187   7.42768
H    -8.02400   9.21019   7.93709
H    -7.05198   8.50594   6.58602
H    -6.38907   9.83785   7.54554
H    -3.03846   6.46423   6.56183
H    -2.87445   8.03939   5.72847
H    -4.36058   7.08122   5.52374
H    -3.90826   3.06894  11.36953
H    -3.58345   2.36370   9.75844
H    -5.25728   2.81537  10.20410
H    -6.36509   5.87599  11.31612
H    -5.23656   4.67196  11.93791
H    -5.18152   6.88219  13.10085
H    -4.68177   7.67998  11.62183
H    -2.77445   7.32947  13.13987
H    -3.13954   5.61671  13.28480
H    -1.18939   5.91913  11.92351
H    -2.46871   5.12386  11.02653
