22
Generated by autodE on: 2022-10-22. E = -554.025943 Ha
C     3.94160  -0.38032  -0.30092
O     2.53880  -0.39643  -0.57162
C     1.72781   0.04961   0.42070
O     2.17286   0.44510   1.49209
C     0.35279  -0.03509  -0.02132
N    -0.71260   0.31465   0.70939
C    -0.52603   0.83031   2.08723
C    -1.99766   0.23715   0.28753
C    -2.43452  -0.22151  -1.00138
C    -3.93442  -0.20156  -1.21234
O    -1.67691  -0.61435  -1.90843
H     4.18217  -1.01571   0.56495
H     4.42962  -0.77379  -1.20082
H     4.29146   0.64404  -0.10164
H     0.14474  -0.40758  -1.01840
H    -1.50942   1.04844   2.51170
H     0.08545   1.73832   2.05525
H    -0.00894   0.07625   2.68990
H    -2.74236   0.56058   1.00994
H    -4.43913  -0.84092  -0.46990
H    -4.33101   0.81885  -1.08552
H    -4.16741  -0.56151  -2.22315
