60
Generated by autodE on: 2022-06-11. E = -1422.883526 Ha
C     0.37176  -1.32235  -0.00555
N     0.78302  -2.23895  -1.05018
C    -0.02175  -2.54562  -2.07464
O    -1.13232  -2.00969  -2.19952
C     0.58825  -3.54861  -3.11299
C    -0.41085  -4.07833  -4.17852
O    -0.15124  -5.12762  -4.78440
N    -1.47559  -3.32330  -4.46727
C    -2.47646  -3.76587  -5.41592
C     1.63314  -2.69378  -3.90603
C     2.41105  -3.37124  -5.03417
C     3.20131  -4.63388  -4.68348
C     4.21252  -4.54904  -3.53735
C     3.69610  -4.48243  -2.08201
F     3.53818  -3.09966  -1.74453
C     4.73213  -5.02436  -1.09647
C     5.06561  -4.29460   0.05228
C     5.98885  -4.80093   0.97283
C     6.58504  -6.04619   0.76230
C     6.25036  -6.78429  -0.37739
C     5.33259  -6.27688  -1.29947
C     2.33827  -5.12621  -1.88176
C     1.11070  -4.75020  -2.33752
C     0.12853  -5.80177  -1.83621
C    -1.08177  -5.23882  -1.12093
C    -2.32705  -5.19850  -1.75993
C    -3.42357  -4.59303  -1.13857
C    -3.28441  -4.03054   0.13234
C    -2.04671  -4.08601   0.78499
C    -0.95183  -4.68559   0.16100
N     0.89744  -6.75184  -1.04282
C     2.12195  -6.35593  -1.09705
H     0.18188  -0.31466  -0.40810
H     1.17151  -1.26131   0.74265
H    -0.54954  -1.67489   0.48349
H     1.69967  -2.67202  -0.99189
H    -1.68889  -2.59322  -3.78034
H    -3.02918  -4.64604  -5.04367
H    -3.19044  -2.95062  -5.58877
H    -2.01114  -4.03989  -6.37378
H     2.33697  -2.26256  -3.19088
H     1.06928  -1.84883  -4.32996
H     1.73157  -3.61480  -5.86579
H     3.11037  -2.61133  -5.42376
H     2.50628  -5.46521  -4.49552
H     3.77031  -4.92256  -5.58246
H     4.85150  -5.43836  -3.60719
H     4.88376  -3.68283  -3.65936
H     4.60605  -3.32259   0.22772
H     6.24106  -4.21478   1.85980
H     7.30569  -6.44144   1.48200
H     6.70535  -7.76201  -0.55206
H     5.07288  -6.87502  -2.17496
H    -0.23214  -6.34451  -2.72458
H    -2.43566  -5.63730  -2.75431
H    -4.38764  -4.56061  -1.65161
H    -4.13888  -3.55368   0.61833
H    -1.93431  -3.65530   1.78269
H     0.01711  -4.71165   0.66376
H     2.92175  -6.91031  -0.60099
