32
Generated by autodE on: 2022-06-14. E = -5915.276612 Ha
C     0.90706  -3.36136   3.28718
O     1.22079  -2.35511   2.30777
C     1.14628  -2.71242   1.02968
O     0.82765  -3.81027   0.63832
C     1.53646  -1.53153   0.11636
C     3.02287  -1.22427   0.34233
O     3.48277  -0.11367   0.47375
O     3.73565  -2.34635   0.33544
C     5.15984  -2.21989   0.49681
C     0.68843  -0.37971   0.39504
C    -0.21805   0.41109   0.24848
C    -1.32656   1.02861  -0.42316
Br   -2.76808   1.53021   0.85370
Br   -0.68924   2.70366  -1.31273
C    -1.87940   0.04976  -1.47464
C    -0.82079  -0.62500  -2.37199
C    -0.15536  -1.93418  -1.86209
C     1.31235  -1.88375  -1.38987
H    -0.12557  -3.71243   3.15174
H     1.02152  -2.87594   4.26265
H     1.60233  -4.20774   3.19565
H     5.39006  -1.74001   1.45833
H     5.55563  -3.24110   0.47352
H     5.58172  -1.62535  -0.32559
H    -2.43396  -0.72544  -0.92214
H    -2.61186   0.59537  -2.08683
H    -0.05084   0.10966  -2.65928
H    -1.35008  -0.87177  -3.30444
H    -0.16315  -2.64313  -2.70374
H    -0.78274  -2.39965  -1.08520
H     1.86774  -1.14266  -1.98510
H     1.78984  -2.85931  -1.55377
