28
Generated by autodE on: 2022-07-27. E = -765.681392 Ha
C    -2.23895  -0.10331   2.78248
O    -1.68631   0.16392   1.48577
C    -0.52885  -0.42900   1.18211
O     0.04038  -1.21024   1.92244
C    -0.07814  -0.11167  -0.19205
O    -0.49954   0.96449  -0.82799
C    -0.95844   2.13430  -0.41883
C    -0.70187   2.79547   0.83556
C     0.41508   2.33636   1.74285
O    -1.32060   3.84317   1.08448
C     0.68995  -1.03387  -1.00859
C     1.23740  -0.57795  -2.23243
C     1.95063  -1.44195  -3.05776
C     2.14862  -2.77603  -2.68238
C     1.62050  -3.23738  -1.47119
C     0.89873  -2.38432  -0.64021
H    -2.50958  -1.16525   2.87124
H    -1.51647   0.15895   3.56829
H    -3.13238   0.52604   2.86151
H    -1.43697   2.69116  -1.22569
H     0.01289   1.84249   2.64083
H     1.12243   1.64831   1.25618
H     0.95406   3.23592   2.07480
H     1.10789   0.46546  -2.52161
H     2.36659  -1.06929  -3.99655
H     2.71512  -3.45079  -3.32797
H     1.76662  -4.27787  -1.17248
H     0.48626  -2.76315   0.29260
