60
Generated by autodE on: 2022-06-14. E = -6680.958055 Ha. Imaginary frequency = -163.2 cm-1
C    -2.88049   3.09007   3.48259
O    -3.25442   1.73118   3.19628
C    -2.69127   1.16356   2.14416
O    -1.88927   1.71336   1.41733
C    -3.21506  -0.26058   1.85821
C    -3.63373  -0.20936   0.36609
O    -3.23728  -0.94133  -0.50844
O    -4.53284   0.75592   0.18596
C    -5.04820   0.92646  -1.14525
C    -4.47091  -0.61949   2.71105
C    -5.32254  -1.81368   2.25519
C    -4.85341  -3.25550   2.52978
C    -3.96885  -3.93568   1.46729
C    -2.46083  -3.90478   1.75236
Br   -1.52273  -4.72275   0.19284
Br   -2.08975  -5.06328   3.35255
C    -2.01148  -2.55427   1.97687
C    -2.21556  -1.34122   2.02704
C     0.08751  -0.35847   2.50644
C     0.21000   0.21728   3.85262
C     1.41727  -0.13363   4.69437
O    -0.55676   1.10685   4.21586
O     0.63776  -1.49442   2.13331
C     0.72347  -2.69266   2.67111
C     0.41759  -2.96582   4.10909
O     0.98209  -3.82448   4.75907
O    -0.55394  -2.20126   4.60341
C    -0.94265  -2.41921   5.96481
C     1.37164  -3.68268   1.81631
C     1.89070  -3.28167   0.56390
C     2.43569  -4.21346  -0.31269
C     2.48997  -5.56822   0.03732
C     1.99637  -5.97507   1.27967
C     1.44242  -5.05020   2.16186
H    -3.15005   3.73868   2.63716
H    -1.80222   3.14904   3.67437
H    -3.44685   3.37238   4.37717
H    -5.55632   0.00899  -1.47416
H    -4.23142   1.16788  -1.83989
H    -5.75968   1.75768  -1.08733
H    -5.11658   0.26766   2.70267
H    -4.13545  -0.76240   3.74877
H    -6.27738  -1.69159   2.79062
H    -5.58050  -1.71052   1.18673
H    -4.37509  -3.31483   3.52078
H    -5.76259  -3.87071   2.60654
H    -4.10732  -3.43967   0.49418
H    -4.25838  -4.98826   1.33830
H    -0.03480   0.33142   1.67135
H     2.02460   0.78339   4.76311
H     2.04771  -0.93185   4.28176
H     1.10355  -0.40093   5.71335
H    -0.07112  -2.36747   6.63136
H    -1.65448  -1.62026   6.20054
H    -1.42580  -3.40185   6.06436
H     1.85431  -2.23018   0.27963
H     2.82557  -3.88068  -1.27751
H     2.91856  -6.29871  -0.65266
H     2.03088  -7.02930   1.56400
H     1.04309  -5.39294   3.11191
