46
Generated by autodE on: 2022-06-02. E = -1296.509760 Ha
C     0.57883   3.96303  -1.08866
N     0.19423   2.82190  -0.27962
C     0.70775   1.60469  -0.50531
O     1.59879   1.42450  -1.34247
C     0.14385   0.43031   0.30993
C     0.25404   0.58376   1.87862
C    -0.51901   1.81580   2.33122
C    -1.81306   1.48918   2.20881
C    -1.82088   0.05958   1.67853
O    -0.62986  -0.45900   2.29513
C    -1.39838   0.10880   0.16436
C    -2.30504   1.04471  -0.64711
C    -1.94532   1.44923  -2.05280
O    -3.35790   1.40677  -0.15036
C    -1.35336  -1.28937  -0.55974
C    -2.62615  -1.78212  -1.18999
O    -0.94632  -2.29861   0.45481
C     0.35670  -2.06776   0.69393
O     1.04804  -2.72808   1.42471
C     0.75057  -0.90024  -0.26102
C     2.24325  -0.88417  -0.52467
O     2.80217  -1.34245  -1.49573
O     2.87843  -0.39677   0.54026
C     4.30975  -0.32425   0.46120
N    -0.16911  -1.15732  -1.38822
C     0.11396  -2.29472  -2.26729
H     0.34169   3.78955  -2.15065
H     1.65856   4.15985  -1.00740
H     0.02768   4.84392  -0.73833
H    -0.54853   2.93698   0.40234
H     1.26520   0.43813   2.26727
H    -0.07654   2.75901   2.64811
H    -2.69382   2.10236   2.38680
H    -2.69108  -0.56656   1.89644
H    -1.97465   2.54706  -2.11611
H    -2.72868   1.06680  -2.72597
H    -0.97351   1.07579  -2.38583
H    -3.45346  -1.67829  -0.47465
H    -2.86553  -1.20658  -2.09270
H    -2.52702  -2.84088  -1.46231
H     4.60666   0.34058  -0.36268
H     4.64365   0.08610   1.42069
H     4.73725  -1.32423   0.30277
H    -0.73051  -2.41754  -2.95739
H     1.00976  -2.08009  -2.85646
H     0.26743  -3.24702  -1.72719
