25
Generated by autodE on: 2022-06-02. E = -668.367361 Ha
C     3.71768   0.94515   0.01600
N     2.33397   0.63738  -0.27679
C     1.67379  -0.30797   0.40784
O     2.20012  -1.01072   1.28737
C     0.24188  -0.52574   0.07819
C    -0.73863   0.20114  -0.51211
C    -0.73215   1.54198  -1.12050
C    -2.06627   2.21135  -1.28462
O     0.30732   2.09370  -1.48669
C    -2.02771  -0.63512  -0.25575
C    -2.32020  -0.55555   1.25929
C    -1.34420  -1.26505   1.83225
C    -0.48005  -1.76532   0.65445
O    -1.48152  -1.95709  -0.35571
H     4.33641   0.03559  -0.02462
H     3.83510   1.38367   1.02156
H     4.08952   1.66161  -0.72674
H     1.78451   1.23618  -0.90307
H    -2.66449   1.65868  -2.02831
H    -1.92965   3.24703  -1.62001
H    -2.63066   2.18576  -0.33831
H    -2.86338  -0.47774  -0.94395
H    -3.12823   0.01937   1.70977
H    -1.11953  -1.43266   2.88463
H     0.14042  -2.65135   0.81532
