46
Generated by autodE on: 2022-06-02. E = -1296.473460 Ha. Imaginary frequency = -331.4 cm-1
C     1.95872   2.41307  -2.36193
N     0.89705   1.76875  -1.61708
C     1.02061   1.52737  -0.31093
O     1.98349   1.91912   0.36964
C    -0.08090   0.73345   0.36652
C    -0.20479   1.07073   1.89151
C    -0.71799   2.50979   1.99168
C    -1.99973   2.44570   1.60895
C    -2.24122   0.96702   1.26300
O    -1.38050   0.32528   2.22165
C    -1.47200   0.71338  -0.04873
C    -2.07605   0.74963  -1.32246
C    -3.59118   0.82184  -1.37173
O    -1.45031   0.71908  -2.42611
C    -1.16226  -2.02909  -0.59654
C    -2.20544  -2.53304  -1.50423
O    -1.30003  -2.20103   0.72869
C    -0.11964  -1.77576   1.36370
O     0.10304  -2.02565   2.51143
C     0.63261  -1.06808   0.29812
C     2.11120  -0.97396   0.48919
O     2.62269  -0.93445   1.58864
O     2.77439  -0.87487  -0.65551
C     4.18429  -0.60488  -0.57059
N     0.04337  -1.58998  -0.90131
C     0.58846  -1.53970  -2.25902
H     1.64982   2.50826  -3.41052
H     2.17777   3.41680  -1.96469
H     2.88974   1.82306  -2.31800
H     0.05980   1.38279  -2.09830
H     0.65302   0.78427   2.50638
H    -0.10487   3.37467   2.24009
H    -2.71863   3.25201   1.46355
H    -3.26520   0.58827   1.33001
H    -3.95414   1.75061  -0.90165
H    -4.05164  -0.01899  -0.82994
H    -3.92148   0.80213  -2.41874
H    -3.14280  -2.64470  -0.94676
H    -2.34688  -1.84477  -2.34858
H    -1.90518  -3.51637  -1.90351
H     4.34508   0.35238  -0.05627
H     4.69695  -1.41299  -0.03105
H     4.53878  -0.54936  -1.60549
H     1.34242  -2.33001  -2.36884
H    -0.22578  -1.70461  -2.96957
H     1.04779  -0.56867  -2.44564
