39
Generated by autodE on: 2022-05-29. E = -1087.680117 Ha
C     2.94288   0.85560  -1.41727
C     2.39981   1.54500  -0.20095
O     2.60369   2.72524   0.02908
C     1.55801   0.71433   0.78250
N     2.01326  -0.66105   0.79075
C     1.07733  -1.47036   0.47660
C     1.29302  -2.94545   0.39283
C    -0.30032  -0.83148   0.26233
C    -0.88407  -1.30748  -1.06891
F    -1.34883  -2.57381  -0.94479
F    -1.91725  -0.57558  -1.51445
F     0.03526  -1.34756  -2.05464
C    -1.22381  -1.19866   1.48095
C    -2.62633  -0.58299   1.32476
C    -2.34356   0.94100   1.44133
C    -0.83041   1.00328   1.77750
C    -0.64618  -0.29274   2.58051
C    -0.00983   0.71366   0.48798
C    -0.26746   1.73125  -0.62788
C    -0.49891   3.16020  -0.20515
O    -0.18425   1.43523  -1.80652
H     3.77675   0.20376  -1.10935
H     3.30752   1.59886  -2.13792
H     2.18025   0.20794  -1.87174
H     1.72600   1.17537   1.76637
H     2.31631  -3.19180   0.70318
H     0.57898  -3.48537   1.03323
H     1.14024  -3.30398  -0.63683
H    -1.22807  -2.27572   1.68350
H    -3.13998  -0.86121   0.39796
H    -3.25009  -0.93477   2.15932
H    -2.92664   1.40044   2.25219
H    -2.59991   1.47539   0.51708
H    -0.51521   1.92814   2.27467
H     0.39242  -0.51184   2.85876
H    -1.26206  -0.31319   3.49095
H    -0.37294   3.81610  -1.07604
H     0.19778   3.44925   0.59343
H    -1.51863   3.27874   0.19052
