25
Generated by autodE on: 2022-05-29. E = -762.779903 Ha
C     2.31862  -2.18878  -0.87012
C     1.83241  -0.90298  -0.26070
O     2.57072   0.06358  -0.10808
C     0.41458  -0.86139   0.16932
C    -0.36084   0.23508   0.35559
C    -0.00845   1.67604   0.13714
F    -1.11867   2.44364   0.14023
F     0.79772   2.16250   1.09976
F     0.60184   1.89823  -1.04293
C    -1.77771  -0.23461   0.61679
C    -2.28824  -0.77927  -0.76141
C    -1.41288  -2.04345  -0.97929
C    -0.50823  -2.06758   0.29692
C    -1.49509  -1.55344   1.36281
H     1.64312  -2.51639  -1.67631
H     2.31011  -2.98345  -0.10560
H     3.33870  -2.06049  -1.25436
H    -2.44028   0.49757   1.09070
H    -3.35486  -1.03398  -0.67982
H    -2.17746  -0.02981  -1.55730
H    -2.02609  -2.95558  -1.01419
H    -0.81477  -2.00231  -1.90021
H    -0.01106  -3.02529   0.48531
H    -2.38807  -2.18716   1.46858
H    -1.02582  -1.39879   2.34536
