39
Generated by autodE on: 2022-05-29. E = -1087.604010 Ha. Imaginary frequency = -201.7 cm-1
C     3.07725   0.97371  -1.41836
C     2.64048   1.69019  -0.16591
O     2.73973   2.91612  -0.04283
C     2.05442   0.89704   0.90234
N     1.99581  -0.41784   0.83239
C     1.43672  -1.46667   0.69248
C     1.59805  -2.91598   0.80040
C    -0.71691  -0.67831   0.19511
C    -0.81651  -1.42061  -1.10694
F     0.28820  -1.36763  -1.87761
F    -1.05251  -2.73686  -0.88782
F    -1.84406  -0.98500  -1.87215
C    -1.47913  -1.19541   1.41770
C    -2.93951  -0.65849   1.28080
C    -2.76794   0.87353   1.49621
C    -1.22716   1.02243   1.71091
C    -0.93146  -0.25917   2.50895
C    -0.61039   0.69981   0.35240
C    -0.36127   1.70872  -0.68260
C    -0.48743   3.15642  -0.26992
O    -0.09053   1.41584  -1.85118
H     3.92299   0.30275  -1.19565
H     3.38223   1.70962  -2.17325
H     2.25844   0.35299  -1.81099
H     1.85317   1.36322   1.87000
H     2.58913  -3.17964   1.19966
H     0.80983  -3.31489   1.45683
H     1.46077  -3.37093  -0.19180
H    -1.40423  -2.27486   1.59020
H    -3.37980  -0.91045   0.30624
H    -3.57152  -1.10710   2.06128
H    -3.30744   1.21520   2.39229
H    -3.11965   1.47008   0.64261
H    -0.91888   1.97303   2.15914
H     0.13276  -0.40940   2.73329
H    -1.50773  -0.32021   3.44382
H    -1.52541   3.37012   0.03386
H     0.15868   3.37951   0.59128
H    -0.21405   3.80187  -1.11454
