23
Generated by autodE on: 2022-06-16. E = -534.148488 Ha
C     3.87960  -0.02893  -0.26662
N     2.47747  -0.38702  -0.28400
C     1.47631   0.49911  -0.13476
O     1.63504   1.71505   0.03502
C     0.09609  -0.06745  -0.18886
N    -0.11548  -1.32087  -0.36667
O    -1.46571  -1.57431  -0.37066
C    -2.19349  -0.29603  -0.43505
C    -3.48712  -0.43901   0.33003
C    -1.15726   0.73646   0.05203
C    -1.26375   1.16687   1.52001
H     4.36835  -0.30178  -1.21516
H     3.96821   1.05403  -0.12225
H     4.40749  -0.54025   0.55380
H     2.22081  -1.36066  -0.41885
H    -2.39844  -0.12319  -1.50509
H    -3.30515  -0.67146   1.38889
H    -4.06356   0.49631   0.26752
H    -4.09714  -1.24453  -0.10574
H    -1.17574   1.62820  -0.58998
H    -1.22859   0.29871   2.19540
H    -2.20451   1.70829   1.69868
H    -0.42949   1.83544   1.77480
