26
Generated by autodE on: 2022-10-26. E = -557.206156 Ha
C    -3.94643  -2.27568   0.96218
C    -2.67710  -1.44984   0.84860
O    -2.44035  -0.59857   1.75387
C    -1.86791  -1.70754  -0.27227
N    -0.68908  -1.03931  -0.59218
C    -0.08402  -1.45426  -1.87171
C    -0.13023  -0.11569   0.17313
C     1.03537   0.71081  -0.08179
C     1.65892   1.24957   1.07123
C     2.77435   2.07591   0.97157
C     3.29014   2.40990  -0.28612
C     2.66841   1.91556  -1.43724
C     1.55611   1.07892  -1.34521
H    -3.93735  -2.82644   1.91754
H    -4.81658  -1.59877   0.99237
H    -4.07985  -2.99133   0.13882
H    -2.15556  -2.46892  -0.99103
H    -0.38892  -2.48516  -2.07888
H     1.00738  -1.40916  -1.80308
H    -0.43594  -0.80627  -2.68543
H    -0.63796   0.01633   1.12850
H     1.25390   0.99824   2.05426
H     3.24198   2.46635   1.87838
H     4.16273   3.06177  -0.36855
H     3.04790   2.19170  -2.42380
H     1.07815   0.74834  -2.26449
