14
Generated by autodE on: 2022-10-21. E = -5454.941819 Ha
C     2.37151  -2.52416   0.76542
O     1.90050  -1.37897   0.04030
C     0.57026  -1.21035  -0.04222
O    -0.14398  -2.34359  -0.18137
C    -1.12042  -2.69363   0.81395
C     0.03838   0.03539  -0.06071
Br   -1.77916   0.34393  -0.50072
Br    1.10454   1.57442   0.23089
H     3.46533  -2.44267   0.77533
H     2.07405  -3.45926   0.27017
H     1.99115  -2.51400   1.79917
H    -1.06096  -3.78243   0.94808
H    -0.90143  -2.19225   1.76800
H    -2.13003  -2.41980   0.47628
