24
Generated by autodE on: 2022-10-21. E = -721.557481 Ha
C     2.96616  -2.11460  -0.94659
O     2.00607  -1.34817  -0.20525
C     0.91808  -0.94648  -0.86975
O     0.67119  -1.30278  -2.00821
C     0.07086  -0.03348  -0.05762
C     0.66330   1.14601   0.55583
O     0.09441   1.93345   1.30676
O     1.94210   1.32890   0.17782
C     2.62540   2.44992   0.74749
N    -1.27296  -0.27601   0.01968
C    -1.77850  -1.53511  -0.58646
C    -2.16111   0.52346   0.61305
C    -3.52953   0.21190   0.69844
N    -4.67912   0.03542   0.81262
H     3.79445  -2.30863  -0.25550
H     3.32199  -1.54456  -1.81723
H     2.52424  -3.06232  -1.28628
H     2.66221   2.36800   1.84384
H     2.12816   3.39124   0.47080
H     3.64046   2.42384   0.33413
H    -1.14554  -2.36822  -0.26296
H    -2.80322  -1.70818  -0.24968
H    -1.74689  -1.44334  -1.67622
H    -1.80144   1.44592   1.06304
