17
Generated by autodE on: 2022-10-21. E = -422.092813 Ha
C     2.95968   0.20306   0.39130
O     1.78646  -0.52870   0.73957
C     0.68097  -0.21010   0.05411
C     0.41022   0.67702  -0.91910
C    -1.11679   0.52896  -1.10688
C    -1.81396   1.07254   0.16491
C    -1.52258   0.19040   1.12568
C    -0.66153  -0.88153   0.41750
O    -1.27736  -0.89427  -0.88206
H     3.77141  -0.17093   1.02776
H     3.21470   0.04443  -0.66973
H     2.81099   1.28108   0.56919
H     1.04460   1.41574  -1.40207
H    -1.53089   0.83804  -2.07330
H    -2.35733   2.01524   0.22874
H    -1.75611   0.20872   2.18961
H    -0.59997  -1.87661   0.87219
