41
Generated by autodE on: 2022-10-21. E = -1143.636116 Ha. Imaginary frequency = -328.2 cm-1
C    -0.35157   3.68941  -1.17934
O    -0.65968   2.55301  -0.35832
C    -0.70880   1.36921  -0.96861
O    -0.61052   1.24543  -2.17710
C    -0.94514   0.19601  -0.08204
C    -2.06833  -0.64756  -0.60526
O    -2.12978  -1.14675  -1.71099
O    -3.07071  -0.71521   0.28202
C    -4.17935  -1.55805  -0.06260
C     0.78758  -1.30975  -0.74692
C     2.06771  -0.53513  -1.15499
O     3.07653  -1.48237  -0.72227
C     2.60945  -1.50969   0.66417
C     2.66140  -0.01753   1.01096
C     2.34328   0.58403  -0.14879
O     2.25042   1.86462  -0.53544
C     2.77951   2.84357   0.35786
C     1.15387  -1.96302   0.41332
C    -0.52177  -1.00125   1.92841
C    -1.25905  -2.18267   1.66268
N    -1.80089  -3.20557   1.51794
N    -0.67036   0.17401   1.26893
C    -0.22524   1.36572   2.01900
H     0.57959   3.51741  -1.73467
H    -0.23707   4.53309  -0.48937
H    -1.17255   3.88221  -1.88478
H    -3.83561  -2.58839  -0.23083
H    -4.67950  -1.18140  -0.96600
H    -4.86198  -1.52180   0.79401
H     0.06189  -1.64105  -1.48410
H     2.15991  -0.26913  -2.21280
H     3.21883  -2.17955   1.28040
H     2.87538   0.40597   1.98884
H     2.66576   3.81616  -0.13578
H     3.84522   2.63914   0.55161
H     2.23902   2.85379   1.31626
H     0.78651  -2.92772   0.75136
H    -0.14597  -0.93226   2.94985
H     0.53024   1.92045   1.46965
H     0.18311   1.03944   2.97941
H    -1.09118   2.01868   2.18885
