28
Generated by autodE on: 2022-07-26. E = -616.392966 Ha
C    -3.88384  -0.39361   1.88707
C    -2.44475  -0.25628   1.41173
O    -1.52816  -0.10071   2.27224
C    -2.21664  -0.24093   0.02359
C    -3.22073  -0.09348  -1.07084
O    -0.93290  -0.00524  -0.43755
C     0.15193  -0.58298  -0.00268
C     0.06731  -1.81488   0.79452
C     1.38746   0.03220  -0.45727
C     1.35257   1.21499  -1.23439
C     2.53129   1.79755  -1.68738
C     3.77022   1.22838  -1.36494
C     3.82009   0.06935  -0.58299
C     2.64428  -0.52547  -0.13113
H    -3.87112  -0.67110   2.95040
H    -4.42223   0.56474   1.79149
H    -4.44832  -1.15086   1.32357
H    -4.23160   0.06211  -0.67440
H    -2.96802   0.77470  -1.70601
H    -3.25113  -0.97592  -1.73626
H     0.96323  -2.43595   0.68963
H    -0.11047  -1.56986   1.85880
H    -0.83552  -2.36787   0.47614
H     0.39188   1.67131  -1.47297
H     2.48806   2.70750  -2.28993
H     4.69437   1.69250  -1.71658
H     4.78313  -0.37478  -0.32234
H     2.70501  -1.42612   0.47955
