28
Generated by autodE on: 2022-05-30. E = -616.391705 Ha
C    -2.05394   1.24288  -1.81813
C    -2.75962   0.04268  -1.20919
O    -3.95993  -0.17967  -1.50015
C    -2.04353  -0.80710  -0.31626
C    -2.67321  -1.98697   0.34244
O    -0.76974  -0.41428  -0.10127
C     0.25313  -0.83013   0.57551
C     0.25659  -2.09709   1.36236
C     1.40939   0.05437   0.52762
C     2.55192  -0.21101   1.31748
C     3.65582   0.64033   1.28175
C     3.65284   1.77113   0.45967
C     2.52635   2.04790  -0.32705
C     1.41880   1.20752  -0.29414
H    -1.71776   1.94666  -1.04126
H    -1.16634   0.94140  -2.39499
H    -2.75818   1.75697  -2.48546
H    -2.53053  -1.98732   1.43469
H    -2.31496  -2.95570  -0.04681
H    -3.74991  -1.92911   0.13547
H    -0.44796  -2.83024   0.96347
H    -0.00010  -1.90659   2.41939
H     1.25883  -2.54423   1.34559
H     2.57783  -1.08193   1.97240
H     4.52603   0.41683   1.90311
H     4.52036   2.43424   0.43165
H     2.51368   2.92908  -0.97274
H     0.55004   1.43392  -0.90967
