41
Generated by autodE on: 2022-05-30. E = -1023.177660 Ha. Imaginary frequency = -220.4 cm-1
C    -3.97337   0.07642   2.04484
C    -2.51595   0.49115   2.09692
O    -1.94753   0.61320   3.19706
C    -1.90184   0.81246   0.82849
C    -2.71253   1.50059  -0.23391
O    -0.58559   1.10739   0.72958
C     0.49687   0.47267   1.11494
C     0.50642  -0.41706   2.30719
C     1.71107   0.95276   0.46089
C     1.64247   1.94236  -0.54837
C     2.78573   2.34105  -1.23412
C     4.02980   1.77109  -0.93429
C     4.11451   0.79973   0.06790
C     2.97371   0.39552   0.76102
C     0.01727  -1.56782  -0.37362
F     0.79272  -2.37163   0.37334
C     0.49592  -1.12810  -1.76273
C     0.06349  -2.24719  -2.74260
C    -1.27147  -2.17550  -2.76828
C    -1.63693  -1.01598  -1.80986
O    -0.50717  -0.13948  -2.03805
C    -1.33862  -1.49501  -0.37459
H    -4.23043  -0.42307   2.98915
H    -4.61248   0.97064   1.94547
H    -4.19626  -0.58708   1.19662
H    -3.59233   0.90254  -0.50909
H    -3.08499   2.48613   0.10280
H    -2.10653   1.65316  -1.13518
H     0.44574   0.18735   3.22651
H    -0.36108  -1.08479   2.30791
H     1.41535  -1.02393   2.33656
H     0.68061   2.39264  -0.79084
H     2.70776   3.10528  -2.01114
H     4.92504   2.08455  -1.47596
H     5.07905   0.34977   0.31440
H     3.06899  -0.36764   1.53265
H     1.51420  -0.73319  -1.84285
H     0.73735  -2.94419  -3.23951
H    -1.99222  -2.80340  -3.29142
H    -2.58858  -0.51059  -1.99145
H    -2.03753  -2.03228   0.26179
