45
Generated by autodE on: 2022-06-20. E = -1013.956583 Ha
C    -3.30436   1.15791  -0.09050
C    -2.92699   0.16899  -0.91193
C    -3.89664  -0.51238  -1.84059
C    -1.51506  -0.36544  -0.97203
C    -1.36876  -1.83071  -0.50074
C    -2.02834  -2.03852   0.80632
N    -2.51165  -2.20887   1.84801
N     0.07848  -1.99736  -0.44138
C     0.69980  -0.74152  -0.01333
C     1.92012  -0.39173  -0.90555
O     2.78285   0.41192  -0.54069
N     1.92951  -1.00526  -2.09305
C     2.97234  -0.77709  -3.07114
C     1.19130  -0.84993   1.43301
O     1.30782  -1.91127   2.01352
O     1.45578   0.32691   1.97904
C     1.91006   0.33524   3.34166
C    -0.43921   0.35247  -0.13597
C    -0.01156   1.66767  -0.71005
C     0.07955   2.84887  -0.07388
C     0.53227   4.08091  -0.81066
C    -0.23194   3.07192   1.38073
H    -4.34176   1.50529  -0.08156
H    -2.61346   1.65679   0.59035
H    -4.01590  -1.57763  -1.57686
H    -4.88891  -0.04040  -1.80626
H    -3.52853  -0.48573  -2.88029
H    -1.19412  -0.37406  -2.02730
H    -1.82026  -2.54069  -1.20878
H     0.37346  -2.76995   0.15504
H     1.19967  -1.69862  -2.23891
H     3.94595  -1.15806  -2.72110
H     3.08520   0.29852  -3.27600
H     2.70763  -1.29035  -4.00362
H     2.04514   1.38993   3.60590
H     1.15932  -0.13025   3.99574
H     2.86260  -0.20646   3.42858
H    -0.83935   0.49616   0.87500
H     0.25067   1.63865  -1.77389
H    -0.23916   4.86986  -0.76686
H     1.43572   4.50545  -0.33821
H     0.75860   3.87229  -1.86664
H     0.67320   3.41165   1.91384
H    -0.97789   3.87774   1.49055
H    -0.60878   2.17961   1.89500
