23
Generated by autodE on: 2022-06-20. E = -351.521383 Ha
C     2.04619   0.12107   3.17803
C     1.79752   0.17937   1.85116
C     2.89891   0.45258   0.85894
C     0.43859  -0.02496   1.35338
C     0.06036   0.00701   0.05079
C    -1.30378  -0.20373  -0.38915
C    -1.76355  -0.18748  -1.66586
C    -0.90704   0.06104  -2.87495
C    -3.21719  -0.42667  -1.96200
H     3.05322   0.26979   3.57757
H     1.24423  -0.07729   3.89582
H     3.86557   0.58819   1.36416
H     2.99823  -0.37538   0.13738
H     2.68608   1.35953   0.26893
H    -0.32634  -0.21947   2.11485
H     0.81760   0.20043  -0.71374
H    -2.03275  -0.39636   0.40739
H    -1.28339   0.93475  -3.43591
H    -0.96789  -0.79610  -3.56872
H     0.15076   0.23581  -2.64022
H    -3.65555   0.43653  -2.49454
H    -3.34196  -1.29453  -2.63437
H    -3.80355  -0.60667  -1.04904
