22
Generated by autodE on: 2022-06-20. E = -662.388037 Ha
C     2.95590  -2.54366   0.35345
N     1.63651  -1.98784   0.14525
C     1.41882  -0.66029   0.21898
O     2.34020   0.14243   0.46748
C     0.03913  -0.19154  -0.00706
N    -0.25301   1.13083   0.04680
C     0.48897   2.20269   0.27638
C    -0.10974   3.47884   0.26393
N    -0.56913   4.55226   0.26115
C    -1.08680  -1.07347  -0.29650
O    -1.02568  -2.29536  -0.38526
O    -2.24039  -0.39991  -0.46332
C    -3.41542  -1.16950  -0.74966
H     3.34049  -2.30851   1.35940
H     2.90087  -3.63380   0.24479
H     3.68015  -2.15219  -0.37944
H     0.83754  -2.58587  -0.05920
H    -1.25149   1.30624  -0.12835
H     1.55222   2.07697   0.46853
H    -3.28838  -1.73023  -1.68673
H    -4.23173  -0.44501  -0.84880
H    -3.62570  -1.86928   0.07185
