45
Generated by autodE on: 2022-06-20. E = -1013.895884 Ha. Imaginary frequency = -359.1 cm-1
C    -3.10123   0.26254   1.35157
C    -3.05767  -0.17164   0.07920
C    -4.24427  -0.83975  -0.56536
C    -1.86230  -0.06678  -0.79202
C    -0.96264  -2.05634  -0.63233
C    -1.66153  -2.62904   0.47732
N    -2.33069  -3.15896   1.26923
N     0.36166  -1.72776  -0.61289
C     0.96547  -0.70823   0.07196
C     2.15084  -0.19354  -0.66907
O     2.37727  -0.62211  -1.81720
N     2.89025   0.75602  -0.08189
C     3.97557   1.42920  -0.76081
C     0.74691  -0.42275   1.48309
O     1.26635   0.50439   2.10498
O    -0.11042  -1.27167   2.05034
C    -0.49342  -1.04402   3.40959
C    -0.81718   0.85461  -0.54271
C    -0.10108   1.48328  -1.62841
C     0.66576   2.60240  -1.54925
C     1.32689   3.16517  -2.77296
C     0.89256   3.38132  -0.28434
H    -4.00623   0.14018   1.95248
H    -2.25006   0.74849   1.83301
H    -3.97394  -1.83729  -0.95049
H    -5.08128  -0.95374   0.13804
H    -4.59344  -0.25436  -1.43350
H    -2.06689  -0.25542  -1.85017
H    -1.25695  -2.54899  -1.56455
H     0.80134  -1.77483  -1.54038
H     2.58936   1.05819   0.84475
H     4.05892   2.45691  -0.38297
H     4.94141   0.92075  -0.59816
H     3.78305   1.45784  -1.84129
H    -0.81384  -0.00379   3.55554
H    -1.32649  -1.73042   3.60090
H     0.34718  -1.26786   4.08275
H    -0.79996   1.35325   0.42641
H    -0.20308   1.00327  -2.60795
H     2.42222   3.20452  -2.63783
H     1.00361   4.20681  -2.95088
H     1.10825   2.57283  -3.67341
H     1.96212   3.62275  -0.17097
H     0.56706   2.85346   0.62015
H     0.36206   4.34983  -0.33268
