29
Generated by autodE on: 2022-07-27. E = -857.979492 Ha
C     2.34500  -0.57555   2.97027
O     1.76450  -0.64869   1.64966
C     0.51501  -0.24801   1.53106
O    -0.20259   0.14835   2.42128
C    -0.00173  -0.34466   0.11426
O    -0.34851   0.72936  -0.49987
C    -0.17252   2.05145  -0.21687
C     0.68796   2.47318   0.80904
N     1.42330   2.82827   1.64667
C    -0.81778   2.98353  -1.10456
C    -1.64435   2.41892  -2.23533
O    -0.68664   4.20318  -0.93008
C    -0.26348  -1.60511  -0.52874
C     0.04702  -2.81951   0.12778
C    -0.22044  -4.03424  -0.49593
C    -0.79395  -4.05908  -1.77196
C    -1.10273  -2.85974  -2.43071
C    -0.84145  -1.64015  -1.82123
H     2.34903   0.46909   3.31043
H     1.76882  -1.19813   3.66817
H     3.36719  -0.95368   2.86591
H    -2.44906   1.77358  -1.85077
H    -1.01968   1.80143  -2.90024
H    -2.07765   3.25014  -2.80618
H     0.49807  -2.81270   1.12078
H     0.02015  -4.96812   0.01559
H    -1.00014  -5.01518  -2.25801
H    -1.54765  -2.88255  -3.42743
H    -1.07765  -0.70576  -2.33128
