29
Generated by autodE on: 2022-06-10. E = -857.980483 Ha
C    -1.14737   3.47066   0.54274
O    -1.07513   2.03402   0.59498
C    -0.26246   1.45434  -0.26901
O     0.35487   2.01310  -1.15001
C    -0.27445  -0.05236  -0.17410
O     0.81342  -0.70792  -0.40740
C     2.11252  -0.24611  -0.27728
C     3.04133  -1.05040  -0.96073
N     3.81663  -1.70070  -1.54713
C     2.41366   0.70057   0.73931
C     3.85633   0.99967   1.05294
O     1.49646   1.25051   1.38627
C    -1.47730  -0.83925  -0.06411
C    -2.76247  -0.25298  -0.16984
C    -3.89789  -1.05151  -0.08742
C    -3.77772  -2.43223   0.10811
C    -2.51093  -3.02273   0.21756
C    -1.36856  -2.23910   0.13171
H    -1.50742   3.79811  -0.44238
H    -1.85392   3.76228   1.32706
H    -0.15425   3.89821   0.73951
H     4.56579   0.41944   0.44985
H     4.03178   2.07407   0.88403
H     4.03517   0.80055   2.12111
H    -2.86947   0.81838  -0.32965
H    -4.88540  -0.59528  -0.17785
H    -4.67446  -3.05176   0.17900
H    -2.42035  -4.09875   0.37804
H    -0.38171  -2.69144   0.23080
