27
Generated by autodE on: 2022-06-10. E = -603.306034 Ha
F     0.73506   2.08510  -1.08662
C     1.10912   1.15028  -0.19803
C     0.34053   0.17592   0.33457
C    -1.06633  -0.14655   0.09929
C    -1.59070  -1.39158   0.50477
C    -2.92925  -1.71773   0.27577
C    -3.78021  -0.80824  -0.35850
C    -3.27600   0.43365  -0.76360
C    -1.93948   0.76191  -0.54115
C     1.34448  -0.70304   1.09049
C     2.17119  -1.46544   0.00665
C     3.00747  -0.32898  -0.65242
C     2.55880   0.94173   0.14681
C     2.37977   0.34230   1.55608
H    -0.94190  -2.11643   0.99875
H    -3.30891  -2.69094   0.59679
H    -4.82797  -1.06248  -0.53492
H    -3.93201   1.15495  -1.25742
H    -1.56387   1.73427  -0.86024
H     0.91097  -1.34366   1.86763
H     1.51698  -1.98657  -0.70666
H     2.82127  -2.21683   0.47950
H     4.08726  -0.49143  -0.51807
H     2.81384  -0.21710  -1.72868
H     3.20375   1.82111   0.02741
H     3.30173  -0.10932   1.95331
H     1.97106   1.06110   2.28099
