56
Generated by autodE on: 2022-06-10. E = -1461.290560 Ha. Imaginary frequency = -234.1 cm-1
C    -0.41147  -0.93739   4.05062
O    -0.58478  -0.99218   2.62582
C    -1.18336   0.04152   2.05246
O    -1.57366   1.02087   2.66108
C    -1.40819  -0.11841   0.59055
C    -1.68369  -1.41399  -0.03914
C    -0.97135  -2.58285   0.30844
C    -1.21646  -3.78265  -0.35895
C    -2.17592  -3.85104  -1.37274
C    -2.89114  -2.69958  -1.72260
C    -2.64656  -1.49483  -1.07068
O    -1.94927   0.91112  -0.04490
C    -1.60824   2.20599  -0.11749
C    -1.22729   3.02438   0.98097
N    -0.88475   3.81750   1.76360
C    -2.11351   2.92650  -1.29985
C    -2.94177   2.17378  -2.30419
O    -1.83925   4.11757  -1.43755
C     0.75301   1.77818  -0.73252
F     1.19508   2.93474  -0.21470
C     0.76347   1.63329  -2.23138
C     2.26557   1.35751  -2.57887
C     2.50450  -0.06144  -1.98661
C     1.12408  -0.41013  -1.33983
C     0.17310   0.22216  -2.37030
C     0.99713   0.53312  -0.13999
C     1.70342   0.31474   1.12569
C     1.78502   1.30690   2.12737
C     2.47152   1.06265   3.31675
C     3.08948  -0.17160   3.54204
C     3.01010  -1.16628   2.56248
C     2.32582  -0.92795   1.37094
H     0.17417  -1.82481   4.31300
H    -1.39154  -0.96261   4.54828
H     0.12754  -0.02504   4.33486
H    -0.20819  -2.54566   1.08036
H    -0.64537  -4.67220  -0.08405
H    -2.36693  -4.79506  -1.88792
H    -3.64790  -2.74124  -2.50914
H    -3.20935  -0.60547  -1.35004
H    -3.79455   1.68099  -1.81291
H    -2.34659   1.38772  -2.79025
H    -3.30030   2.88070  -3.06272
H     0.30085   2.45781  -2.78646
H     2.92647   2.12295  -2.14853
H     2.39497   1.37306  -3.67066
H     3.32144  -0.08801  -1.25303
H     2.73380  -0.79269  -2.77548
H     0.97571  -1.47302  -1.12484
H     0.31350  -0.19253  -3.37832
H    -0.88184   0.14956  -2.09976
H     1.29911   2.26951   1.98310
H     2.51869   1.84481   4.07818
H     3.62310  -0.35898   4.47659
H     3.48308  -2.13732   2.72720
H     2.26809  -1.71870   0.62293
