11
Generated by autodE on: 2022-07-27. E = -434.666304 Ha
C    -1.47830   1.81107   0.44673
C    -1.29426   0.33585   0.32458
O    -2.15405  -0.50451   0.47935
C     0.10329  -0.12901  -0.02931
C     1.21583   0.73649  -0.22730
N     2.09072   1.48732  -0.37673
O     0.26127  -1.39219  -0.15690
O     1.43867  -1.88532  -0.46864
H    -1.19530   2.30191  -0.49944
H    -0.80784   2.20632   1.22809
H    -2.52279   2.03517   0.69384
