46
Generated by autodE on: 2022-06-09. E = -1184.350296 Ha
C    -2.38586   3.72367  -3.18523
N    -1.21000   3.05371  -2.66714
C    -1.30133   2.07410  -1.76188
O    -2.37667   1.66733  -1.30975
C     0.03064   1.38953  -1.35030
C     1.23461   2.35132  -1.31767
O     1.48621   3.08907  -2.28211
N     2.01582   2.29563  -0.23376
C     3.23243   3.07909  -0.12676
C    -0.16378   0.65245  -0.10871
C    -0.28640  -0.28087   0.65154
C    -0.38114  -1.68087   1.05113
C     0.96328  -2.26159   1.52542
O     1.04009  -3.35419   2.04585
O     1.99820  -1.47339   1.27509
C     3.29846  -1.96501   1.64829
C    -1.36542  -1.88678   2.21609
O    -2.35389  -2.58087   2.17349
O    -0.97484  -1.19382   3.28310
C    -1.78741  -1.30064   4.46484
C    -0.84638  -2.46692  -0.21434
C    -0.05873  -2.17768  -1.50704
C    -0.50604  -0.98506  -2.40050
C     0.37909   0.27631  -2.42087
H    -3.07033   3.00755  -3.66658
H    -2.07198   4.46705  -3.92819
H    -2.94338   4.23627  -2.38468
H    -0.26837   3.34265  -2.93848
H     1.78835   1.62773   0.49767
H     3.63297   2.97280   0.88843
H     3.02680   4.14193  -0.32113
H     3.99428   2.74068  -0.84757
H     3.52039  -2.89543   1.10727
H     4.00625  -1.17831   1.36506
H     3.33738  -2.14662   2.73138
H    -1.30663  -0.66696   5.21833
H    -2.80660  -0.94463   4.25853
H    -1.82213  -2.34451   4.80745
H    -0.77901  -3.53619   0.03479
H    -1.91201  -2.23885  -0.36213
H     1.01756  -2.09158  -1.28116
H    -0.15444  -3.08877  -2.11690
H    -0.52153  -1.35061  -3.43864
H    -1.54752  -0.70889  -2.17055
H     0.33070   0.76114  -3.40607
H     1.42926  -0.01068  -2.25483
