24
Generated by autodE on: 2022-06-20. E = -664.309503 Ha
C     4.40492   0.17138   0.64252
N     3.77048   1.40855   0.22390
C     2.44965   1.62786   0.21541
O     1.88143   2.64472  -0.19162
C     1.60252   0.58174   0.82420
N     0.81609  -0.23943   0.45085
C    -0.16766  -1.03465   0.13232
C     0.10440  -2.42997   0.08043
N     0.30894  -3.57674   0.03184
C    -1.50850  -0.49315  -0.14811
C    -1.71174   0.89753  -0.24223
C    -2.98769   1.40320  -0.48875
C    -4.07482   0.53760  -0.65503
C    -3.87495  -0.84429  -0.57316
C    -2.60341  -1.36010  -0.32097
H     5.38261   0.39439   1.08963
H     3.78804  -0.32717   1.40504
H     4.54923  -0.52432  -0.19929
H     4.33835   2.13295  -0.21125
H    -0.86815   1.58309  -0.13861
H    -3.13200   2.48374  -0.55990
H    -5.07147   0.93841  -0.85248
H    -4.71600  -1.52916  -0.70344
H    -2.45958  -2.44050  -0.25145
