36
Generated by autodE on: 2022-06-20. E = -1045.960538 Ha. Imaginary frequency = -226.1 cm-1
C     5.14751   0.96660   1.27490
N     3.95677   0.79242   0.46003
C     2.73687   0.82400   0.99918
O     2.46474   1.00249   2.18650
C     1.60975   0.54068   0.07764
N     0.67843   1.13292  -0.40537
C    -0.46185   1.11063  -1.07514
C    -0.38779   1.27985  -2.49006
N    -0.34902   1.41635  -3.64582
C    -1.74358   1.14753  -0.37150
C    -2.94981   1.09607  -1.09461
C    -4.16712   1.03730  -0.41566
C    -4.19541   1.03269   0.98158
C    -2.99576   1.09050   1.70413
C    -1.77564   1.14831   1.03765
C     0.23645  -1.56157  -1.37740
C    -1.09190  -1.83419  -0.84962
O    -2.10507  -1.87437  -1.55962
C    -1.20346  -2.07539   0.61347
C    -0.12124  -2.15525   1.40883
C     1.24395  -1.99838   0.86024
O     2.23992  -2.20465   1.55075
C     1.35056  -1.56580  -0.55870
H     6.02435   0.97111   0.61772
H     5.24636   0.14644   2.00327
H     5.10708   1.91732   1.82652
H     4.04792   0.58118  -0.53077
H    -2.93261   1.08756  -2.18578
H    -5.09848   0.99252  -0.98409
H    -5.15009   0.98774   1.51011
H    -3.01383   1.09124   2.79608
H    -0.84321   1.18926   1.60382
H     0.32598  -1.42703  -2.45647
H    -2.21717  -2.20198   1.00068
H    -0.19501  -2.36067   2.47939
H     2.35864  -1.57290  -0.98078
