30
Generated by autodE on: 2022-10-06. E = -663.596195 Ha
C     2.49256   1.60927  -1.48824
N     1.19432   1.33072  -0.87513
C     0.99771  -0.01738  -0.41893
N     2.05298  -0.69372   0.28819
N     0.70736  -0.86885  -1.65091
C    -0.79526  -0.99613  -1.72273
N    -1.21220  -1.13298  -0.36132
C    -1.19700  -2.51803   0.13482
C    -0.40623  -0.15319   0.38141
C    -0.15802  -0.58195   1.76092
N     0.00956  -0.87196   2.87007
C    -1.12701   1.24212   0.53946
C    -2.47384   1.43716  -0.07125
O    -0.57314   2.07962   1.22128
H     2.64338   0.99416  -2.38870
H     2.50865   2.66047  -1.80538
H     3.34937   1.44089  -0.81245
H     1.05342   1.95859  -0.08496
H     2.25174  -0.19497   1.15788
H     2.91460  -0.66747  -0.26177
H     1.10196  -0.44489  -2.50140
H     1.13779  -1.79444  -1.52380
H    -1.15308  -0.06994  -2.18659
H    -1.06897  -1.85659  -2.34063
H    -0.18642  -2.96174   0.17623
H    -1.82137  -3.12415  -0.53382
H    -1.64161  -2.55872   1.13670
H    -2.47964   1.18694  -1.14127
H    -2.78109   2.47995   0.07730
H    -3.19285   0.76417   0.42245
