13
Generated by autodE on: 2022-10-06. E = -245.298505 Ha
C     1.93665   0.38520  -0.12427
N     0.80325  -0.45889   0.21296
C    -0.47091  -0.10258   0.03372
N    -0.77165   1.07976  -0.50739
N    -1.45151  -0.93460   0.39709
H     1.96020   0.61726  -1.20101
H     2.85480  -0.15561   0.13083
H     1.92003   1.32933   0.44339
H     0.97809  -1.36335   0.63890
H    -0.04772   1.71611  -0.81867
H    -1.74079   1.34199  -0.65163
H    -1.23610  -1.82306   0.83575
H    -2.42280  -0.67072   0.27464
