31
Generated by autodE on: 2022-06-17. E = -859.109921 Ha. Imaginary frequency = -384.9 cm-1
C    -3.67061  -0.06715  -0.26928
C    -2.39698  -0.85954  -0.11684
C    -2.57355  -2.27488   0.37068
C    -1.26593  -0.60386  -0.93643
C    -1.14989   0.45097  -1.92352
O    -0.22430   0.51653  -2.73162
C     0.23597   0.24392   0.74163
C     1.57845  -0.09026   0.33953
C     2.15273  -1.31933   0.72711
C     3.43317  -1.64846   0.29657
C     4.14689  -0.76917  -0.52995
C     3.57663   0.44514  -0.92354
C     2.29739   0.79315  -0.49282
O    -0.44535  -0.51473   1.59688
N    -1.74860  -0.06900   1.65856
O    -1.65511   1.26953   1.31690
C    -0.47326   1.51736   0.64367
O    -0.20395   2.58954   0.15649
H    -4.29164  -0.16662   0.63276
H    -4.24475  -0.47631  -1.11706
H    -3.49512   0.99863  -0.45973
H    -3.23867  -2.31470   1.24525
H    -1.60859  -2.73581   0.62578
H    -3.03357  -2.87551  -0.43223
H    -0.51513  -1.39205  -1.03069
H    -1.93369   1.23973  -1.91477
H     1.58895  -2.00346   1.36314
H     3.88033  -2.59691   0.60116
H     5.15097  -1.03496  -0.86795
H     4.13227   1.12781  -1.56961
H     1.84897   1.73837  -0.79501
