54
Generated by autodE on: 2022-06-05. E = -1322.983195 Ha
C    -3.64514   3.06195   1.99472
O    -2.88781   2.69189   0.82941
C    -1.79909   1.96523   1.02875
O    -1.37511   1.66873   2.12695
C    -1.14062   1.48667  -0.28155
C    -1.45045   2.42160  -1.43897
O     0.26099   1.46757  -0.10511
C     0.73901   0.27879   0.50300
C     0.92760   0.50699   2.02692
C     1.51785   1.82436   2.44744
O     0.76718  -0.40681   2.81412
C     2.17374   0.04774   0.00198
C     2.70934   0.84520  -1.01843
C     4.02056   0.64765  -1.46027
C     4.82016  -0.34054  -0.88125
C     4.30173  -1.12160   0.15576
C     2.99337  -0.92211   0.59972
C    -0.32224  -0.85817   0.11583
C    -0.69776  -1.76205   1.30917
C     0.16412  -2.96377   1.61379
O    -1.73126  -1.57814   1.92778
C     0.13363  -1.69353  -1.12221
C    -0.94085  -2.75429  -1.46964
C    -2.08339  -1.91613  -2.10486
C    -1.54545  -0.47647  -2.00862
C    -0.05428  -0.70109  -2.28203
C    -1.54193  -0.02841  -0.50339
C    -2.88805  -0.23694   0.03390
N    -4.01551  -0.28366   0.30867
H    -3.02468   3.65348   2.68190
H    -4.48772   3.65824   1.62779
H    -4.00748   2.15777   2.50441
H    -0.86948   2.13220  -2.32243
H    -1.17779   3.44972  -1.16261
H    -2.51979   2.39685  -1.68255
H     1.18315   2.05938   3.46628
H     1.26883   2.63802   1.75872
H     2.61408   1.70518   2.46632
H     2.09939   1.62655  -1.46826
H     4.41754   1.27600  -2.26101
H     5.84494  -0.49385  -1.22726
H     4.91952  -1.88733   0.63029
H     2.61694  -1.52148   1.42740
H    -0.32969  -3.85557   1.19636
H     1.17100  -2.90438   1.18988
H     0.21627  -3.09208   2.70232
H     1.13847  -2.10820  -0.99957
H    -1.28347  -3.33667  -0.60624
H    -0.51896  -3.46891  -2.19047
H    -3.05016  -2.05146  -1.60214
H    -2.22754  -2.17036  -3.16450
H    -2.07580   0.23516  -2.64914
H     0.55537   0.20333  -2.21629
H     0.11672  -1.17195  -3.26115
