23
Generated by autodE on: 2022-06-05. E = -517.871701 Ha
C     2.75705  -1.23992   0.05783
C     1.88853  -0.01599   0.10024
O     2.31869   1.08286   0.43391
C     0.46705  -0.18293  -0.28447
C    -0.51577   0.74329  -0.10773
C    -0.40289   2.03599   0.46362
N    -0.39610   3.11071   0.91419
C    -1.84160   0.08600  -0.46659
C    -2.11131  -0.94121   0.68190
C    -0.99436  -2.00048   0.47394
C    -0.21395  -1.44952  -0.76687
C    -1.37092  -0.85316  -1.59606
H     2.31176  -2.04298   0.66741
H     2.81155  -1.61979  -0.97583
H     3.76496  -1.00220   0.42093
H    -2.66641   0.77734  -0.67198
H    -3.11178  -1.37756   0.54912
H    -2.07768  -0.46235   1.67018
H    -1.41451  -2.98749   0.23261
H    -0.33839  -2.11516   1.34791
H     0.43822  -2.18072  -1.25611
H    -1.02671  -0.31302  -2.48993
H    -2.13017  -1.59774  -1.87667
