31
Generated by autodE on: 2022-06-05. E = -805.033796 Ha
C     4.65823   0.52150   0.50514
O     3.24622   0.39519   0.30027
C     2.71652  -0.81670   0.53474
O     3.37236  -1.77280   0.92593
C     1.27535  -0.88542   0.28384
C     0.52000  -2.14577   0.43230
O     0.76730   0.22258  -0.18029
C    -0.44482   0.62989  -0.52822
C    -0.41099   1.87006  -1.29430
C     0.94236   2.47697  -1.58814
O    -1.45345   2.39438  -1.70242
C    -1.68208   0.00152  -0.06237
C    -1.84221  -0.34037   1.29699
C    -3.04790  -0.87210   1.75689
C    -4.11320  -1.06790   0.87341
C    -3.96942  -0.71857  -0.47485
C    -2.76918  -0.18441  -0.94062
H     5.20936  -0.16223  -0.15739
H     4.90600   1.56178   0.26427
H     4.91937   0.30223   1.55093
H    -0.15337  -2.14398   1.30784
H    -0.11260  -2.31990  -0.45334
H     1.23385  -2.97049   0.54616
H     0.79442   3.43760  -2.09788
H     1.52177   2.62621  -0.66471
H     1.53396   1.80641  -2.23150
H    -1.02788  -0.15802   2.00060
H    -3.15599  -1.12813   2.81334
H    -5.05526  -1.48701   1.23427
H    -4.79854  -0.86960  -1.17008
H    -2.66026   0.07928  -1.99251
