31
Generated by autodE on: 2022-07-27. E = -805.023950 Ha
C    -4.51240   1.16904   0.91303
O    -3.39520   1.60034   0.12822
C    -2.23886   0.93258   0.31198
O    -2.12963   0.00011   1.10603
C    -1.21903   1.39457  -0.60514
C    -1.48362   2.35501  -1.70981
O    -0.05401   0.77036  -0.68246
C     0.59277  -0.00652   0.17583
C     0.44343   0.16275   1.63279
C     0.11781   1.53285   2.18032
O     0.74092  -0.74915   2.40249
C     1.57193  -0.87956  -0.45364
C     1.51277  -1.09633  -1.85195
C     2.45107  -1.90350  -2.48967
C     3.46440  -2.52810  -1.75352
C     3.53021  -2.33007  -0.36952
C     2.60233  -1.51748   0.27769
H    -5.33494   1.85081   0.66710
H    -4.27856   1.22762   1.98632
H    -4.79082   0.13562   0.65861
H    -2.43824   2.13671  -2.21366
H    -1.54730   3.39053  -1.33158
H    -0.66438   2.30817  -2.44057
H     0.94858   1.80851   2.84866
H    -0.00859   2.31286   1.41756
H    -0.79815   1.47690   2.78673
H     0.71319  -0.63486  -2.43223
H     2.38375  -2.05740  -3.56921
H     4.19459  -3.16813  -2.25386
H     4.31933  -2.81017   0.21389
H     2.67533  -1.36909   1.35295
