54
Generated by autodE on: 2022-06-05. E = -1322.905675 Ha. Imaginary frequency = -172.3 cm-1
C    -3.63959   3.05592   1.92510
O    -2.72270   2.90054   0.83209
C    -1.62434   2.17398   1.06977
O    -1.38767   1.65487   2.15295
C    -0.79895   2.04523  -0.12986
C    -1.10454   2.78361  -1.38679
O     0.42354   1.54353  -0.06435
C     1.05272   0.70558   0.74780
C     0.98718   0.87340   2.25011
C     1.25066   2.27034   2.75442
O     0.97595  -0.08689   2.99999
C     2.30647   0.17888   0.19824
C     2.76922   0.59103  -1.07159
C     3.93851   0.05942  -1.60859
C     4.67873  -0.89164  -0.89632
C     4.24453  -1.28980   0.37166
C     3.07861  -0.75790   0.92064
C    -0.70306  -1.10410  -0.02655
C    -0.75959  -1.72050   1.31684
C     0.19545  -2.84901   1.59516
O    -1.59644  -1.36876   2.14489
C     0.03454  -1.69869  -1.21934
C    -0.93618  -2.78975  -1.78685
C    -2.10748  -1.94887  -2.37058
C    -1.65633  -0.48023  -2.08777
C    -0.13871  -0.60368  -2.28830
C    -1.73831  -0.33862  -0.56690
C    -2.99785  -0.09227   0.04118
N    -4.07383   0.12568   0.43258
H    -4.46948   3.65645   1.53551
H    -3.15065   3.57830   2.76019
H    -4.00521   2.07724   2.26220
H    -2.16074   2.65504  -1.65951
H    -0.92357   3.86638  -1.26592
H    -0.47192   2.41516  -2.20427
H     2.33885   2.33921   2.92801
H     0.96931   3.05733   2.04451
H     0.73371   2.41710   3.71247
H     2.21393   1.34448  -1.62874
H     4.27819   0.39429  -2.59137
H     5.59281  -1.31039  -1.32290
H     4.81961  -2.02129   0.94379
H     2.75872  -1.07365   1.91176
H     0.18100  -3.09396   2.66460
H     1.21516  -2.60395   1.27019
H    -0.12117  -3.73383   1.01728
H     1.05243  -2.05004  -1.02133
H    -0.42120  -3.36114  -2.57292
H    -1.26073  -3.49886  -1.01321
H    -2.21076  -2.09648  -3.45544
H    -3.07721  -2.17582  -1.90489
H    -2.19310   0.28755  -2.65617
H     0.40775   0.31773  -2.08062
H     0.12321  -0.95653  -3.29615
