21
Generated by autodE on: 2022-06-16. E = -740.248818 Ha
C     4.09558  -0.80330   0.09305
O     2.68760  -0.74883   0.39650
C     1.88645  -0.32793  -0.56611
O     2.21569   0.00695  -1.67845
C     0.43924  -0.36697  -0.11034
C    -0.24896  -1.73755  -0.00306
C    -1.73616  -1.30757  -0.03677
C    -1.57408   0.23951  -0.14946
C    -2.70103   0.99955  -0.65466
N    -3.61808   1.59376  -1.03907
O    -0.39667   0.38191  -0.96032
C    -1.01027   0.70779   1.21186
O    -1.53809   1.26448   2.12989
O     0.28008   0.29966   1.17934
H     4.58249  -1.17463   1.00106
H     4.46477   0.20029  -0.15972
H     4.27254  -1.48826  -0.74780
H     0.02270  -2.35207  -0.87019
H     0.04805  -2.24829   0.92000
H    -2.25453  -1.67313  -0.93124
H    -2.30488  -1.58587   0.85866
