23
Generated by autodE on: 2022-06-20. E = -351.521383 Ha
C     3.68496   0.13136   0.83915
C     2.58086  -0.12551   0.10377
C     2.67978  -0.73892  -1.26961
C     1.25801   0.19369   0.63702
C     0.07805  -0.00948  -0.00120
C    -1.20872   0.32672   0.57310
C    -2.42755   0.16046  -0.00006
C    -3.67994   0.56168   0.72680
C    -2.65082  -0.41703  -1.36890
H     3.60973   0.57665   1.83604
H     4.68664  -0.09705   0.46450
H     3.72639  -0.92843  -1.54660
H     2.23344  -0.07954  -2.03250
H     2.12979  -1.69341  -1.31897
H     1.24017   0.63500   1.64084
H     0.08809  -0.44829  -1.00253
H    -1.17895   0.76180   1.57942
H    -3.46801   0.97561   1.72355
H    -4.35864  -0.30228   0.84388
H    -4.24381   1.31543   0.14813
H    -1.72522  -0.70091  -1.88602
H    -3.29746  -1.31010  -1.30598
H    -3.19128   0.30664  -2.00446
