45
Generated by autodE on: 2022-06-20. E = -943.413307 Ha. Imaginary frequency = -300.7 cm-1
C     1.52855   2.07905   2.05283
O     0.59153   1.02338   1.82282
C    -0.31495   1.22328   0.83774
O    -0.27535   2.21682   0.11869
C    -1.26928   0.13067   0.74505
C    -2.43513   0.08098  -0.13830
C    -2.64967   1.03440  -1.15956
C    -3.74302   0.92369  -2.02021
C    -4.65416  -0.12946  -1.89442
C    -4.45422  -1.07893  -0.88617
C    -3.36554  -0.97781  -0.02221
N    -1.06920  -0.89075   1.58388
C    -0.67218  -1.97294   1.88510
C     0.47021  -2.90071   0.14634
C     0.38317  -2.02114  -0.90661
C    -0.70870  -2.17522  -1.93457
C     1.32945  -0.93812  -1.12746
C     2.37793  -0.58016  -0.33734
C     3.25408   0.52370  -0.65229
C     4.28051   0.99994   0.09955
C     5.09269   2.17586  -0.36238
C     4.68005   0.43994   1.43451
H     1.00478   2.99892   2.35407
H     2.17578   1.73375   2.86732
H     2.12897   2.27788   1.15516
H    -1.94654   1.85508  -1.27677
H    -3.87988   1.67382  -2.80345
H    -5.50754  -0.20990  -2.57144
H    -5.15489  -1.90941  -0.76850
H    -3.23503  -1.73231   0.75521
H    -0.71991  -2.64140   2.74856
H     1.35633  -2.93470   0.78498
H    -0.18180  -3.77750   0.17797
H    -1.17788  -1.21002  -2.18157
H    -0.29414  -2.57683  -2.87704
H    -1.49539  -2.86242  -1.59252
H     1.15573  -0.34263  -2.03186
H     2.56143  -1.13544   0.58680
H     3.04658   1.03393  -1.60088
H     4.77346   2.53886  -1.35047
H     5.01325   3.01116   0.35724
H     6.16639   1.91966  -0.41417
H     5.71806   0.06309   1.40033
H     4.03170  -0.37454   1.78234
H     4.66904   1.23637   2.19910
