56
Generated by autodE on: 2022-06-07. E = -1315.497771 Ha
C    -6.61023  -4.25881   2.02783
N    -6.11615  -3.89251   3.33971
C    -5.84100  -4.81578   4.27728
O    -6.09574  -6.01643   4.12237
C    -5.23140  -4.28994   5.58837
C    -6.38140  -3.76098   6.47349
C    -6.01432  -3.31851   7.89218
C    -4.98857  -2.18797   8.04486
C    -5.18961  -0.93218   7.19144
C    -4.91194  -1.05063   5.69033
F    -4.52784   0.18967   5.23067
F    -6.08854  -1.28984   4.98703
C    -3.88556  -2.07929   5.30471
C    -4.03436  -3.41385   5.29805
C    -2.73188  -4.08681   4.85590
C    -2.28689  -5.19120   5.82463
C    -2.83425  -4.66128   3.42951
N    -1.77186  -2.96830   4.92323
C    -2.46814  -1.67170   4.92071
C    -2.44303  -1.13743   3.46867
C    -1.09869  -0.78597   2.87612
O    -3.45479  -1.10094   2.78906
C    -1.84448  -0.70133   5.93110
C    -1.72337   0.67151   5.68112
C    -1.20534   1.52949   6.65603
C    -0.81171   1.02609   7.89912
C    -0.93483  -0.34327   8.15825
C    -1.44241  -1.19867   7.17813
H    -7.50858  -4.88851   2.10940
H    -5.85205  -4.81941   1.45472
H    -6.86571  -3.34645   1.47453
H    -5.82112  -2.93439   3.50131
H    -4.84704  -5.19391   6.07942
H    -6.91509  -2.95571   5.95919
H    -7.10121  -4.59127   6.55545
H    -6.95444  -3.00913   8.38047
H    -5.64595  -4.18898   8.46148
H    -3.97248  -2.57076   7.87001
H    -5.00300  -1.86367   9.09772
H    -4.48564  -0.16539   7.54711
H    -6.20552  -0.51940   7.30291
H    -2.29132  -4.82592   6.86299
H    -1.26232  -5.50570   5.57284
H    -2.93470  -6.07782   5.75709
H    -1.83846  -5.00607   3.10725
H    -3.51222  -5.52543   3.38806
H    -3.18874  -3.90173   2.71896
H    -1.04895  -3.03365   4.21006
H    -0.90751  -1.45631   2.02313
H    -1.14635   0.23979   2.47942
H    -0.27114  -0.85771   3.59278
H    -2.04818   1.08891   4.72662
H    -1.11330   2.59705   6.44218
H    -0.41027   1.69728   8.66215
H    -0.63214  -0.74733   9.12741
H    -1.52956  -2.26856   7.37123
