29
Generated by autodE on: 2022-07-27. E = -596.562053 Ha
C    -0.78886   2.25753  -1.97108
C    -1.14340   0.80583  -1.73258
O    -1.94182   0.24275  -2.53967
C    -0.56916   0.08373  -0.65097
N    -0.93839  -1.26334  -0.69479
C    -0.91385  -2.25553   0.15468
C    -0.47631  -2.09681   1.56801
C    -1.35875  -3.59837  -0.31859
C     0.46398   0.57506   0.27271
C     0.30166   1.78484   0.97913
C     1.30637   2.27187   1.81791
C     2.49570   1.55556   1.98837
C     2.67180   0.34988   1.29961
C     1.67498  -0.13005   0.44949
H     0.19735   2.53855  -1.57925
H    -0.82452   2.44662  -3.05440
H    -1.53909   2.91351  -1.49818
H    -1.40179  -1.44081  -1.59945
H    -0.73101  -1.10405   1.96339
H     0.61681  -2.21726   1.66602
H    -0.95123  -2.87250   2.18523
H    -0.53556  -4.32598  -0.20935
H    -2.18918  -3.96711   0.30657
H    -1.67471  -3.58147  -1.37143
H    -0.63419   2.33777   0.87980
H     1.15225   3.21194   2.35392
H     3.27781   1.93217   2.65175
H     3.59946  -0.21628   1.41646
H     1.83851  -1.06016  -0.09939
