56
Generated by autodE on: 2022-06-07. E = -1315.405999 Ha. Imaginary frequency = -321.0 cm-1
C    -5.39120  -4.57492   1.81128
N    -5.41058  -4.02090   3.15003
C    -5.82151  -4.74595   4.20525
O    -6.32896  -5.86724   4.08713
C    -5.70693  -4.08173   5.58633
C    -7.08114  -3.44506   5.91383
C    -7.29679  -2.95184   7.34716
C    -6.37324  -1.85431   7.90481
C    -6.12136  -0.64633   6.98104
C    -4.71112  -0.62412   6.40831
F    -3.82881  -0.37768   7.45099
F    -4.58387   0.46612   5.57107
C    -4.31618  -1.87330   5.74510
C    -4.62417  -3.07807   5.63296
C    -2.63986  -4.08761   5.27451
C    -2.20715  -3.98604   6.70519
C    -2.84797  -5.47676   4.74941
N    -2.28009  -3.16394   4.36025
C    -2.16567  -1.80318   4.56095
C    -2.73773  -1.07207   3.43048
C    -2.44527   0.38815   3.20789
O    -3.47737  -1.67716   2.62568
C    -1.10218  -1.27435   5.44025
C    -1.18491  -0.00579   6.04778
C    -0.14510   0.47705   6.84307
C     1.00187  -0.29340   7.06327
C     1.09936  -1.55404   6.46669
C     0.06645  -2.03377   5.65993
H    -6.40558  -4.83387   1.46997
H    -4.77474  -5.48823   1.76421
H    -4.96779  -3.82706   1.12938
H    -4.90524  -3.14707   3.30091
H    -5.50495  -4.90241   6.29240
H    -7.24543  -2.62381   5.19786
H    -7.85028  -4.20408   5.69885
H    -8.33588  -2.58243   7.39238
H    -7.25235  -3.81478   8.03340
H    -5.40625  -2.28928   8.19959
H    -6.82591  -1.49395   8.84133
H    -6.24019   0.30388   7.52424
H    -6.82322  -0.62551   6.13424
H    -2.23687  -2.96118   7.08673
H    -1.17490  -4.36793   6.80126
H    -2.85632  -4.61999   7.32555
H    -1.90690  -6.04659   4.84529
H    -3.60431  -6.00857   5.34139
H    -3.14390  -5.47959   3.69164
H    -2.64308  -3.36223   3.42346
H    -1.39620   0.63868   3.41726
H    -2.69333   0.63486   2.16671
H    -3.07535   1.00221   3.86716
H    -2.08082   0.59705   5.92117
H    -0.23840   1.46289   7.30564
H     1.81073   0.08571   7.69219
H     1.99104  -2.16696   6.62063
H     0.16663  -3.00857   5.18032
