30
Generated by autodE on: 2022-10-06. E = -609.374798 Ha. Imaginary frequency = -462.6 cm-1
C     3.13370  -1.40983   0.18517
N     2.34089  -0.19517   0.24683
C     1.26112   0.00541  -0.61024
N     1.30379  -0.52286  -1.90564
N     0.68867   1.25968  -0.52119
C    -1.61610   0.86204  -0.22012
C    -2.32187   1.48326  -1.37549
C    -1.65750   1.55277   1.03352
N    -1.76721   2.21044   1.98840
O    -1.30194  -0.39263  -0.32754
C    -0.29551  -1.07603   0.32174
C    -0.11340  -0.84665   1.79182
C    -0.31180  -2.49897  -0.15226
H     3.63376  -1.56348  -0.78947
H     3.91280  -1.35325   0.95704
H     2.51979  -2.29438   0.40137
H     2.89697   0.64738   0.36857
H     0.39258  -0.50576  -2.36463
H     1.66720  -1.47345  -1.93192
H     0.98361   1.84052   0.26122
H     0.56137   1.77060  -1.39291
H    -2.07978   0.93135  -2.29339
H    -2.01522   2.53505  -1.48006
H    -3.41384   1.46891  -1.21582
H    -1.05121  -1.07645   2.32829
H     0.19504   0.17403   2.04509
H     0.66380  -1.53023   2.15671
H    -0.38671  -2.55246  -1.24751
H     0.59676  -3.02084   0.17224
H    -1.17571  -3.03526   0.27898
