24
Generated by autodE on: 2022-06-17. E = -443.787633 Ha
C    -3.30151  -0.10622   0.62688
N    -2.04355   0.25975   0.32179
C    -1.83710   1.72279   0.24765
C    -1.03986  -0.60252   0.00884
C    -1.44213  -2.03552  -0.11219
C     0.36061  -0.20477  -0.09102
C     0.96371   0.77265   0.74242
C     2.31413   1.10271   0.62122
C     3.12820   0.45928  -0.31677
C     2.56265  -0.53000  -1.13187
C     1.21261  -0.85521  -1.02261
H    -4.04485   0.67718   0.74684
H    -3.55436  -1.15276   0.75912
H    -1.65174   2.13622   1.24691
H    -2.75015   2.17261  -0.15963
H    -0.99846   1.95664  -0.41325
H    -0.60690  -2.66361  -0.44238
H    -2.28745  -2.16314  -0.81802
H    -1.79676  -2.44392   0.85670
H     0.37685   1.25645   1.52290
H     2.73926   1.85981   1.28577
H     4.18636   0.71569  -0.40513
H     3.17980  -1.04781  -1.87109
H     0.79578  -1.61477  -1.68715
