24
Generated by autodE on: 2022-07-27. E = -443.782098 Ha
C    -2.06954  -1.56103   0.14283
N    -1.57996  -0.93820  -0.93906
C    -2.30202  -1.24480  -2.19558
C    -0.54460  -0.05034  -1.02050
C    -0.38343   0.75215  -2.28658
C     0.32482   0.23820   0.11274
C     0.94774   1.51323   0.21672
C     1.84592   1.81485   1.23914
C     2.17888   0.85945   2.20590
C     1.59071  -0.40841   2.12042
C     0.67822  -0.71111   1.11134
H    -1.69840  -1.31568   1.13166
H    -2.91265  -2.23197   0.00917
H    -1.60220  -1.62130  -2.95106
H    -3.05866  -2.00738  -1.99192
H    -2.79408  -0.34154  -2.57736
H    -1.09124   1.60167  -2.36615
H    -0.51052   0.15034  -3.19749
H     0.62850   1.17486  -2.33644
H     0.70863   2.28861  -0.51229
H     2.28675   2.81456   1.28350
H     2.87911   1.09746   3.00977
H     1.84656  -1.17923   2.85271
H     0.26375  -1.71815   1.07646
