18
Generated by autodE on: 2022-06-17. E = -235.968070 Ha
C     1.67131  -0.51933   0.90719
C     0.63821   0.21067   0.08281
C     1.20262   1.46737  -0.53512
C    -0.63823  -0.21048  -0.08259
C    -1.67124   0.51905  -0.90749
C    -1.20267  -1.46720   0.53531
H     1.30554  -1.43800   1.38115
H     2.54234  -0.78618   0.28197
H     2.06145   0.13911   1.70404
H     2.07342   1.22480  -1.17044
H     1.58138   2.14492   0.25116
H     0.48836   2.03104  -1.14704
H    -1.30596   1.43824  -1.38082
H    -2.06002  -0.13947  -1.70496
H    -2.54315   0.78480  -0.28303
H    -2.07452  -1.22470   1.16917
H    -0.48892  -2.03008   1.14854
H    -1.57996  -2.14543  -0.25112
