39
Generated by autodE on: 2022-05-31. E = -1610.431873 Ha
C    -0.19761  -0.71846  -3.39911
C     0.75267  -1.47725  -2.52130
O     1.33565  -2.47932  -2.88239
C     1.06476  -0.87052  -1.12800
C     2.12313  -1.77724  -0.39704
C     1.70754  -3.06815   0.22840
O     3.26398  -1.35977  -0.34987
N     1.65119   0.46048  -1.35834
N     1.17167   1.25325  -0.25011
C     1.68934   2.44948  -0.03714
N     2.20240   3.48811   0.11692
C     0.02996   0.65542   0.30287
C    -0.14753  -0.56958  -0.24778
C    -1.29198  -1.54486  -0.11786
F    -1.35503  -2.04811   1.16877
F    -0.97594  -2.64889  -0.88730
C    -2.66770  -1.07413  -0.58102
C    -3.05861   0.38234  -0.35589
C    -3.21019   0.83514   1.09465
C    -1.96274   0.76302   1.98144
C    -0.69865   1.41243   1.39323
Cl    0.52807   1.55983   2.78285
C    -0.99632   2.78813   0.97222
N    -1.29515   3.85977   0.64698
H    -0.91269  -0.11276  -2.82818
H    -0.71952  -1.41964  -4.06429
H     0.39844  -0.03054  -4.02150
H     0.97768  -2.87580   1.02987
H     2.58964  -3.56919   0.64671
H     1.21502  -3.71155  -0.51284
H     2.66468   0.34745  -1.21322
H    -2.68549  -1.27124  -1.66217
H    -3.39366  -1.75654  -0.11083
H    -4.02939   0.52675  -0.85421
H    -2.35882   1.04022  -0.89724
H    -3.58153   1.87197   1.09315
H    -3.98471   0.22825   1.59066
H    -1.70238  -0.26409   2.25376
H    -2.17110   1.29878   2.91693
