18
Generated by autodE on: 2022-05-31. E = -547.735309 Ha
C     2.68830  -1.41309  -0.61418
C     1.82157  -0.24039  -0.29206
O     2.29191   0.88613  -0.15278
C     0.33415  -0.39358  -0.12117
N    -0.21229   0.77781   0.16961
N    -1.45499   1.08124   0.39636
C    -1.69816   2.35292   0.67149
N    -2.04814   3.44120   0.92634
C    -0.41849  -1.66910  -0.25596
C    -1.90760  -1.68134  -0.07125
O     0.19552  -2.69595  -0.51849
H     2.36326  -1.88361  -1.55350
H     3.72693  -1.06815  -0.69457
H     2.59675  -2.18109   0.16790
H     0.52775   1.51712   0.20788
H    -2.39392  -0.99765  -0.78350
H    -2.17690  -1.32533   0.93482
H    -2.26525  -2.70799  -0.22109
