18
Generated by autodE on: 2022-07-26. E = -547.735333 Ha
C    -1.82018   0.90218  -1.52900
C    -1.26033  -0.42757  -1.11657
O    -1.70100  -1.47191  -1.58068
C    -0.15582  -0.49094  -0.12285
N     0.45786   0.56493   0.39067
N     0.26129   1.82910   0.16484
C     1.04171   2.66428   0.83177
N     1.66388   3.50659   1.35633
C     0.42824  -1.75628   0.44416
C    -0.08645  -3.09659   0.03241
O     1.34086  -1.64121   1.25869
H    -2.65527   0.72559  -2.21884
H    -2.15862   1.47445  -0.65206
H    -1.04488   1.51132  -2.01832
H     1.19780   0.25768   1.06425
H     0.46137  -3.86724   0.58947
H     0.04544  -3.23780  -1.05037
H    -1.16606  -3.17142   0.22784
