21
Generated by autodE on: 2022-05-31. E = -1062.615701 Ha
N     0.70595  -2.38133  -2.54835
C     0.32752  -2.00845  -1.51799
C    -0.18704  -1.52405  -0.23052
Cl   -0.19299  -2.97694   0.89848
C     0.63868  -0.44733   0.28579
C     0.98153   0.68867   0.52275
C     0.76580   2.13961   0.56962
F     1.90522   2.84250   0.29972
F     0.39429   2.50132   1.84027
C    -0.32868   2.50671  -0.42669
C    -1.63108   1.68971  -0.32042
C    -1.75097   0.36715  -1.12804
C    -1.63467  -0.96933  -0.36708
H    -0.53530   3.57446  -0.25073
H     0.10799   2.41503  -1.43306
H    -1.86302   1.50703   0.74203
H    -2.42778   2.35564  -0.68222
H    -1.05395   0.37703  -1.98348
H    -2.75589   0.35373  -1.57462
H    -2.02155  -0.86312   0.65674
H    -2.22492  -1.74969  -0.86890
