39
Generated by autodE on: 2022-05-31. E = -1610.351896 Ha. Imaginary frequency = -228.5 cm-1
C     0.19768   0.50207  -2.99692
C     0.42805  -0.80997  -2.30177
O    -0.20357  -1.80818  -2.60841
C     1.48117  -0.91617  -1.22905
C     2.26329  -2.19069  -0.95849
C     2.01192  -3.42131  -1.76648
O     3.12960  -2.13328  -0.09883
N     2.11376   0.14881  -0.73821
N     1.46163   1.28167  -0.55493
C     2.16418   2.29440  -0.05599
N     2.69775   3.25870   0.33310
C    -0.21523   0.55583   0.55757
C    -0.22454  -0.67401   0.37730
C    -1.01066  -1.89691   0.63115
F    -0.33809  -3.01951   0.20461
F    -1.13365  -2.06195   1.99345
C    -2.38549  -1.85948  -0.01541
C    -3.40543  -0.89252   0.59909
C    -3.20512   0.62728   0.43523
C    -2.34951   1.33297   1.51030
C    -0.93577   1.74052   1.03496
Cl   -0.03590   2.48840   2.46342
C    -1.00031   2.78315   0.00202
N    -1.08392   3.59892  -0.81717
H    -0.47098   1.12894  -2.38741
H    -0.29366   0.29068  -3.95583
H     1.12805   1.06461  -3.15136
H     2.71854  -4.19973  -1.45290
H     0.97717  -3.76162  -1.63943
H     2.14362  -3.19441  -2.83650
H     2.93133  -0.08015  -0.14701
H    -2.23862  -1.65429  -1.08596
H    -2.77521  -2.88643   0.07252
H    -3.52680  -1.12926   1.66851
H    -4.36582  -1.14652   0.12488
H    -4.20310   1.08650   0.47947
H    -2.82416   0.85213  -0.57543
H    -2.84092   2.25122   1.86123
H    -2.20299   0.68200   2.38407
