56
Generated by autodE on: 2022-06-06. E = -1370.356850 Ha
C     8.76943  -5.97122  -7.57580
N     7.41548  -5.76497  -7.09684
C     6.66589  -4.64380  -7.63770
C     6.83025  -4.49236  -9.10706
N     7.05051  -4.39304 -10.24223
C     5.21704  -4.94912  -7.24313
C     5.14357  -6.25264  -6.92501
C     3.95270  -7.07308  -6.49014
F     2.93645  -6.93412  -7.41401
F     4.29333  -8.40912  -6.58593
C     3.45246  -6.82287  -5.06545
C     3.72395  -5.44580  -4.45869
C     2.90569  -4.27897  -5.01809
C     2.84675  -4.10885  -6.53782
C     4.14938  -3.86202  -7.35975
C     3.70945  -3.83646  -8.84529
C     4.73441  -2.51554  -6.90583
C     4.50461  -1.32940  -7.61726
C     4.99369  -0.10389  -7.15089
C     5.72630  -0.03999  -5.96390
C     5.96692  -1.21570  -5.24565
C     5.47388  -2.43569  -5.71222
C     6.51357  -6.93039  -7.02667
C     6.82086  -7.64112  -5.76107
N     7.07215  -8.15326  -4.75141
C     6.62096  -7.89244  -8.22273
C     7.54040  -8.94946  -8.20638
C     7.70212  -9.76544  -9.32875
C     6.94575  -9.53210 -10.48066
C     6.02445  -8.48081 -10.50096
C     5.86116  -7.66590  -9.37855
H     9.25649  -6.75074  -6.97287
H     9.33605  -5.03792  -7.44306
H     8.82820  -6.26560  -8.63958
H     7.02377  -3.69788  -7.20444
H     3.96371  -7.57644  -4.44920
H     2.37808  -7.06739  -5.05555
H     3.50930  -5.52261  -3.38106
H     4.80206  -5.23479  -4.52900
H     1.86071  -4.40208  -4.68489
H     3.26168  -3.34909  -4.54716
H     2.31779  -4.96033  -6.97965
H     2.21319  -3.23263  -6.74565
H     3.38370  -4.84218  -9.14410
H     4.51542  -3.51622  -9.51704
H     2.85982  -3.15264  -8.98077
H     3.93730  -1.34615  -8.54757
H     4.80083   0.80522  -7.72582
H     6.11061   0.91664  -5.60225
H     6.54285  -1.18538  -4.31762
H     5.68246  -3.34434  -5.14419
H     8.13589  -9.14221  -7.31164
H     8.42164 -10.58691  -9.30034
H     7.06992 -10.17076 -11.35821
H     5.42378  -8.29393 -11.39399
H     5.13063  -6.85700  -9.40524
