33
Generated by autodE on: 2022-06-06. E = -781.216231 Ha
C    -1.81861  -1.07381   1.98881
C    -0.80895  -0.28780   1.12790
C    -1.34653   1.11331   0.79893
C    -1.46601   1.58364  -0.51543
C    -1.94638   2.87200  -0.77652
C    -2.31422   3.71296   0.27546
C    -2.19738   3.25425   1.59227
C    -1.71911   1.96828   1.84994
C    -0.45766  -1.03034  -0.08027
C     0.15660  -1.56194  -0.98145
C     1.42325  -1.87323  -1.64352
F     1.80913  -3.15911  -1.32957
F     1.31465  -1.85425  -3.01209
C     2.49823  -0.88884  -1.19958
C     2.65523  -0.71914   0.32336
C     1.76698   0.32577   1.05604
C     0.56610  -0.18255   1.88018
H    -2.79309  -1.13880   1.48284
H    -1.96129  -0.57902   2.95974
H    -1.44912  -2.09325   2.17380
H    -1.18080   0.93930  -1.34840
H    -2.03086   3.21616  -1.81022
H    -2.68846   4.71935   0.07336
H    -2.48023   3.90185   2.42577
H    -1.63216   1.63086   2.88462
H     2.26638   0.07693  -1.67495
H     3.43968  -1.25608  -1.63920
H     2.55700  -1.70488   0.80884
H     3.70243  -0.42052   0.48121
H     2.42239   0.85331   1.76573
H     1.43018   1.09763   0.34291
H     0.40132   0.48436   2.74003
H     0.79834  -1.17731   2.29340
