23
Generated by autodE on: 2022-07-27. E = -589.039856 Ha
C     1.34944   1.49897   2.59651
N     0.86194   1.16510   1.23617
C     1.23313   2.02141   0.26425
C     0.68171   2.06324  -1.02251
N     0.25501   2.17833  -2.10607
C     0.07951   0.06598   1.11318
C    -0.42978  -0.51560   2.29642
N    -0.87902  -1.03703   3.24174
C    -0.25563  -0.59210  -0.16496
C     0.74180  -0.88009  -1.11740
C     0.42216  -1.57455  -2.28294
C    -0.89110  -1.99724  -2.51732
C    -1.88481  -1.72677  -1.57135
C    -1.57081  -1.03212  -0.40255
H     0.49527   1.80609   3.21390
H     2.06433   2.32361   2.52873
H     1.83120   0.61880   3.03787
H     1.97168   2.77672   0.52470
H     1.77200  -0.56480  -0.94164
H     1.20640  -1.79207  -3.01158
H    -1.13754  -2.53903  -3.43329
H    -2.91197  -2.05561  -1.74496
H    -2.34899  -0.82203   0.33453
