56
Generated by autodE on: 2022-06-06. E = -1370.258786 Ha. Imaginary frequency = -236.8 cm-1
C     8.33382  -5.41374  -6.21487
N     7.67849  -5.98040  -7.40502
C     7.22634  -5.09574  -8.32020
C     6.77329  -5.45078  -9.61594
N     6.42489  -5.61043 -10.71807
C     4.98049  -5.11248  -7.22913
C     5.07721  -6.19656  -6.63490
C     4.56885  -6.97427  -5.49485
F     4.47007  -8.31644  -5.79275
F     5.49475  -6.90992  -4.46468
C     3.23194  -6.47342  -4.97280
C     3.26377  -4.97792  -4.60351
C     2.51431  -4.02340  -5.54607
C     2.77178  -4.08401  -7.05546
C     4.23489  -3.87196  -7.57311
C     4.17036  -3.68589  -9.10348
C     4.85472  -2.63619  -6.90932
C     4.38079  -1.35630  -7.24274
C     4.90262  -0.21531  -6.62854
C     5.91234  -0.32953  -5.66697
C     6.38647  -1.59724  -5.32254
C     5.85802  -2.73759  -5.93636
C     7.16971  -7.24086  -7.29606
C     7.60366  -8.03643  -6.19770
N     7.92793  -8.75198  -5.33573
C     6.80760  -8.02490  -8.52324
C     7.84675  -8.35110  -9.41324
C     7.57792  -9.06302 -10.58175
C     6.27114  -9.47212 -10.86563
C     5.24110  -9.18064  -9.96660
C     5.50624  -8.46573  -8.79686
H     7.63265  -5.44208  -5.36912
H     8.62855  -4.38152  -6.42118
H     9.22315  -6.00824  -5.97297
H     7.57140  -4.06775  -8.21130
H     2.99398  -7.09663  -4.09714
H     2.47465  -6.68719  -5.74187
H     2.82119  -4.85562  -3.60299
H     4.31008  -4.65508  -4.49703
H     1.43115  -4.19057  -5.41362
H     2.70278  -2.99540  -5.19480
H     2.41819  -5.04273  -7.46761
H     2.15142  -3.30169  -7.52191
H     3.84597  -4.61573  -9.59194
H     5.14754  -3.39976  -9.51200
H     3.44829  -2.89859  -9.35896
H     3.59050  -1.24336  -7.98683
H     4.51787   0.76956  -6.90470
H     6.32314   0.56316  -5.18940
H     7.17160  -1.70555  -4.57014
H     6.22902  -3.72014  -5.65020
H     8.86588  -8.02558  -9.19431
H     8.39033  -9.29688 -11.27349
H     6.05690 -10.02381 -11.78398
H     4.22038  -9.50707 -10.17830
H     4.70055  -8.23833  -8.10283
