69
Generated by autodE on: 2022-06-10. E = -1607.879146 Ha
C     3.39452  14.72857  20.78291
N     2.20470  14.48721  19.99258
C     1.07923  15.20475  20.10092
O     0.87490  16.09423  20.92509
C    -0.03262  14.77016  19.10098
C    -1.12255  15.77681  19.12019
N    -2.04225  16.48334  19.14306
N    -0.52280  13.47445  19.53575
C    -0.91058  12.69664  18.36748
C    -0.92896  11.21580  18.76938
C    -2.30621  13.05562  17.96278
N    -3.41150  13.36107  17.78085
C     0.06225  13.25894  17.27925
C     0.46443  14.50006  17.66442
C     1.23371  15.62256  16.93818
C     1.28772  16.96791  17.73290
C     0.47086  16.10216  15.69321
O     0.98735  16.56478  14.69666
O    -0.84816  16.09578  15.89308
C    -1.67352  16.70916  14.89073
C     2.72154  15.29524  16.62830
C     3.12382  13.87147  16.27848
C     2.57019  13.29981  14.97811
C     1.05019  13.17949  14.85510
C     0.27308  12.43812  15.98965
C    -1.14491  12.12414  15.43041
C    -1.76506  10.87019  15.54308
C    -3.06462  10.65931  15.07196
C    -3.77469  11.69634  14.46435
C    -3.16342  12.94529  14.32478
C    -1.86915  13.14962  14.80104
C     1.08864  11.15694  16.26599
C     1.85903  10.98169  17.42181
C     2.67550   9.85807  17.58763
C     2.74781   8.88670  16.58825
C     2.00133   9.05742  15.41750
C     1.18816  10.18038  15.25936
H     4.23634  15.01864  20.13487
H     3.19259  15.54201  21.48980
H     3.68083  13.82816  21.34796
H     2.24747  13.77992  19.26365
H    -1.24347  13.52636  20.25429
H    -1.19582  10.55346  17.94297
H    -1.68617  11.09524  19.55893
H     0.04367  10.92447  19.17564
H     1.79260  17.70928  17.09829
H     0.29657  17.36385  17.97945
H     1.88375  16.87568  18.64655
H    -1.49680  16.25005  13.90835
H    -2.70717  16.53779  15.21102
H    -1.46092  17.78648  14.83629
H     3.28993  15.58103  17.52532
H     3.03442  15.98446  15.82981
H     4.22448  13.85974  16.21136
H     2.88013  13.20848  17.11885
H     2.91243  13.92608  14.13637
H     3.01904  12.30674  14.82160
H     0.83980  12.61924  13.93258
H     0.60408  14.15951  14.68047
H    -1.23768  10.03278  15.99565
H    -3.51944   9.67204  15.18258
H    -4.79118  11.53184  14.09927
H    -3.69664  13.77251  13.85024
H    -1.43021  14.13537  14.69827
H     1.83822  11.73098  18.21179
H     3.25938   9.75018  18.50473
H     3.38463   8.00808  16.71491
H     2.05487   8.31410  14.61842
H     0.62778  10.30062  14.33112
