20
Generated by autodE on: 2022-06-10. E = -566.024388 Ha
C    -4.04908   0.22629  -0.15161
N    -2.72478  -0.25868  -0.48960
C    -1.62500   0.24683   0.09168
O    -1.66515   1.15387   0.94409
C    -0.31031  -0.30490  -0.30610
C    -0.17385  -1.34044  -1.24672
N    -0.16688  -2.20239  -2.03705
N     0.71266   0.30148   0.34170
C     2.02736   0.16064   0.31994
C     2.72911  -0.83324  -0.54494
C     2.76461   1.01855   1.17644
N     3.40194   1.70803   1.86917
H    -4.14979   1.30073  -0.37234
H    -4.26836   0.07695   0.91742
H    -4.78802  -0.32625  -0.74386
H    -2.63226  -0.99356  -1.18344
H     0.30982   1.01906   0.97254
H     2.39987  -1.85784  -0.30800
H     3.81291  -0.76915  -0.39054
H     2.51325  -0.64483  -1.60917
