20
Generated by autodE on: 2022-07-27. E = -566.013979 Ha
C     3.38719   0.82045   1.85946
N     2.25571   0.27468   1.13141
C     1.16924   1.04732   0.86900
O     1.09711   2.23018   1.23268
C     0.04135   0.42560   0.15180
C    -0.95411   1.28414  -0.35196
N    -1.77165   2.02330  -0.73962
N    -0.06292  -0.92859   0.04631
C    -0.87634  -1.74551  -0.60770
C    -0.78012  -3.22511  -0.40258
C    -1.84476  -1.24673  -1.51508
N    -2.64762  -0.93882  -2.30273
H     3.04849   1.29092   2.79307
H     3.93001   1.58062   1.27231
H     4.07791   0.00391   2.10433
H     2.43115  -0.55319   0.57076
H     0.62053  -1.43221   0.62118
H    -0.68425  -3.74302  -1.36945
H    -1.68704  -3.60763   0.09436
H     0.09098  -3.46683   0.22315
