49
Generated by autodE on: 2022-06-10. E = -1041.782270 Ha
C    -2.03229  -4.27913  -3.72742
O    -2.17077  -2.88920  -3.39470
C    -1.29638  -2.38686  -2.52278
O    -0.40318  -3.04347  -2.02428
C    -1.59588  -0.92697  -2.18563
C    -1.90410  -0.10620  -3.45082
C    -0.48906  -0.34486  -1.42483
C     0.07566   0.25806  -0.53918
C     0.28088   0.97179   0.72464
C     1.34420   2.07101   0.57288
C     1.17254   3.36599   1.07776
C     2.18862   4.32084   0.94758
C     3.38782   3.99502   0.31108
C     3.56775   2.70262  -0.19578
C     2.55446   1.75266  -0.06390
C     0.72044   0.00504   1.84542
C     1.03162   0.52755   3.11128
C     1.39962  -0.31391   4.16196
C     1.46852  -1.69808   3.96485
C     1.16442  -2.22629   2.70888
C     0.79161  -1.38097   1.65678
C    -1.14189   1.54050   1.05473
C    -2.30810   0.53389   0.96964
C    -3.04491   0.36521  -0.39056
C    -2.81599  -0.93236  -1.19191
H    -2.13339  -4.90050  -2.82609
H    -1.05417  -4.46575  -4.19334
H    -2.83876  -4.50150  -4.43547
H    -2.12638   0.93402  -3.17447
H    -2.77287  -0.52456  -3.97617
H    -1.04264  -0.10484  -4.13498
H     0.24725   3.64454   1.58181
H     2.03604   5.32634   1.34739
H     4.17850   4.74205   0.20856
H     4.50102   2.43463  -0.69716
H     2.70047   0.74433  -0.45949
H     0.99046   1.60604   3.27680
H     1.63714   0.11364   5.13918
H     1.75913  -2.35773   4.78592
H     1.21493  -3.30481   2.53997
H     0.55306  -1.80737   0.68143
H    -1.33822   2.38283   0.37307
H    -1.10314   1.95730   2.07171
H    -3.05799   0.88131   1.69705
H    -1.97840  -0.45077   1.34145
H    -2.85518   1.24208  -1.03154
H    -4.12493   0.39266  -0.17714
H    -2.67933  -1.76699  -0.48494
H    -3.71076  -1.16393  -1.78997
