69
Generated by autodE on: 2022-06-10. E = -1607.794734 Ha. Imaginary frequency = -324.8 cm-1
C     2.84549  14.84780  21.22141
N     1.74037  14.38833  20.39972
C     0.66240  15.17995  20.19809
O     0.50719  16.26815  20.75949
C    -0.36643  14.63907  19.25088
C    -1.39072  15.56230  18.89194
N    -2.17765  16.37130  18.60484
N    -0.61916  13.30130  19.34152
C    -1.24108  12.52876  18.42637
C    -1.27774  11.05025  18.70329
C    -2.38649  13.06114  17.74832
N    -3.36901  13.41972  17.23955
C     0.20807  13.27132  16.70449
C     0.49042  14.44048  17.04681
C     1.12282  15.73778  16.64537
C     2.00565  16.37774  17.72389
C    -0.02192  16.66462  16.19907
O    -0.89172  16.33161  15.41756
O     0.04947  17.88383  16.72654
C    -0.99690  18.80363  16.37824
C     1.99966  15.47145  15.37604
C     2.94857  14.26759  15.53006
C     2.62529  13.08719  14.60043
C     1.15598  12.69167  14.44930
C     0.37945  12.16044  15.70924
C    -1.01983  11.74446  15.19565
C    -1.54804  10.45252  15.31280
C    -2.82163  10.14730  14.81780
C    -3.58803  11.12783  14.18634
C    -3.07286  12.42247  14.06503
C    -1.80877  12.72479  14.56902
C     1.21365  11.01708  16.30242
C     1.82119  11.12187  17.56013
C     2.64686  10.10622  18.05358
C     2.88976   8.96385  17.28901
C     2.30857   8.85521  16.02086
C     1.48730   9.87289  15.53248
H     3.38755  15.67999  20.74032
H     2.47478  15.19611  22.19482
H     3.54113  14.01464  21.38134
H     1.95507  13.68963  19.69294
H     0.03783  12.78822  19.93083
H    -1.38738  10.48755  17.77136
H    -2.14125  10.81020  19.34634
H    -0.35632  10.73132  19.20766
H     2.54446  17.23414  17.29660
H     1.42422  16.74659  18.57271
H     2.74448  15.65085  18.08549
H    -1.02966  18.95591  15.29026
H    -1.96403  18.41766  16.72948
H    -0.75355  19.74268  16.88837
H     2.56095  16.39655  15.17703
H     1.33045  15.32388  14.51850
H     3.98386  14.58413  15.32920
H     2.94408  13.92116  16.57433
H     2.97273  13.34052  13.58374
H     3.21962  12.21317  14.91214
H     1.09463  11.89316  13.69416
H     0.58727  13.53445  14.03714
H    -0.97235   9.66477  15.79621
H    -3.21025   9.13207  14.92886
H    -4.58064  10.88853  13.79737
H    -3.66577  13.20768  13.58991
H    -1.44596  13.75180  14.50820
H     1.65510  12.01259  18.16467
H     3.10273  10.21581  19.04056
H     3.53300   8.16793  17.67157
H     2.49957   7.97386  15.40383
H     1.05892   9.77388  14.53407
