26
Generated by autodE on: 2022-06-02. E = -578.022639 Ha
C    -1.21187  -2.35561   0.79322
C    -1.26215  -1.11158  -0.01810
C    -0.35242  -0.15186  -0.29410
C     1.04922   0.00457   0.08136
C     1.59557   1.29710   0.23288
C     2.92659   1.47387   0.61445
C     3.74854   0.36550   0.84276
C     3.22642  -0.92276   0.67907
C     1.89601  -1.10368   0.29976
C    -1.17364   0.95479  -1.01900
C    -2.12267   1.58336   0.02482
C    -3.01533   0.62444   0.29177
C    -2.59029  -0.56427  -0.60031
O    -2.10020   0.13827  -1.75625
H    -1.27472  -3.25533   0.15544
H    -2.08126  -2.39398   1.47250
H    -0.29548  -2.42960   1.39492
H     0.96512   2.17292   0.06387
H     3.32482   2.48463   0.73277
H     4.79153   0.50395   1.13698
H     3.86459  -1.79537   0.83915
H     1.51299  -2.11340   0.14670
H    -0.61568   1.63536  -1.67118
H    -2.00603   2.57267   0.46648
H    -3.83186   0.61041   1.01318
H    -3.35681  -1.30567  -0.85446
