48
Generated by autodE on: 2022-06-02. E = -1074.799960 Ha. Imaginary frequency = -262.6 cm-1
C     3.35218  -2.36574  -1.00948
C     2.30251  -1.59734  -0.28950
C     2.16171  -0.28517   0.00970
C     3.01805   0.87152  -0.23101
C     4.42348   0.76413  -0.31648
C     5.21315   1.88704  -0.56584
C     4.62488   3.14665  -0.72843
C     3.23533   3.27279  -0.63006
C     2.44188   2.15228  -0.37895
C     0.71652  -0.17280   0.57173
O     0.61752  -1.42714   1.26446
C     0.95308  -2.23702   0.12283
C    -0.08864  -1.74753  -0.90045
C    -0.26216  -0.41914  -0.59105
C    -2.31926  -0.38714   0.52253
C    -2.74184   1.00299   0.50042
C    -2.26848   1.85878   1.51896
C    -2.58459   3.21687   1.51828
C    -3.38399   3.75484   0.50346
C    -3.86014   2.91726  -0.51288
C    -3.54237   1.55968  -0.52058
N    -2.87659  -1.33466  -0.24777
C    -2.43181  -2.62166  -0.35719
C    -2.90390  -3.45063  -1.51833
C    -1.92225  -3.27388   0.78252
N    -1.50787  -3.86939   1.70299
H     2.88290  -3.04203  -1.74483
H     3.92735  -3.00794  -0.31864
H     4.06357  -1.71650  -1.53866
H     4.90070  -0.20427  -0.16123
H     6.29920   1.77968  -0.62401
H     5.24603   4.02444  -0.92126
H     2.76458   4.25192  -0.74842
H     1.35814   2.26854  -0.30977
H     0.50952   0.67450   1.23511
H     0.96528  -3.30475   0.37033
H    -0.27543  -2.24057  -1.85232
H    -0.60807   0.36899  -1.25836
H    -1.78286  -0.74274   1.40028
H    -1.64821   1.44109   2.31554
H    -2.20776   3.85962   2.31759
H    -3.63438   4.81803   0.50317
H    -4.48378   3.32725  -1.31099
H    -3.92042   0.93522  -1.33408
H    -3.42869  -1.01710  -1.04413
H    -2.97133  -2.83186  -2.42653
H    -2.19063  -4.26377  -1.71567
H    -3.89290  -3.90959  -1.33846
