43
Generated by autodE on: 2022-05-29. E = -1127.960891 Ha
C    -2.06178  -2.61974  -0.28882
C    -1.46058  -1.75460   0.83128
C    -1.97152  -2.28349   2.17012
N     0.00748  -1.87709   0.78430
C     0.45553  -0.96233  -0.26011
C     1.94573  -0.70045  -0.22567
C     2.66801  -0.67685  -1.42840
C     4.04364  -0.43270  -1.43836
C     4.72475  -0.21253  -0.23745
C     4.01797  -0.23886   0.96861
C     2.64125  -0.47931   0.97433
C    -0.49154   0.30891  -0.18106
C    -0.70212   0.87295  -1.57346
F    -1.58032   1.89174  -1.64074
F    -1.14311  -0.05535  -2.45202
F     0.46131   1.35078  -2.07504
C     0.06271   1.38642   0.82698
C    -0.91035   2.55034   0.93275
C    -1.94717   2.07741   1.63352
C    -1.60256   0.62678   1.92869
O    -0.17100   0.69853   2.06403
C    -1.76937  -0.21531   0.59903
C    -3.14752   0.01989  -0.01853
H    -1.65998  -3.63990  -0.19921
H    -3.15611  -2.67663  -0.20823
H    -1.81926  -2.24453  -1.29254
H    -3.04331  -2.06723   2.29426
H    -1.42852  -1.84441   3.02009
H    -1.83847  -3.37498   2.21817
H     0.35474  -1.51340   1.67073
H     0.24610  -1.43454  -1.22797
H     2.14110  -0.85179  -2.36933
H     4.58579  -0.42013  -2.38703
H     5.80111  -0.02460  -0.24078
H     4.54008  -0.06962   1.91351
H     2.10937  -0.48366   1.92723
H     1.12003   1.63181   0.69452
H    -0.78308   3.52325   0.45998
H    -2.88623   2.57073   1.88258
H    -2.06485   0.18479   2.81487
H    -3.37277   1.08822  -0.11831
H    -3.24340  -0.43098  -1.01316
H    -3.91759  -0.42753   0.62966
