24
Generated by autodE on: 2022-05-29. E = -443.816193 Ha
C     3.80590  -1.21339   0.00726
C     2.87984  -0.04625  -0.05346
C     3.38335   1.34854  -0.15602
N     1.57193  -0.24471  -0.01502
C     0.54304   0.65293  -0.05618
C    -0.82589   0.25545  -0.00182
C    -1.84254   1.25594  -0.04911
C    -3.19355   0.93073   0.00064
C    -3.61291  -0.40555   0.09971
C    -2.63294  -1.40667   0.14731
C    -1.27563  -1.09511   0.09788
H     3.25788  -2.16557   0.07604
H     4.48264  -1.14323   0.87868
H     4.45544  -1.25525  -0.88633
H     4.48092   1.36986  -0.17722
H     3.00502   1.84825  -1.06916
H     3.03689   1.96593   0.69577
H     1.29058  -1.22401   0.05852
H     0.80940   1.70461  -0.13286
H    -1.54065   2.30450  -0.12597
H    -3.93647   1.73287  -0.03859
H    -4.67458  -0.65865   0.13853
H    -2.93179  -2.45628   0.22367
H    -0.55608  -1.91858   0.13629
