14
Generated by autodE on: 2022-06-05. E = -2882.112565 Ha
Br    2.80701  -0.31362   0.08112
C     1.02229  -0.11325   0.03300
C    -0.18646   0.02206  -0.00132
C    -1.60769   0.18021  -0.04397
C    -2.45507  -0.93312   0.13563
C    -3.83968  -0.77354   0.09099
C    -4.39757   0.49011  -0.13192
C    -3.56340   1.59911  -0.31069
C    -2.17747   1.45093  -0.26791
H    -2.01682  -1.91774   0.30902
H    -4.48812  -1.64141   0.23094
H    -5.48271   0.61082  -0.16630
H    -3.99577   2.58706  -0.48477
H    -1.52418   2.31424  -0.40727
