19
Generated by autodE on: 2022-06-05. E = -643.818725 Ha
C    -2.75231  -0.53904  -1.14675
C    -2.45727   0.37717   0.00286
O    -3.30154   1.01912   0.61187
C    -1.03979   0.52022   0.40347
C    -0.67368   1.39613   1.45516
N    -0.42473   2.12346   2.33019
O    -0.18173  -0.20478  -0.25177
C     1.11001  -0.38455  -0.25128
C     1.97375   0.34537   0.59668
N     2.73701   0.92083   1.26424
C     1.57654  -1.41134  -1.22222
C     3.05227  -1.66139  -1.27988
O     0.75118  -1.99277  -1.90874
H    -2.26389  -1.51517  -1.01104
H    -3.83841  -0.65726  -1.24428
H    -2.34130  -0.10210  -2.07207
H     3.26390  -2.43858  -2.02421
H     3.42158  -1.97761  -0.29054
H     3.58525  -0.73300  -1.54301
