33
Generated by autodE on: 2022-06-05. E = -3525.935346 Ha. Imaginary frequency = -289.2 cm-1
C     3.10612   0.09930   1.81829
C     3.07056  -0.02418   0.32615
O     3.88154  -0.64029  -0.34379
C     1.91592   0.62007  -0.36601
C     1.93127   0.70448  -1.79129
N     1.99888   0.74457  -2.95154
O     1.20461   1.42471   0.38672
C    -0.01104   1.89649   0.19457
C    -0.56188   2.10681  -1.09157
N    -1.10198   2.29120  -2.10844
C    -0.65842   2.40336   1.43424
C    -1.98345   3.07991   1.27694
O    -0.09912   2.22663   2.50570
C    -0.78494  -0.64016   0.08024
C    -2.09901  -0.35481   0.54916
C    -3.13516  -0.07970  -0.37024
C    -4.41956   0.19645   0.09591
C    -4.68446   0.20715   1.46973
C    -3.65940  -0.06180   2.38485
C    -2.37166  -0.34154   1.93504
C     0.29258  -1.09937  -0.33749
Br    1.16941  -2.57524  -0.97022
H     3.94618  -0.48661   2.21038
H     2.15521  -0.24783   2.25142
H     3.21535   1.15797   2.10305
H    -1.85264   4.00929   0.69753
H    -2.68423   2.44665   0.71130
H    -2.39863   3.30996   2.26527
H    -2.91801  -0.08187  -1.43908
H    -5.21885   0.40688  -0.61781
H    -5.69214   0.42707   1.82905
H    -3.86621  -0.05059   3.45708
H    -1.56457  -0.53981   2.64158
