31
Generated by autodE on: 2022-07-27. E = -801.227105 Ha
C     5.36415  -0.67471   0.86300
N     4.04848  -0.22487   1.26254
C     2.97719  -0.34773   0.44172
O     3.06418  -0.85651  -0.69221
C     1.72629   0.15195   1.00053
O     0.70408   0.05212   0.20219
C    -0.59079   0.27418   0.25094
C    -1.15707   0.75233   1.52484
O    -0.42335   1.25067   2.39843
N    -2.48502   0.59401   1.72943
C    -3.10362   1.00327   2.97416
C    -1.27891  -0.04363  -0.99864
C    -2.54393   0.49150  -1.33030
C    -3.16014   0.16990  -2.54055
C    -2.53233  -0.67890  -3.45593
C    -1.26706  -1.19702  -3.15143
C    -0.64661  -0.88645  -1.94504
H     5.36267  -1.74929   0.61799
H     6.06545  -0.50371   1.68867
H     5.72615  -0.13076  -0.02533
H     3.92751   0.21121   2.17063
H     1.59971   0.56337   1.99871
H    -3.03852   0.07784   1.05555
H    -4.18928   0.87275   2.88804
H    -2.74076   0.40582   3.82744
H    -2.88848   2.06104   3.18884
H    -3.04082   1.18928  -0.65709
H    -4.13705   0.60059  -2.77245
H    -3.01889  -0.92902  -4.40127
H    -0.75983  -1.85462  -3.86155
H     0.34298  -1.28701  -1.72222
