18
Generated by autodE on: 2022-06-07. E = -2938.734761 Ha
N     2.72427  -1.88177   0.11870
C     1.66325  -1.48297  -0.15371
C     0.37347  -1.02638  -0.50726
C    -0.17325   0.18882  -0.26087
Br    0.63466   1.63434   0.61914
C    -1.63569   0.14302  -0.63925
C    -2.31010  -0.76733   0.44223
C    -1.71075  -2.17105   0.14603
C    -0.76019  -1.89723  -1.06044
C    -1.56385  -0.83221  -1.83476
H    -2.11487   1.11618  -0.79214
H    -3.39943  -0.75249   0.29529
H    -2.10111  -0.41144   1.46069
H    -2.49154  -2.88548  -0.15244
H    -1.16804  -2.59761   1.00079
H    -0.42898  -2.78760  -1.60674
H    -1.01892  -0.41895  -2.69527
H    -2.55521  -1.18893  -2.15038
