10
Generated by autodE on: 2022-10-07. E = -455.036170 Ha
O    -1.34272  -1.28798   0.27306
C    -1.66632  -0.07926   0.43196
O    -2.80115   0.33945   0.80847
C    -0.66637   1.03487   0.16391
C     0.63031   1.05853  -0.17090
C     1.66861  -0.02066  -0.43219
O     1.37549  -1.23964  -0.29621
O     2.79819   0.43506  -0.77951
H    -1.13864   2.01671   0.28996
H     1.06780   2.05647  -0.29624
