35
Generated by autodE on: 2022-10-07. E = -1251.920789 Ha. Imaginary frequency = -443.4 cm-1
C    -4.64374  -1.59317  -0.30050
N    -3.28403  -1.10910  -0.40477
C    -2.25693  -1.83216   0.05566
O    -2.37415  -2.95201   0.58256
C    -0.92860  -1.18753  -0.13610
C    -0.45574  -0.64446  -1.39238
O    -0.98133  -0.41628  -2.46221
O     0.90272  -0.42219  -1.19305
C     1.15993  -0.63642   0.13759
C     2.58595  -0.67901   0.55068
O     2.95669  -0.99640   1.66333
O     3.38077  -0.23828  -0.41794
C     4.75258   0.00058  -0.06076
C     0.48457   1.11597   0.93617
C     1.40914   2.10264   0.23166
O     1.13767   2.44279  -0.94635
O     2.42310   2.46076   0.89641
C    -0.90557   1.03370   0.70057
C    -1.75164   1.98911  -0.13313
O    -2.65234   1.50606  -0.88248
O    -1.56990   3.21061   0.06934
N     0.19457  -1.49983   0.60824
C     0.12881  -1.93110   1.99904
H    -5.31486  -0.87341  -0.78650
H    -4.95859  -1.71243   0.75044
H    -4.75773  -2.57105  -0.79431
H    -3.09191  -0.11727  -0.66997
H     5.22480  -0.92363   0.29970
H     5.24302   0.34896  -0.97635
H     4.79906   0.77574   0.71700
H     0.81378   0.87317   1.95241
H    -1.49724   0.58670   1.50732
H    -0.67149  -2.67032   2.08687
H    -0.08509  -1.07301   2.65740
H     1.08463  -2.37581   2.28934
