25
Generated by autodE on: 2022-06-18. E = -577.063049 Ha
C     3.00600   1.32893  -0.45230
C     3.16308   0.42018   0.75639
O     4.27157   0.31735   1.33474
C     2.03370  -0.30028   1.20491
O     0.88121  -0.13108   0.52079
C    -0.27445  -0.67363   0.73724
C    -0.40603  -1.60984   1.87371
C    -1.32495  -0.28250  -0.18487
C    -2.63177  -0.80642  -0.06820
C    -3.63208  -0.42055  -0.95916
C    -3.35541   0.49137  -1.98221
C    -2.06270   1.01815  -2.10997
C    -1.05819   0.63968  -1.22668
H     3.96891   1.81738  -0.65377
H     2.69733   0.75815  -1.34251
H     2.23857   2.09938  -0.27737
H     2.04982  -0.97386   2.05940
H     0.30192  -2.45007   1.75043
H    -1.41851  -2.00910   1.97843
H    -0.12190  -1.09832   2.81177
H    -2.87016  -1.51862   0.72159
H    -4.63640  -0.83623  -0.85239
H    -4.14188   0.79193  -2.67795
H    -1.83947   1.73082  -2.90707
H    -0.05552   1.05447  -1.33284
