14
Generated by autodE on: 2022-06-18. E = -270.687344 Ha
C    -1.74481   0.85790   0.17246
C    -0.87793  -0.36404   0.23555
C    -1.59531  -1.62531   0.60959
C     0.45755  -0.38590  -0.01579
C     1.27056   0.75962  -0.38455
O     2.47781   0.69093  -0.60268
H    -1.21299   1.77570  -0.10349
H    -2.23122   1.01364   1.15037
H    -2.55981   0.69255  -0.55254
H    -2.08030  -1.50720   1.59412
H    -2.40786  -1.82673  -0.10987
H    -0.92413  -2.49446   0.64344
H     1.00193  -1.33343   0.05719
H     0.75355   1.74170  -0.46820
