39
Generated by autodE on: 2022-06-18. E = -847.745173 Ha. Imaginary frequency = -286.3 cm-1
C    -2.71726   2.50782  -1.33476
C    -2.44502   1.86624   0.00386
O    -3.25349   1.95420   0.94389
C    -1.24746   1.08638   0.16433
O    -0.36420   1.14287  -0.86120
C     0.77390   0.50492  -0.98373
C     1.21097   0.32537  -2.39803
C     1.71470   0.30205   0.11689
C     2.85369  -0.50730  -0.10903
C     3.80769  -0.69233   0.88816
C     3.67029  -0.05571   2.12557
C     2.57340   0.78302   2.34943
C     1.60492   0.95943   1.36414
C    -0.85334  -1.58032  -0.83097
C     0.26672  -2.31797  -0.33545
O     1.09728  -2.89692  -1.05281
C    -1.92596  -1.09957  -0.06852
C    -2.05428  -1.37083   1.41057
C    -3.24092  -0.91033  -0.78494
H    -3.73703   2.91452  -1.34018
H    -1.99846   3.32327  -1.51774
H    -2.59778   1.78251  -2.15371
H    -0.88204   0.88362   1.16474
H     1.41969  -0.74037  -2.58844
H     0.41630   0.65338  -3.07930
H     2.13920   0.88195  -2.60611
H     2.98445  -1.01038  -1.06459
H     4.66932  -1.33482   0.69420
H     4.41994  -0.20130   2.90647
H     2.47067   1.31035   3.30030
H     0.78650   1.64759   1.56285
H    -0.94215  -1.54004  -1.92090
H     0.38033  -2.36526   0.77046
H    -2.54382  -2.34888   1.56282
H    -2.69319  -0.60876   1.88073
H    -1.08868  -1.38527   1.93249
H    -3.10047  -0.54369  -1.81162
H    -3.91656  -0.23287  -0.24530
H    -3.74848  -1.88998  -0.84579
