41
Generated by autodE on: 2022-05-30. E = -1430.149432 Ha
C     3.59076  -0.68420   1.84731
N     2.35554  -0.16855   1.28629
C     1.88102  -0.54036   0.09683
O     2.43171  -1.37016  -0.63743
C     0.57059   0.05399  -0.45585
C     0.92113   0.83023  -1.77177
C     1.87211   1.98995  -1.41270
C     0.93188   3.00393  -0.70518
C    -0.43673   2.28754  -0.71923
C    -0.37623   1.58878  -2.08859
C    -0.40880   1.08832   0.26379
Cl    0.02298   1.71936   1.92816
C    -1.77895   0.32894   0.42559
C    -3.01104   1.23366   0.31371
C    -1.86118  -0.34707   1.75782
N    -2.03164  -0.95640   2.73015
N    -1.73269  -0.67635  -0.63173
C    -2.81715  -1.64689  -0.71519
C    -0.38023  -1.19119  -0.74034
C    -0.12340  -2.30660   0.22354
N    -0.01643  -3.17421   0.98431
C    -0.16560  -1.75956  -2.08770
N    -0.04427  -2.21705  -3.14475
H     4.02457  -1.41137   1.15223
H     3.39656  -1.17908   2.81101
H     4.31110   0.13167   2.01153
H     1.83008   0.51012   1.82761
H     1.31627   0.16396  -2.54403
H     2.71866   1.67845  -0.78679
H     2.28983   2.40729  -2.33937
H     1.26412   3.27045   0.30460
H     0.84155   3.93532  -1.28099
H    -1.28145   2.95778  -0.53368
H    -1.23533   0.95110  -2.31614
H    -0.23658   2.31196  -2.90457
H    -3.09779   1.62797  -0.70594
H    -3.92218   0.67300   0.55899
H    -2.92044   2.06491   1.02626
H    -2.86926  -2.30981   0.16813
H    -2.67619  -2.26571  -1.61210
H    -3.77263  -1.11870  -0.82038
