17
Generated by autodE on: 2022-07-26. E = -489.491635 Ha
C    -1.66939   2.36858   0.24553
C    -0.67665   1.25787   0.38710
C     0.33912   1.39964   1.36939
N     1.09709   1.56536   2.23903
N    -0.75428   0.14399  -0.33384
C    -1.96508  -0.04577  -1.15961
C     0.24061  -0.82390  -0.42084
C    -0.06839  -2.13478  -0.83781
N    -0.27357  -3.23496  -1.17521
C     1.59111  -0.52594  -0.15602
N     2.72804  -0.31083   0.00985
H    -1.76721   2.67927  -0.80637
H    -1.34822   3.23007   0.84282
H    -2.66473   2.05255   0.59955
H    -1.96262  -1.05304  -1.58268
H    -1.95263   0.69120  -1.97391
H    -2.85792   0.09697  -0.54135
