41
Generated by autodE on: 2022-05-30. E = -1430.088093 Ha. Imaginary frequency = -308.4 cm-1
C     3.13543  -1.09263   2.12240
N     2.07903  -0.32923   1.48936
C     1.92403  -0.32508   0.15271
O     2.73046  -0.89636  -0.59818
C     0.74429   0.37304  -0.43558
C     0.83603   0.78024  -1.89826
C     1.64458   2.11992  -1.86857
C     0.63390   3.12457  -1.24621
C    -0.61575   2.23471  -0.96603
C    -0.57227   1.31625  -2.19742
C    -0.19780   1.26753   0.14531
Cl    0.05882   2.05943   1.71999
C    -1.91687  -0.04676   0.65376
C    -3.11902   0.84887   0.76513
C    -1.39836  -0.46128   1.93608
N    -1.04649  -0.76923   2.99963
N    -1.85499  -0.97517  -0.35574
C    -2.96053  -1.04540  -1.32617
C    -0.66854  -1.66177  -0.59511
C    -0.02703  -2.43983   0.41371
N     0.53377  -3.11999   1.17446
C    -0.39195  -2.10586  -1.91757
N    -0.10641  -2.43881  -2.99702
H     4.12921  -0.68963   1.86907
H     3.10144  -2.14570   1.80494
H     3.00095  -1.04392   3.20991
H     1.39551   0.13557   2.07568
H     1.24885   0.01759  -2.56469
H     2.57428   2.02595  -1.29056
H     1.91471   2.39955  -2.89744
H     1.00905   3.60847  -0.33517
H     0.35804   3.91377  -1.95996
H    -1.54006   2.78835  -0.76542
H    -1.35047   0.55428  -2.23205
H    -0.60717   1.88605  -3.13654
H    -3.33478   1.34655  -0.18799
H    -4.00829   0.27677   1.07765
H    -2.91882   1.61256   1.52821
H    -3.87128  -1.34851  -0.79172
H    -2.72920  -1.79823  -2.08490
H    -3.14174  -0.08167  -1.81606
