28
Generated by autodE on: 2022-07-27. E = -782.028295 Ha
C     2.34282   0.85399  -3.77188
O     1.11616   0.81750  -3.03258
C     1.19633   0.39333  -1.76716
O     2.26149   0.05933  -1.24934
C    -0.07682   0.31967  -1.04979
N     0.11609  -0.13486   0.22766
C    -0.57363  -0.05266   1.34347
C    -1.80223   0.75614   1.52946
C     0.08501  -0.76136   2.47086
O     1.14768  -1.35161   2.35769
O    -0.60822  -0.67007   3.60056
C    -0.04939  -1.31337   4.75711
C    -1.38800   0.45915  -1.67956
C    -2.52532  -0.42103  -1.19685
O    -1.56767   1.17310  -2.66979
H     3.07002   1.52222  -3.28786
H     2.08216   1.23736  -4.76547
H     2.77642  -0.15328  -3.85746
H     1.04989  -0.56202   0.35611
H    -1.75704   1.24854   2.51088
H    -2.71753   0.14342   1.51603
H    -1.88751   1.51868   0.74243
H    -0.76385  -1.14291   5.57003
H     0.92583  -0.87038   5.00488
H     0.07151  -2.39032   4.57216
H    -3.34243   0.19450  -0.79138
H    -2.91899  -0.93544  -2.08717
H    -2.23458  -1.17155  -0.45195
