49
Generated by autodE on: 2022-06-08. E = -6333.615351 Ha. Imaginary frequency = -279.7 cm-1
C    -0.24771  -3.53042   4.65900
O    -0.87212  -2.91452   3.51923
C    -0.18924  -2.93194   2.37935
O     0.90494  -3.45343   2.24731
C    -0.88087  -2.19085   1.28037
C    -2.30669  -1.76843   1.43853
N    -0.26260  -2.40340   0.10916
C    -0.37625  -1.73160  -1.06270
C    -1.66976  -1.51488  -1.77136
C    -2.80070  -2.49503  -1.52372
O    -1.78553  -0.65773  -2.63169
C     0.88076  -1.86259  -1.84752
O     1.91152  -2.29321  -1.34762
O     0.77243  -1.53196  -3.12855
C     1.96762  -1.60445  -3.91320
C     0.01723   0.38469   0.33143
C    -0.07947  -0.08188   1.48438
C     0.04292   0.19126   2.94496
C    -0.99851   1.15023   3.33832
N    -1.81464   1.91519   3.64846
C     1.46482   0.69062   3.31948
C     1.87350   2.09554   2.87053
C     2.06125   2.36975   1.36833
C     0.78812   2.73152   0.57335
C     0.26808   1.63560  -0.36824
Br    1.59748   1.42564  -1.85154
Br   -1.43773   2.30026  -1.16688
H    -0.95430  -3.41071   5.48748
H     0.70212  -3.02676   4.88750
H    -0.06443  -4.59550   4.46008
H    -2.45580  -1.33719   2.43575
H    -2.98347  -2.63324   1.34546
H    -2.58895  -1.01649   0.69377
H     0.68708  -2.78289   0.24115
H    -3.69706  -1.95668  -1.18191
H    -3.04287  -2.94349  -2.50038
H    -2.55760  -3.29642  -0.81868
H     2.76077  -0.98673  -3.46763
H     1.70080  -1.22189  -4.90498
H     2.31797  -2.64434  -3.98694
H    -0.15235  -0.70621   3.54858
H     2.16648  -0.06020   2.92410
H     1.53208   0.64549   4.41763
H     2.83846   2.29435   3.36400
H     1.16876   2.83449   3.29033
H     2.74836   3.22426   1.27851
H     2.58256   1.52270   0.89428
H    -0.03592   2.96102   1.26674
H     0.95003   3.63511  -0.03060
