16
Generated by autodE on: 2022-05-29. E = -743.987481 Ha
F    -0.83326   1.32792   1.72342
C    -0.84876   0.71557   0.55678
C     0.14550   0.17086  -0.14873
C     1.57530  -0.00128   0.17038
F     2.37898   0.44501  -0.81872
F     1.93062   0.64571   1.29371
F     1.88591  -1.30693   0.34415
C    -0.59649  -0.49958  -1.33505
C    -1.40423  -1.68850  -0.76387
C    -2.37983  -1.12973  -0.04263
C    -2.15540   0.39396  -0.19311
O    -1.65499   0.45790  -1.53794
H    -0.00467  -0.66795  -2.24058
H    -1.15400  -2.73879  -0.90720
H    -3.15099  -1.58861   0.57430
H    -3.00038   1.06605  -0.01123
