29
Generated by autodE on: 2022-05-29. E = -1193.144556 Ha. Imaginary frequency = -364.6 cm-1
C     3.50987  -0.47127   1.33442
N     3.69320   0.61752   0.38935
C     2.90293   0.92720  -0.64272
O     3.07606   1.83353  -1.45398
C     1.67465   0.10168  -0.77448
N     1.13442  -0.77441  -1.38044
N     0.12604  -1.56002  -1.36350
C    -0.65037  -1.64092  -2.43660
N    -1.42643  -1.80434  -3.29638
C    -0.98305  -0.09586   0.36950
C    -1.38659  -1.26199   1.18966
F    -0.32525  -1.89251   1.72466
F    -2.18056  -0.88617   2.22155
F    -2.09067  -2.16687   0.48598
C    -1.92985   0.69411  -0.55851
C    -2.60858   1.76756   0.32102
C    -1.64197   2.64478   0.60929
C    -0.38318   2.09806  -0.09935
O    -0.96237   1.49606  -1.26270
C     0.00914   0.80329   0.64841
F     0.76048   0.84129   1.75229
H     4.32175  -1.20752   1.23798
H     2.55551  -0.98185   1.15430
H     3.50263  -0.08389   2.36298
H     4.52145   1.20388   0.48728
H    -2.55944   0.11135  -1.23779
H    -3.64617   1.73712   0.65025
H    -1.66764   3.53644   1.23385
H     0.42797   2.79292  -0.33835
