42
Generated by autodE on: 2022-06-21. E = -1103.052078 Ha
C     2.23669  -2.64398  -2.30369
N     1.68206  -1.86971  -1.21172
C     1.53826  -0.54212  -1.24017
O     1.89963   0.19807  -2.15894
C     0.87608   0.07830   0.00203
C     1.71132   1.32408   0.34266
O     1.40305   2.45883   0.04990
O     2.82913   0.98977   0.97662
C     3.71990   2.06264   1.32860
O     0.88615  -0.85339   1.09102
N    -0.33437  -0.71596   1.84668
C    -0.16671   0.39367   2.78742
C    -1.34094  -0.51126   0.78005
C    -2.62636   0.15894   1.30378
N    -3.25631  -0.48604   2.29858
O    -3.05411   1.20073   0.80552
C    -1.69405  -1.87589   0.15028
C    -2.31771  -1.69556  -1.19963
C    -2.00002  -0.62788  -1.95803
N    -1.10753   0.36018  -1.58957
C    -1.10018   1.61607  -2.31936
C    -0.63021   0.42952  -0.22754
H     2.64570  -1.95843  -3.05523
H     1.46262  -3.26861  -2.77679
H     3.04146  -3.29969  -1.93991
H     1.35457  -2.34561  -0.37547
H     4.04620   2.59724   0.42536
H     4.57559   1.59217   1.82543
H     3.21833   2.76302   2.01142
H     0.74942   0.21240   3.36322
H    -0.10641   1.39232   2.32059
H    -1.01464   0.38958   3.48365
H    -4.10618  -0.08673   2.68624
H    -2.87846  -1.33033   2.71416
H    -2.35711  -2.42939   0.82982
H    -0.76500  -2.46686   0.09023
H    -3.00799  -2.44549  -1.58767
H    -2.43469  -0.48687  -2.95109
H    -0.11044   2.08680  -2.24766
H    -1.85368   2.32676  -1.92870
H    -1.31384   1.42775  -3.38061
H    -0.77485   1.45976   0.11656
