22
Generated by autodE on: 2022-06-21. E = -645.252960 Ha
C    -1.37180  -2.59351   0.10953
N    -2.07105  -1.52913  -0.52402
O    -1.49485  -0.36363  -0.46942
C    -0.27329  -0.02825  -0.04461
C     0.91281  -0.86020  -0.34128
O     0.86777  -1.71001  -1.24643
N     2.02859  -0.60744   0.37240
C     3.29853  -1.19547  -0.00654
C    -0.18007   1.37563   0.37297
O     0.83562   1.86887   0.84828
O    -1.32086   2.05329   0.22155
C    -1.30893   3.42721   0.63571
H    -0.88016  -2.23271   1.03833
H    -2.11596  -3.37105   0.32383
H    -0.56247  -3.02073  -0.51138
H     2.01865   0.22637   0.95667
H     3.63574  -0.84856  -0.99839
H     4.05311  -0.91780   0.73947
H     3.22221  -2.29192  -0.04069
H    -2.32053   3.80484   0.44785
H    -0.57461   4.00086   0.05181
H    -1.06641   3.50461   1.70544
