42
Generated by autodE on: 2022-06-21. E = -1102.967786 Ha. Imaginary frequency = -233.6 cm-1
C     1.43841  -1.57507  -3.13065
N     1.31860  -1.20465  -1.73803
C     1.80793  -0.02168  -1.27847
O     2.47463   0.71583  -2.03389
C     1.53419   0.29496   0.12316
C     2.41813   1.07396   0.95005
O     2.59571   0.89619   2.15865
O     3.07046   2.06463   0.28930
C     4.04106   2.79080   1.04366
O     0.76182  -0.67306   0.77934
N    -0.26248  -0.40454   1.60823
C    -0.25707   0.93502   2.14288
C    -2.08075  -0.64819   0.55677
C    -2.95014  -0.21670   1.69714
N    -3.13963  -1.13025   2.66800
O    -3.45971   0.91252   1.74415
C    -2.00312  -2.12625   0.20539
C    -1.85910  -2.35314  -1.26985
C    -1.67052  -1.35482  -2.14065
N    -1.64261  -0.00617  -1.72395
C    -1.24116   1.02542  -2.67721
C    -1.91386   0.30910  -0.45999
H     0.94348  -0.84908  -3.79822
H     0.97093  -2.55680  -3.27611
H     2.49416  -1.64239  -3.43787
H     0.69584  -1.73760  -1.14435
H     4.82171   2.12272   1.43878
H     4.48741   3.51209   0.34759
H     3.57213   3.32541   1.88372
H    -1.20407   1.10430   2.66240
H     0.57261   1.01261   2.86199
H    -0.09286   1.71050   1.37383
H    -3.69351  -0.86917   3.47772
H    -2.62511  -2.00280   2.69553
H    -2.90700  -2.64863   0.56358
H    -1.16428  -2.60259   0.74792
H    -1.90647  -3.37695  -1.64597
H    -1.54755  -1.50235  -3.21247
H    -1.59569   0.75474  -3.67944
H    -0.14508   1.12389  -2.69488
H    -1.68055   1.98587  -2.38039
H    -2.01196   1.37052  -0.22959
