28
Generated by autodE on: 2022-06-17. E = -819.894180 Ha
C     2.57385  -1.88796  -0.61123
C     1.87410  -0.64711  -0.14673
O     2.04363   0.44418  -0.65871
C     0.94181  -0.80530   1.06855
O    -0.00655  -1.84800   0.85420
C    -1.09721  -1.32064   0.09237
C    -2.34857  -2.13485   0.38663
C    -0.75264  -1.46425  -1.34866
N    -0.44007  -1.65261  -2.44947
C    -1.20318   0.17969   0.53279
C    -1.50604   1.15712  -0.58238
O    -2.32507   0.87980  -1.44793
C    -0.82740   2.46565  -0.56978
C     0.21403   2.73764   0.23818
C     0.75976   1.76650   1.21265
O     1.70361   2.06514   1.93110
C     0.07000   0.42736   1.36669
H     1.89867  -2.75421  -0.59878
H     3.00014  -1.73313  -1.61043
H     3.38820  -2.09968   0.10386
H     1.56483  -1.10137   1.92527
H    -2.19428  -3.18913   0.11728
H    -3.19051  -1.72980  -0.19163
H    -2.57384  -2.05728   1.45961
H    -2.08020   0.25646   1.19316
H    -1.19252   3.19439  -1.29786
H     0.72477   3.70348   0.20196
H    -0.19199   0.36631   2.43205
