16
Generated by autodE on: 2022-06-17. E = -438.161533 Ha
C     2.60163   0.50904  -0.85543
C     1.99037   0.38186   0.52087
O     2.66546   0.50459   1.55458
C     0.58470   0.11083   0.62127
O    -0.09559  -0.00726  -0.49966
C    -1.35949  -0.25467  -0.71152
C    -1.83363  -0.31059  -2.11900
C    -2.21106  -0.44598   0.39905
N    -2.91672  -0.60652   1.31618
H     2.45673  -0.41703  -1.43413
H     3.67507   0.71377  -0.75173
H     2.12364   1.32423  -1.42153
H     0.06546  -0.00098   1.57623
H    -2.55897   0.49539  -2.32389
H    -0.97562  -0.19852  -2.79555
H    -2.33629  -1.26940  -2.32747
