16
Generated by autodE on: 2022-07-27. E = -438.148826 Ha
C     1.70565  -0.33969  -0.89734
C     1.61605   0.30457   0.46550
O     2.57232   0.95885   0.91260
C     0.51205   0.02719   1.35229
O    -0.65923  -0.51652   1.05398
C    -1.37880  -0.50295  -0.04184
C    -2.54411  -1.42267  -0.09352
C    -1.10849   0.42751  -1.06497
N    -0.97167   1.24532  -1.88915
H     1.01771  -1.18804  -1.03125
H     1.49491   0.39644  -1.68952
H     2.74259  -0.68498  -1.02163
H     0.66614   0.09471   2.42996
H    -2.27988  -2.36108  -0.61353
H    -3.38286  -0.96161  -0.63488
H    -2.85166  -1.67592   0.93179
