12
Generated by autodE on: 2022-06-17. E = -381.636088 Ha
O    -0.86018  -2.52332   0.06019
C    -0.46451  -1.36260   0.03186
C     0.97964  -1.04639  -0.08740
C     1.41342   0.22587  -0.11689
C     0.46450   1.36260  -0.03192
O     0.86018   2.52332  -0.06016
C    -0.97964   1.04639   0.08741
C    -1.41342  -0.22587   0.11690
H     1.65930  -1.89965  -0.14839
H     2.47170   0.48282  -0.20466
H    -1.65929   1.89965   0.14843
H    -2.47169  -0.48282   0.20471
