28
Generated by autodE on: 2022-06-17. E = -819.798646 Ha. Imaginary frequency = -48.9 cm-1
C     2.31492  -1.08252  -0.92550
C     2.16136  -0.94272   0.56156
O     3.08427  -0.51171   1.26045
C     0.95434  -1.33337   1.28071
O    -0.18796  -1.82609   0.85162
C    -1.01797  -1.73676  -0.15072
C    -2.36219  -2.35235   0.04021
C    -0.66177  -1.31455  -1.45969
N    -0.53582  -0.97915  -2.56918
C    -1.46182   0.76306   0.83258
C    -1.78304   1.26192  -0.51682
O    -2.88368   1.07167  -1.03378
C    -0.72212   2.00642  -1.23787
C     0.46275   2.27140  -0.66013
C     0.75607   1.85146   0.73249
O     1.80646   2.17624   1.28124
C    -0.26938   1.04696   1.42930
H     1.85733  -2.00708  -1.30307
H     1.83672  -0.22960  -1.43078
H     3.38738  -1.07062  -1.16076
H     1.06367  -1.47400   2.35716
H    -2.42877  -3.32857  -0.47059
H    -3.13131  -1.69333  -0.39278
H    -2.55452  -2.49004   1.11254
H    -2.26762   0.26166   1.37105
H    -0.95982   2.32101  -2.25642
H     1.25459   2.82001  -1.17542
H    -0.07732   0.81996   2.47815
