32
Generated by autodE on: 2022-06-17. E = -930.666863 Ha
C     3.22829   0.42474   0.15955
N     1.90480   0.91933  -0.18825
C     1.67636   1.25731  -1.52157
C     0.48106   1.67626  -1.96631
C    -0.64629   1.87167  -0.99380
C    -0.62019   0.86088   0.17639
C    -1.32401   1.41260   1.43888
N    -2.38574   2.20446   1.21842
O    -0.93827   1.12865   2.57306
C     0.81035   0.35662   0.56438
C     0.60201  -1.19419   0.38488
C     1.52062  -2.09440   1.07670
N     2.25172  -2.78814   1.64638
O     0.59180  -1.49053  -1.03164
C    -0.63190  -1.04198  -1.44979
O    -1.01557  -1.10804  -2.58178
C    -1.32416  -0.51370  -0.18165
C    -2.82208  -0.60985  -0.20490
O    -0.72298  -1.40334   0.78868
H     3.99406   1.11984  -0.21261
H     3.32374   0.36630   1.25322
H     3.44251  -0.57508  -0.26256
H     2.54537   1.17702  -2.17965
H     0.34331   1.93616  -3.01595
H    -1.62013   1.81639  -1.50448
H    -0.58152   2.88655  -0.56436
H    -2.91547   2.54190   2.01665
H    -2.74149   2.39261   0.28869
H     0.97095   0.51908   1.63629
H    -3.24450  -0.38919   0.78337
H    -3.12387  -1.62253  -0.50679
H    -3.22505   0.10548  -0.93526
