20
Generated by autodE on: 2022-06-17. E = -457.715336 Ha
C     3.05109   0.06726   0.87329
N     1.82713  -0.08121   0.10290
C     1.89356  -0.13032  -1.29540
C     0.79941  -0.14326  -2.07306
C    -0.60460  -0.10614  -1.52169
C    -0.57662  -0.00141  -0.00571
C    -1.81895   0.08833   0.77884
N    -2.97556   0.06891   0.06984
O    -1.84110   0.18176   2.02298
C     0.59796   0.00795   0.68523
H     3.79610  -0.67657   0.55326
H     2.83448  -0.09296   1.93715
H     3.49041   1.07237   0.75100
H     2.90455  -0.16054  -1.70577
H     0.93237  -0.18948  -3.15636
H    -1.16404   0.74180  -1.96661
H    -1.16621  -1.00673  -1.84627
H    -3.85414   0.12473   0.57328
H    -3.00012  -0.01979  -0.93793
H     0.58840   0.08582   1.77362
