12
Generated by autodE on: 2022-06-17. E = -472.896364 Ha
C    -2.60221  -0.94696   0.08777
C    -1.28011  -0.29691   0.03124
O    -0.14355  -1.04888   0.05754
C     0.89572  -0.25979   0.00068
C     2.21588  -0.73847   0.01211
N     3.31521  -1.12497   0.02151
O     0.54968   0.99680  -0.06239
C    -0.91757   1.06106  -0.04622
O    -1.48297   2.13286  -0.09749
H    -3.37445  -0.16807   0.02733
H    -2.74013  -1.50522   1.02876
H    -2.74387  -1.64900  -0.75037
