32
Generated by autodE on: 2022-06-17. E = -930.612575 Ha. Imaginary frequency = -328.0 cm-1
C     3.26419   0.33261   0.07893
N     1.98912   0.95017  -0.24704
C     1.76967   1.37665  -1.56354
C     0.59089   1.85176  -1.98911
C    -0.59504   1.97310  -1.07088
C    -0.38730   1.18980   0.21626
C    -1.31602   1.39855   1.36063
N    -2.39559   2.17681   1.12792
O    -1.11027   0.89024   2.47435
C     0.91161   0.75232   0.58326
C     0.52014  -1.46374   0.41541
C     1.44835  -2.23184   1.15716
N     2.25399  -2.77370   1.80170
O     0.55856  -1.48593  -0.95370
C    -0.68933  -1.04548  -1.40078
O    -0.93455  -0.84480  -2.56862
C    -1.47365  -0.90032  -0.18995
C    -2.94080  -0.77030  -0.10292
O    -0.77831  -1.46902   0.81338
H     4.08835   0.94642  -0.31079
H     3.36967   0.25526   1.16917
H     3.34750  -0.67900  -0.35517
H     2.64324   1.30928  -2.21400
H     0.49448   2.19293  -3.02097
H    -1.51500   1.64519  -1.58631
H    -0.77001   3.04018  -0.82508
H    -3.07834   2.28571   1.87085
H    -2.63081   2.52122   0.20547
H     1.13733   0.62816   1.64163
H    -3.25332  -0.59811   0.93474
H    -3.42549  -1.68942  -0.47433
H    -3.27524   0.06567  -0.73316
