23
Generated by autodE on: 2022-10-07. E = -725.206117 Ha
C     3.27682   1.12587   1.34597
C     3.17487   0.17293   0.18031
O     4.17278  -0.28358  -0.39039
C     1.85704  -0.19455  -0.25248
O     0.72205   0.32006   0.39364
C    -0.33816  -0.16364  -0.17898
C    -1.67279   0.17793   0.24138
C    -2.77619  -0.39861  -0.41864
C    -4.06487  -0.06305  -0.01496
C    -4.25697   0.84067   1.03709
C    -3.15952   1.41346   1.69286
C    -1.86541   1.08685   1.30159
O    -0.06090  -0.96493  -1.15698
C     1.44395  -1.04529  -1.28339
O     1.91408  -1.74372  -2.14257
H     2.78796   0.69910   2.23651
H     2.76358   2.07343   1.11616
H     4.33531   1.32006   1.56160
H    -2.61287  -1.10095  -1.23699
H    -4.92464  -0.50609  -0.52087
H    -5.27077   1.10170   1.34871
H    -3.31708   2.11811   2.51146
H    -1.00376   1.52810   1.80419
