10
Generated by autodE on: 2022-10-07. E = -455.051682 Ha
O     2.19253  -1.31122  -0.06738
C     1.97300  -0.07052  -0.00135
O     2.85189   0.83485   0.04417
C     0.53399   0.40419   0.02353
C    -0.53398  -0.40421  -0.02375
C    -1.97301   0.07052   0.00121
O    -2.19248   1.31121   0.06756
O    -2.85193  -0.83483  -0.04406
H     0.38127   1.48733   0.08306
H    -0.38123  -1.48735  -0.08333
