38
Generated by autodE on: 2022-06-19. E = -1046.437149 Ha
C     4.28451  -0.10387  -1.93629
N     3.01276  -0.08778  -1.24371
C     2.31611  -1.22036  -1.03816
O     2.73074  -2.33438  -1.38372
C     1.00126  -1.07055  -0.35348
N     0.21051  -2.08606  -0.24794
N    -0.91420  -1.73385   0.39663
C    -0.78114  -0.46073   1.10080
O    -0.38734  -0.57919   2.43441
C    -1.03335  -1.57474   3.22733
C    -2.10032   0.29864   0.94441
O    -2.84321   0.48421   1.89081
C    -2.44551   0.74078  -0.43128
C    -3.89510   0.91379  -0.75727
C    -1.45814   1.10399  -1.29964
C    -1.75956   1.69154  -2.64367
C    -0.04901   1.10170  -0.86287
O     0.79287   1.79627  -1.41734
C     0.41262   0.18711   0.29577
O     1.36696   0.81333   1.09676
C     0.96416   2.03513   1.71550
H     4.17315  -0.41648  -2.98825
H     4.71487   0.90477  -1.91187
H     4.98456  -0.80132  -1.45174
H     2.56997   0.80510  -1.03564
H    -1.46276  -2.49151   0.79544
H    -2.12535  -1.56420   3.09918
H    -0.79557  -1.33615   4.27243
H    -0.64316  -2.58020   2.99766
H    -4.14908   0.36093  -1.67592
H    -4.12482   1.97451  -0.95379
H    -4.53392   0.56488   0.06303
H    -2.18346   2.70511  -2.53752
H    -0.85296   1.76586  -3.25673
H    -2.50950   1.08539  -3.17343
H     0.06600   1.89267   2.33592
H     0.77691   2.82517   0.97111
H     1.79807   2.34405   2.35935
