38
Generated by autodE on: 2022-06-19. E = -1046.356420 Ha. Imaginary frequency = -332.7 cm-1
C     4.22546  -0.12218  -1.80045
N     2.97206  -0.29100  -1.09194
C     2.02010  -1.11140  -1.55011
O     2.10802  -1.81193  -2.56186
C     0.77040  -1.12082  -0.75443
N    -0.08779  -1.94201  -0.46323
N    -0.96606  -2.13207   0.41583
C    -0.66503   0.02704   1.45596
O    -0.31059  -0.29063   2.70072
C    -1.10846  -1.14601   3.52950
C    -2.07746   0.11197   1.00953
O    -3.01466  -0.06250   1.78650
C    -2.31948   0.46473  -0.42125
C    -3.69860   0.22826  -0.95583
C    -1.35022   1.04824  -1.17410
C    -1.59368   1.50176  -2.58063
C    -0.00877   1.31274  -0.58605
O     0.79458   2.08484  -1.10274
C     0.35075   0.54641   0.63346
O     1.60000   0.76151   1.17166
C     1.73755   1.97413   1.92933
H     4.06628   0.32571  -2.79493
H     4.87541   0.53810  -1.21407
H     4.73261  -1.08903  -1.94016
H     2.75757   0.27787  -0.26856
H    -1.81459  -2.56560   0.02499
H    -1.95254  -0.60060   3.96805
H    -0.43273  -1.49435   4.32154
H    -1.47612  -2.00255   2.94775
H    -3.65733  -0.39421  -1.86428
H    -4.17772   1.17829  -1.24646
H    -4.33432  -0.26553  -0.21128
H    -2.42581   2.22351  -2.62669
H    -0.69743   1.97358  -3.00154
H    -1.87941   0.64860  -3.21766
H     1.05015   1.97071   2.78872
H     1.54406   2.85341   1.29744
H     2.77440   1.99957   2.28870
