36
Generated by autodE on: 2022-06-17. E = -692.386418 Ha
C     4.77508  -0.93160   0.47753
C     3.75870  -0.49986  -0.29639
C     3.96931  -0.10142  -1.73330
C     2.40625  -0.41138   0.26554
C     1.31067   0.00705  -0.39486
C    -0.04785   0.06200   0.22468
C    -0.74832   1.46022   0.19772
C    -0.21130   2.44689  -0.82647
C    -0.79510   2.07315   1.59203
O    -2.13030   1.16685  -0.23768
N    -2.36586  -0.21569  -0.04581
C    -2.96400  -0.46817   1.12638
N    -3.58458  -0.70191   2.08817
C    -1.09342  -0.91064  -0.40681
C    -1.02613  -0.99049  -1.93072
C    -1.02888  -2.29856   0.21277
H     4.60958  -1.21819   1.52064
H     5.79485  -1.00977   0.09019
H     5.02165  -0.21664  -2.02878
H     3.67431   0.94786  -1.90092
H     3.34926  -0.71367  -2.40914
H     2.30330  -0.71575   1.31383
H     1.39246   0.31629  -1.43893
H     0.04684  -0.23392   1.27924
H    -0.17363   2.00887  -1.83283
H     0.80188   2.76917  -0.54610
H    -0.85876   3.33651  -0.85497
H    -1.33778   3.03049   1.57781
H     0.22938   2.25665   1.95161
H    -1.28994   1.39532   2.30356
H    -0.07808  -1.45021  -2.24223
H    -1.09933   0.00263  -2.39388
H    -1.85204  -1.61296  -2.30493
H    -0.05857  -2.74946  -0.04077
H    -1.82526  -2.94635  -0.18335
H    -1.10880  -2.26061   1.30906
