23
Generated by autodE on: 2022-06-17. E = -351.521385 Ha
C     3.70153   0.01209  -0.77183
C     2.58531   0.04100  -0.01082
C     2.66336   0.13994   1.49122
C     1.26907  -0.02309  -0.64286
C     0.07776  -0.00074   0.00605
C    -1.20136  -0.06616  -0.67096
C    -2.43051  -0.04573  -0.09625
C    -3.67387  -0.12235  -0.93631
C    -2.67293   0.05290   1.38311
H     4.69865   0.05935  -0.32528
H     3.64130  -0.05968  -1.86224
H     2.14165   1.03969   1.85764
H     3.70684   0.18208   1.83384
H     2.17522  -0.72389   1.97239
H     1.26653  -0.09493  -1.73719
H     0.07148   0.07109   1.09711
H    -1.15568  -0.13987  -1.76430
H    -3.44670  -0.19016  -2.01037
H    -4.31411   0.76257  -0.76945
H    -4.28481  -0.99808  -0.65224
H    -3.26018  -0.81454   1.73283
H    -1.75226   0.10515   1.97839
H    -3.28136   0.94578   1.61172
