13
Generated by autodE on: 2022-06-17. E = -340.808991 Ha
C    -1.81508   1.86654   0.00066
C    -1.25606   0.50101   0.02602
C    -2.08423  -0.71254   0.08948
O     0.01236   0.42581  -0.01081
N     0.60501  -0.88564   0.01356
C     1.90638  -0.69807  -0.04165
N     3.08455  -0.67183  -0.08705
H    -1.02603   2.62625  -0.05415
H    -2.49822   1.95386  -0.86151
H    -2.43129   2.01325   0.90440
H    -3.15055  -0.46224   0.11141
H    -1.84790  -1.35426  -0.77690
H    -1.79858  -1.29587   0.98197
