36
Generated by autodE on: 2022-06-17. E = -692.319132 Ha. Imaginary frequency = -320.9 cm-1
C     4.97084  -0.29934  -0.00788
C     3.74055  -0.36059  -0.56111
C     3.54346  -0.26845  -2.05216
C     2.56209  -0.51461   0.29223
C     1.28422  -0.59419  -0.14259
C     0.13315  -0.72677   0.74777
C    -0.53821   1.35268   0.96340
C     0.67374   2.19590   0.75115
C    -1.11038   1.29024   2.34559
O    -1.35674   1.40011  -0.07639
N    -2.48084   0.56275   0.07998
C    -3.13545   0.53291  -1.06118
N    -3.80751   0.40944  -2.02033
C    -1.04667  -1.37644   0.33849
C    -1.23499  -1.80607  -1.08496
C    -1.92254  -2.04273   1.35204
H     5.10787  -0.36567   1.07590
H     5.86801  -0.18073  -0.62180
H     2.90173   0.58916  -2.31463
H     3.03975  -1.16838  -2.44257
H     4.50352  -0.15511  -2.57510
H     2.75412  -0.56634   1.37054
H     1.08267  -0.54355  -1.21503
H     0.36983  -0.79814   1.81369
H     0.97699   2.20455  -0.30305
H     1.50608   1.83381   1.36800
H     0.44023   3.22695   1.06980
H    -0.30452   1.17221   3.08076
H    -1.61128   2.25836   2.53186
H    -1.85288   0.49762   2.47008
H    -0.61744  -2.70426  -1.27029
H    -0.91556  -1.03983  -1.80488
H    -2.28021  -2.07116  -1.29329
H    -1.64474  -3.11268   1.39902
H    -1.79281  -1.62424   2.35908
H    -2.98332  -1.99697   1.06663
