52
Generated by autodE on: 2022-06-03. E = -1314.073677 Ha
C     1.16694   1.36464  -3.82835
N     0.74672   1.41609  -2.44133
C    -0.51549   1.18066  -2.08694
O    -1.44043   0.98719  -2.87398
C    -0.80616   1.23429  -0.54964
C    -1.77959   2.32839  -0.42184
N    -2.53717   3.20199  -0.35110
N     0.39813   1.51440   0.22996
C     0.22754   2.31053   1.45876
N     0.93563   0.23033   0.45607
C     2.29453   0.14682   0.78706
C     3.16852   1.18542   0.39884
C     4.53353   1.10004   0.66890
C     5.06615  -0.00483   1.34059
C     4.19976  -1.01984   1.75214
C     2.82902  -0.94879   1.49285
C    -0.10860  -0.73524   0.81270
C    -0.20854  -0.85625   2.28172
N    -0.10360  -0.99473   3.42970
C     0.09649  -2.13357   0.13914
C    -1.06467  -3.05267   0.56328
C    -2.26494  -2.49779  -0.25286
C    -1.65910  -1.28955  -1.00406
C    -0.25220  -1.81844  -1.31954
C    -1.37360  -0.16569   0.03440
C    -2.61431   0.13268   0.87121
O    -2.65197   0.27248   2.07348
O    -3.67278   0.27277   0.07783
C    -4.90283   0.68121   0.69737
H     0.61671   2.10139  -4.43359
H     2.23909   1.58744  -3.88047
H     0.98651   0.36559  -4.25561
H     1.42079   1.58817  -1.70185
H    -0.56262   1.92556   2.12333
H     1.18446   2.30767   1.99557
H    -0.00302   3.34738   1.18352
H     2.77345   2.06769  -0.10297
H     5.18617   1.91692   0.35122
H     6.13579  -0.06639   1.55088
H     4.58628  -1.88486   2.29652
H     2.19079  -1.75041   1.85476
H     1.09071  -2.54804   0.32465
H    -1.24007  -3.03748   1.64816
H    -0.82977  -4.08889   0.28450
H    -2.61586  -3.23100  -0.99237
H    -3.12820  -2.23692   0.37377
H    -2.25834  -0.93092  -1.84235
H    -0.28048  -2.72445  -1.94089
H     0.42977  -1.09754  -1.78286
H    -5.63656   0.75225  -0.11304
H    -5.22090  -0.06421   1.43944
H    -4.77150   1.65843   1.18313
