52
Generated by autodE on: 2022-06-03. E = -1314.030844 Ha. Imaginary frequency = -297.3 cm-1
C     0.95419   0.84085  -3.94126
N     0.74661   1.16226  -2.54116
C    -0.49109   1.33100  -2.05183
O    -1.50395   1.38258  -2.75416
C    -0.63511   1.56941  -0.56168
C    -1.66403   2.53177  -0.29147
N    -2.51776   3.28898  -0.07329
N     0.43147   1.54394   0.30256
C     0.36913   2.32469   1.55899
N     1.11658   0.40943   0.21220
C     2.41071   0.38148   0.77039
C     3.24525   1.51479   0.66694
C     4.56186   1.46223   1.12197
C     5.07404   0.28986   1.68659
C     4.25103  -0.83568   1.78188
C     2.93173  -0.79896   1.32778
C    -0.29598  -0.96467   0.74371
C    -0.11025  -0.94405   2.16233
N     0.12835  -0.97782   3.30145
C     0.01476  -2.26159  -0.02371
C    -1.14085  -3.24522   0.32098
C    -2.35770  -2.63801  -0.43512
C    -1.76189  -1.34532  -1.07298
C    -0.35701  -1.84832  -1.45342
C    -1.46708  -0.41587   0.10461
C    -2.58149   0.16093   0.89186
O    -2.50919   0.56124   2.04135
O    -3.70890   0.22209   0.17324
C    -4.85536   0.79676   0.81632
H     0.44482   1.57331  -4.58268
H     2.02976   0.86659  -4.15358
H     0.56480  -0.16209  -4.18528
H     1.49249   0.95728  -1.88240
H    -0.56175   2.08876   2.08916
H     1.22082   2.05233   2.18727
H     0.41185   3.39520   1.32435
H     2.86313   2.42676   0.20642
H     5.19298   2.34906   1.02772
H     6.10508   0.25291   2.04420
H     4.63478  -1.76051   2.21867
H     2.31418  -1.68893   1.41817
H     1.01927  -2.66257   0.14090
H    -1.30345  -3.32672   1.40543
H    -0.88859  -4.24684  -0.05527
H    -2.70784  -3.30792  -1.23388
H    -3.21231  -2.42468   0.22087
H    -2.37177  -0.89518  -1.86161
H    -0.39459  -2.70817  -2.13667
H     0.31011  -1.08868  -1.86570
H    -5.66358   0.76029   0.07691
H    -5.12841   0.21392   1.70758
H    -4.64969   1.83701   1.10415
