20
Generated by autodE on: 2022-06-17. E = -457.715318 Ha
C    -3.05288  -0.64345  -0.60553
N    -1.80476   0.03783  -0.30343
C    -1.82738   1.39157   0.05473
C    -0.72170   2.06648   0.40674
C     0.64886   1.43706   0.45313
C     0.57128  -0.03329   0.07516
C     1.77200  -0.88415   0.05960
N     2.93819  -0.27784   0.39713
O     1.75370  -2.09524  -0.24144
C    -0.61168  -0.61875  -0.26532
H    -3.59850  -0.11933  -1.40582
H    -3.70668  -0.69667   0.28119
H    -2.83630  -1.66492  -0.94234
H    -2.81376   1.85807   0.02404
H    -0.81895   3.12238   0.66937
H     1.34138   1.98345  -0.22005
H     1.09006   1.56355   1.46301
H     2.99470   0.69796   0.65936
H     3.78723  -0.83237   0.40716
H    -0.63921  -1.67618  -0.53264
