32
Generated by autodE on: 2022-06-17. E = -814.627970 Ha. Imaginary frequency = -478.2 cm-1
C     4.84454   1.43403   0.15757
N     3.57077   0.94041   0.64273
C     2.98460  -0.14634   0.09738
O     3.49356  -0.77044  -0.84785
C     1.64466  -0.53488   0.58175
N     1.11011   0.07543   1.67028
N     0.33420   0.90997   1.90531
C    -0.41050   1.43801  -0.02414
C    -1.88568   1.27302   0.27503
C    -2.37289  -0.10413  -0.12557
C    -3.68556  -0.61724   0.29540
N    -4.43889   0.21330   1.05989
O    -4.11073  -1.74867  -0.01526
C    -1.64122  -0.87543  -0.97827
N    -0.42412  -0.51830  -1.47580
C     0.34300  -1.43854  -2.29676
C     0.25338   0.57051  -0.89309
H     4.79250   1.68267  -0.91395
H     5.10803   2.33986   0.71697
H     5.64666   0.69025   0.29317
H     3.14717   1.39533   1.44375
H     1.40170  -1.59726   0.50272
H     0.01004   2.43924   0.08338
H    -2.06734   1.45654   1.34948
H    -2.46532   2.05721  -0.25436
H    -4.14608   1.15132   1.30133
H    -5.35594  -0.10096   1.35757
H    -2.03083  -1.83645  -1.31777
H    -0.33719  -2.14382  -2.79071
H     0.89598  -0.88196  -3.06817
H     1.07821  -2.00421  -1.69959
H     1.11998   0.91142  -1.45881
