41
Generated by autodE on: 2022-06-09. E = -3718.113535 Ha
C     3.90814  -3.34560   0.18369
O     2.70922  -2.70532  -0.28549
C     2.83039  -1.44866  -0.68849
O     3.87686  -0.82867  -0.71946
C     1.53613  -0.81101  -1.08634
N     0.40698  -1.39540  -0.96858
C    -0.65708  -0.50003  -1.44693
C    -1.16187  -1.04314  -2.82406
C    -1.22832  -2.53135  -2.98908
O    -1.51004  -0.26783  -3.69139
C    -1.89521  -0.54612  -0.55678
C    -2.91357   0.39849  -0.75358
C    -4.05862   0.37721   0.04432
C    -4.20495  -0.59679   1.03697
C    -3.20288  -1.55353   1.21962
C    -2.05451  -1.53238   0.42457
C    -0.00592   0.89320  -1.63893
C    -0.12127   2.03223  -0.56462
O     1.07494   2.76424  -0.87511
C     2.00582   1.71370  -0.59670
C     1.56998   1.30335   0.81740
C     2.38514   0.73043   1.81595
N     3.07336   0.24489   2.62064
C     0.23368   1.51149   0.82759
Br   -0.95266   1.25689   2.23558
C     1.51280   0.60531  -1.58904
H     4.66224  -3.37870  -0.61546
H     4.31085  -2.79938   1.04889
H     3.61325  -4.35999   0.47415
H    -1.81299  -2.78031  -3.88396
H    -1.65815  -3.01014  -2.09781
H    -0.20344  -2.92034  -3.10130
H    -2.81259   1.15450  -1.53460
H    -4.83945   1.12529  -0.11069
H    -5.09957  -0.61130   1.66387
H    -3.31019  -2.31928   1.99149
H    -1.26729  -2.26970   0.57694
H    -0.32376   1.33271  -2.58888
H    -1.01159   2.66259  -0.63473
H     3.04328   2.03759  -0.70976
H     2.03205   0.70907  -2.55144
