27
Generated by autodE on: 2022-06-09. E = -744.613913 Ha
C     4.95130   0.94377  -0.13370
O     3.77670   0.13709  -0.35280
C     2.68317   0.77679  -0.74962
O     2.58296   1.96788  -0.96531
C     1.57510  -0.14807  -0.98426
N     0.60056  -0.47722  -0.36689
C    -0.50027  -0.85013   0.21304
C    -0.43034  -2.10982   0.99527
C     0.88363  -2.85134   0.98073
O    -1.39546  -2.52618   1.62735
C    -1.68212   0.02795   0.08104
C    -1.50792   1.36620  -0.33154
C    -2.60475   2.21134  -0.49068
C    -3.89886   1.74349  -0.23767
C    -4.08180   0.42006   0.17271
C    -2.98900  -0.43458   0.33169
H     5.74051   0.24365   0.16100
H     4.76798   1.67305   0.66781
H     5.22824   1.46828  -1.05893
H     1.69959  -2.21628   1.35962
H     1.15117  -3.13961  -0.04903
H     0.79355  -3.74987   1.60346
H    -0.50372   1.75128  -0.52111
H    -2.44623   3.24459  -0.80823
H    -4.75791   2.40745  -0.35823
H    -5.08822   0.04227   0.36839
H    -3.14479  -1.46297   0.64800
