14
Generated by autodE on: 2022-06-09. E = -2973.384101 Ha
N     2.62257  -1.71641  -1.22965
C     1.63772  -1.43181  -0.67447
C     0.44777  -1.11148   0.00425
C    -0.10084   0.09304   0.26013
Br    0.50133   1.78906  -0.20202
C    -1.46195  -0.20374   0.93786
C    -2.36642  -0.80922  -0.15822
C    -1.84147  -2.01229  -0.40511
C    -0.62366  -2.11939   0.53616
O    -1.09515  -1.37877   1.67144
H    -1.87369   0.58565   1.57453
H    -3.20108  -0.29450  -0.63168
H    -2.13012  -2.76496  -1.13730
H    -0.25409  -3.11440   0.80081
