41
Generated by autodE on: 2022-06-09. E = -3718.001995 Ha. Imaginary frequency = -345.9 cm-1
C     3.76407  -3.45607   1.04253
O     2.61706  -2.67233   0.65803
C     2.66721  -2.08298  -0.52919
O     3.57486  -2.15720  -1.33061
C     1.49157  -1.21856  -0.74329
N     0.30483  -1.45461  -0.85360
C    -0.90706  -1.08653  -1.19972
C    -1.16426  -0.91197  -2.65875
C    -0.14689  -1.46943  -3.62650
O    -2.20739  -0.40990  -3.06669
C    -1.92887  -1.06448  -0.13945
C    -3.23520  -0.57937  -0.34764
C    -4.14531  -0.53130   0.70963
C    -3.77965  -0.96338   1.98723
C    -2.48649  -1.45295   2.20295
C    -1.57249  -1.50466   1.15506
C     0.90792   1.36171  -1.94071
C     0.77681   2.50584  -0.92670
O     2.16297   2.77187  -0.62868
C     2.49064   1.41971  -0.27002
C     1.42737   1.16960   0.83802
C     1.55998   0.33581   1.96338
N     1.68753  -0.35388   2.89525
C     0.35342   1.87147   0.40655
Br   -1.33370   2.05009   1.15861
C     2.01212   0.64922  -1.53194
H     3.55611  -3.80348   2.06024
H     3.88464  -4.30919   0.36054
H     4.66906  -2.83283   1.02540
H    -0.42831  -1.16583  -4.64252
H    -0.15973  -2.57049  -3.56089
H     0.88101  -1.14663  -3.41868
H    -3.52167  -0.22411  -1.33348
H    -5.15126  -0.14432   0.53052
H    -4.49631  -0.91916   2.81056
H    -2.18560  -1.79392   3.19620
H    -0.56781  -1.88903   1.33798
H     0.33326   1.28989  -2.86010
H     0.23087   3.40035  -1.24089
H     3.53642   1.30129   0.02727
H     2.70031   0.09926  -2.17829
