46
Generated by autodE on: 2022-06-01. E = -1333.982973 Ha
C     3.63074  -0.11881   3.55749
N     2.48724   0.04431   2.68214
C     2.45527  -0.53079   1.46199
O     3.40209  -1.13538   0.94851
N     1.25236  -0.39914   0.77682
N     0.32100   0.58758   1.17414
C    -0.83183   0.37558   0.30767
C    -1.59794   1.72159   0.22421
O    -1.28119   2.65257   0.96935
N    -2.59900   1.77245  -0.65694
C    -3.37174   2.98603  -0.84613
C    -1.74595  -0.69350   0.96387
O    -2.31703  -1.55513   0.29136
N    -1.87220  -0.56392   2.28645
C    -2.67273  -1.46912   3.08737
C    -0.24618  -0.16167  -1.04063
C    -1.23971  -1.01097  -1.87744
C    -0.96245  -2.43289  -2.25635
O    -2.20245  -0.42342  -2.35719
C     0.30949   0.91551  -2.07546
C     1.20505   1.93124  -1.38438
C     2.35136   1.28766  -1.12797
C     2.12244  -0.13170  -1.62418
O     1.26001   0.08039  -2.75217
C     1.12206  -0.78290  -0.60686
F     1.20260  -2.15560  -0.69082
H     3.55448   0.60439   4.37925
H     4.56247   0.07247   3.00697
H     3.68845  -1.13379   3.98655
H     1.61918   0.41666   3.05499
H     0.70446   1.51909   0.98231
H    -2.67405   1.01073  -1.34172
H    -3.76713   3.34560   0.11499
H    -4.21077   2.76995  -1.51870
H    -2.76084   3.79137  -1.28662
H    -1.25362   0.10565   2.73775
H    -2.90752  -0.98909   4.04567
H    -2.14147  -2.41481   3.28610
H    -3.60970  -1.70379   2.56424
H    -0.03585  -2.46860  -2.84926
H    -0.81209  -3.05954  -1.37038
H    -1.80416  -2.80162  -2.85644
H    -0.45632   1.29662  -2.75553
H     0.91021   2.94622  -1.12020
H     3.23261   1.63568  -0.59043
H     2.98264  -0.75926  -1.87093
