28
Generated by autodE on: 2022-06-01. E = -774.411387 Ha
C    -5.05529   0.44737  -0.12537
N    -3.66995   0.86408  -0.06057
C    -2.66260  -0.02305  -0.08518
O    -2.81833  -1.24949  -0.17032
N    -1.39684   0.58910  -0.00516
N    -0.46212  -0.30926  -0.03294
C     0.84906  -0.17175   0.01687
C     1.54079   1.13948   0.12038
O     2.78585   1.20613   0.17009
N     0.76426   2.23268   0.15588
C     1.33909   3.55845   0.25352
C     1.54352  -1.49723  -0.04537
O     0.86488  -2.53582  -0.13593
N     2.87850  -1.48422   0.00119
C     3.65179  -2.70698  -0.04885
H    -5.69384   1.33863  -0.11499
H    -5.25817  -0.12175  -1.04650
H    -5.32416  -0.18962   0.73275
H    -3.43808   1.84880   0.01751
H    -0.77589  -1.30632  -0.10579
H    -0.24913   2.09593   0.11338
H     1.93387   3.66904   1.17423
H     0.52673   4.29495   0.26444
H     2.00141   3.77007  -0.60101
H     3.31617  -0.56121   0.07641
H     4.71795  -2.45428  -0.00493
H     3.45682  -3.26529  -0.97847
H     3.40879  -3.36905   0.79782
