46
Generated by autodE on: 2022-06-01. E = -1333.914399 Ha. Imaginary frequency = -321.8 cm-1
C     4.12940  -1.31530   2.57201
N     2.78518  -1.33689   2.02967
C     2.00747  -0.24066   2.02918
O     2.27878   0.81804   2.59898
N     0.80317  -0.43166   1.30309
N     0.07083   0.67020   1.24616
C    -1.09970   0.67322   0.61937
C    -1.53700   2.06911   0.25190
O    -0.81921   3.02838   0.57238
N    -2.66781   2.17939  -0.44617
C    -3.15860   3.46580  -0.89528
C    -2.08491  -0.45744   0.73347
O    -3.18263  -0.39379   0.15536
N    -1.75670  -1.47633   1.53966
C    -2.67034  -2.57922   1.76855
C     0.06176  -0.34520  -1.37505
C    -1.11034  -0.95277  -1.99633
C    -1.45712  -2.38741  -1.68594
O    -1.77310  -0.32096  -2.82492
C     0.83717   0.73678  -2.17726
C     1.43131   1.79115  -1.24727
C     2.41928   1.17246  -0.59119
C     2.40204  -0.26013  -1.12144
O     2.02914  -0.03648  -2.49674
C     1.09137  -0.95769  -0.63197
F     1.15952  -2.27688  -0.38556
H     4.48045  -2.34731   2.69452
H     4.82995  -0.77955   1.90917
H     4.13464  -0.81914   3.55233
H     2.48357  -2.13518   1.47891
H     0.52815   1.58816   1.36760
H    -3.19389   1.31342  -0.59149
H    -2.41799   3.96638  -1.53866
H    -3.37218   4.13182  -0.04396
H    -4.08121   3.31222  -1.46730
H    -0.78163  -1.55195   1.82905
H    -2.22815  -3.25009   2.51478
H    -2.85941  -3.14880   0.84463
H    -3.63608  -2.21110   2.14509
H    -0.87893  -3.02177  -2.38033
H    -1.18443  -2.69113  -0.67047
H    -2.52630  -2.55425  -1.86904
H     0.31271   1.07904  -3.07326
H     1.05675   2.80484  -1.12437
H     3.06098   1.54775   0.20304
H     3.30360  -0.87254  -1.01980
