31
Generated by autodE on: 2022-06-16. E = -685.227887 Ha
C     3.80757  -0.75893  -0.89300
N     2.49296  -0.16506  -0.74455
C     1.69232  -0.39035   0.30028
O     1.95910  -1.09585   1.27364
C     0.31857   0.31842   0.24723
C     0.28071   1.20188   1.41341
N     0.28107   1.91624   2.32788
N     0.17808   1.19692  -0.98245
N    -0.95348   1.12406  -1.46356
C    -1.87983   0.23719  -0.70228
C    -2.76615   1.17052   0.13628
C    -2.75768  -0.51590  -1.69749
C    -0.90521  -0.66105   0.14486
C    -0.48542  -1.91623  -0.63722
C    -1.46200  -1.09019   1.50148
H     4.57845   0.02261  -0.97086
H     4.01802  -1.38296  -0.01681
H     3.85073  -1.38493  -1.79734
H     2.15692   0.47732  -1.45770
H    -2.20068   1.72988   0.89327
H    -3.54353   0.58239   0.64367
H    -3.26270   1.89533  -0.52492
H    -3.37718  -1.25153  -1.16372
H    -2.16860  -1.04163  -2.45990
H    -3.42900   0.18966  -2.20829
H    -1.35295  -2.57187  -0.78746
H     0.26238  -2.48422  -0.06850
H    -0.06164  -1.67490  -1.62182
H    -2.35484  -1.71623   1.35391
H    -0.71038  -1.68613   2.03915
H    -1.73984  -0.24224   2.14026
