13
Generated by autodE on: 2022-06-16. E = -449.218691 Ha
C    -3.04739  -0.34498   0.35822
N    -1.65345  -0.59969   0.04373
C    -0.71423   0.33781   0.25423
O    -0.94174   1.44997   0.73408
C     0.67780  -0.04779  -0.13129
C     1.08083  -1.28798  -0.67098
N     1.35901  -2.33075  -1.11310
N     1.59450   0.88230   0.06791
N     2.33150   1.71165   0.25843
H    -3.46493   0.45275  -0.27703
H    -3.16319  -0.04045   1.40929
H    -3.61849  -1.26578   0.19047
H    -1.40250  -1.48372  -0.38762
