31
Generated by autodE on: 2022-06-16. E = -685.161032 Ha. Imaginary frequency = -445.7 cm-1
C     3.58792  -1.19509  -0.34517
N     2.59682  -0.35554   0.30117
C     1.62856   0.25447  -0.41172
O     1.60348   0.27544  -1.64656
C     0.52819   0.87094   0.38338
C     0.67839   1.19069   1.75264
N     0.78619   1.38279   2.89863
N    -0.29494   1.69638  -0.35220
N    -1.27935   1.55673  -0.95517
C    -1.97716  -0.37310  -0.68953
C    -3.36581   0.07532  -0.28646
C    -1.84612  -0.80289  -2.13511
C    -1.13080  -0.95476   0.28426
C    -0.19188  -2.07110  -0.09030
C    -1.53090  -0.93575   1.73565
H     4.01506  -0.67686  -1.21450
H     3.15387  -2.14900  -0.69002
H     4.39152  -1.41100   0.36985
H     2.49400  -0.43026   1.30880
H    -3.37432   0.64571   0.65217
H    -4.01978  -0.80412  -0.14557
H    -3.81523   0.70244  -1.07064
H    -2.24291  -1.82447  -2.27363
H    -2.42091  -0.13245  -2.79135
H    -0.80187  -0.79821  -2.47536
H     0.59158  -2.21160   0.66662
H    -0.77098  -3.01296  -0.13977
H     0.28283  -1.93494  -1.06855
H    -0.68456  -1.19444   2.38734
H    -1.93277   0.03349   2.05948
H    -2.32122  -1.69046   1.90838
