37
Generated by autodE on: 2022-05-31. E = -1223.611838 Ha
C    -2.48690   3.50101  -0.43127
O    -1.80453   2.28681  -0.07396
C    -1.79922   1.31758  -0.97793
O    -2.38305   1.33788  -2.03668
C    -1.05613   0.09828  -0.45801
N    -0.82186  -0.94898  -1.41301
C    -0.41563  -1.95920  -0.40370
C    -0.19665  -3.36782  -0.88644
C    -1.55046  -1.79941   0.62805
O    -2.06895  -2.61435   1.34279
O    -1.94628  -0.50111   0.54948
C     0.83059  -1.23453   0.19047
F     1.92947  -1.52660  -0.58196
C     1.12713  -1.44374   1.70474
C     2.36234  -0.62989   2.05238
C     1.95685   0.64621   2.05206
C     0.47804   0.61139   1.68512
O     0.07988  -0.64457   2.26275
C     0.37413   0.27421   0.14753
C     1.15382   1.18262  -0.79433
O     0.61367   1.86724  -1.64256
O     2.46020   1.16778  -0.59995
C     3.25624   2.02616  -1.43555
H    -2.00479   3.95461  -1.30899
H    -2.39876   4.16232   0.43754
H    -3.54342   3.29473  -0.65207
H    -1.69432  -1.21002  -1.88141
H    -1.11548  -3.75932  -1.34640
H     0.61552  -3.39628  -1.62411
H     0.06828  -4.01412  -0.03740
H     1.06968  -2.48330   2.04472
H     3.36527  -1.03032   2.19234
H     2.54540   1.55121   2.19162
H    -0.16639   1.43111   2.01532
H     2.95677   3.07441  -1.29766
H     4.29244   1.87692  -1.11274
H     3.13720   1.74252  -2.49053
