19
Generated by autodE on: 2022-05-31. E = -634.779123 Ha
C     3.46917  -1.20265  -0.46261
O     2.05400  -1.00525  -0.57035
C     1.55118   0.09347   0.01964
O     2.23757   0.90353   0.62144
C     0.10812   0.17761  -0.15221
C    -0.76545   1.01487   0.43247
F    -0.55457   1.99125   1.28668
C    -2.17472   0.56767   0.01475
C    -2.42719  -0.78981   0.71333
C    -1.58786  -1.63934   0.11488
C    -0.82484  -0.78819  -0.92609
O    -1.86983   0.13031  -1.31897
H     4.01265  -0.36454  -0.92305
H     3.68680  -2.13412  -0.99809
H     3.76803  -1.29287   0.59209
H    -2.96121   1.32866   0.05535
H    -3.11607  -0.94554   1.54221
H    -1.40119  -2.69340   0.31657
H    -0.38073  -1.30362  -1.78253
