18
Generated by autodE on: 2022-05-31. E = -588.777573 Ha
C    -3.81197   0.31091  -0.16493
O    -2.44922   0.11231   0.24063
C    -1.51950   0.28702  -0.70180
O    -1.74158   0.59753  -1.86193
C    -0.17848   0.06435  -0.19496
N     0.93735   0.16573  -0.91130
C     2.03594  -0.10490  -0.15744
C     3.43692  -0.08726  -0.64310
C     1.56136  -0.40194   1.14935
O     2.08968  -0.70721   2.20895
O     0.14224  -0.27660   1.05682
H    -4.08024  -0.39175  -0.96700
H    -3.96173   1.34216  -0.51602
H    -4.42080   0.12088   0.72614
H     0.93846   0.41777  -1.90186
H     3.71838   0.89985  -1.04563
H     3.60491  -0.83451  -1.43660
H     4.10590  -0.32103   0.19626
