37
Generated by autodE on: 2022-05-31. E = -1223.556090 Ha. Imaginary frequency = -280.7 cm-1
C    -1.83317   3.70611  -0.69706
O    -1.84382   2.33192  -0.26884
C    -1.51223   1.42703  -1.18187
O    -1.24433   1.65389  -2.34644
C    -1.41256   0.07966  -0.60670
N    -1.14153  -1.03516  -1.30458
C    -1.01585  -2.06982  -0.39953
C    -0.78187  -3.48475  -0.78132
C    -1.75464  -1.63550   0.77258
O    -2.13191  -2.20329   1.76976
O    -1.96920  -0.25693   0.57397
C     0.92440  -1.29673   0.44045
F     1.68708  -2.10499  -0.32013
C     1.03212  -1.45425   1.97125
C     2.40748  -0.87426   2.36864
C     2.28977   0.44668   2.18800
C     0.85372   0.65824   1.66413
O     0.16217  -0.39357   2.36937
C     0.83978   0.09226   0.23164
C     1.35704   0.77511  -0.93728
O     1.52246   0.26510  -2.03837
O     1.58927   2.08074  -0.69480
C     2.02198   2.87656  -1.80561
H    -0.81594   3.99601  -0.99697
H    -2.15649   4.29054   0.17109
H    -2.52569   3.85023  -1.53769
H    -0.63319  -0.99050  -2.19002
H     0.02680  -3.56055  -1.52066
H    -1.69526  -3.93074  -1.20853
H    -0.50474  -4.06133   0.11199
H     0.73468  -2.42099   2.39062
H     3.27100  -1.46318   2.67478
H     3.03651   1.23179   2.30058
H     0.38054   1.63277   1.81706
H     2.12370   3.89865  -1.42261
H     2.98965   2.51793  -2.18586
H     1.27690   2.84614  -2.61258
