56
Generated by autodE on: 2022-10-22. E = -1378.316125 Ha
C     4.62546   9.93059  10.94899
O     4.48271   9.55686  12.33146
C     3.26732   9.64720  12.84888
O     2.29599  10.07115  12.26165
C     3.24952   9.20153  14.32193
N     3.19941  10.44117  15.07767
C     2.05032  10.43598  15.66949
C     1.73028  11.57954  16.49094
N     1.62191  12.54638  17.12600
C     1.23912   9.20698  15.45654
C     2.01466   8.39545  14.68350
C     1.90752   6.95245  14.20072
C     1.97690   7.04308  12.63902
C     0.70131   7.23653  11.87464
O     3.05282   6.99123  12.07071
C     3.10930   6.13971  14.72180
C     3.44100   4.92237  14.10512
C     4.45740   4.11252  14.61415
C     5.16125   4.49885  15.75973
C     4.82841   5.69732  16.39318
C     3.80927   6.50667  15.87947
C     0.61608   6.18850  14.59649
C     0.45810   5.81160  16.08134
C    -0.60186   6.59983  16.84691
C    -0.27354   8.05062  17.18772
C    -0.17319   9.06709  16.03399
O    -1.11566   8.71798  15.04528
C    -1.25832   9.64077  13.97016
O    -0.44301  10.37544  16.50526
C    -1.69961  10.63985  17.10815
H     4.31390  10.97363  10.79956
H     4.01702   9.26450  10.32123
H     5.68900   9.81027  10.71518
H     4.19164   8.67636  14.51852
H     0.04897   7.96975  12.36400
H     0.93636   7.55150  10.85045
H     0.15075   6.28269  11.84075
H     2.89884   4.59467  13.21659
H     4.69953   3.17266  14.11215
H     5.95815   3.86616  16.15747
H     5.35778   6.00790  17.29707
H     3.55349   7.42691  16.40685
H    -0.25629   6.76198  14.26814
H     0.62992   5.26584  13.99919
H     0.18245   4.74681  16.13197
H     1.41898   5.89050  16.61175
H    -1.55887   6.56432  16.30213
H    -0.77887   6.08798  17.80728
H    -1.06672   8.41281  17.85589
H     0.66590   8.11038  17.75931
H    -1.91216   9.15955  13.23107
H    -0.29001   9.87363  13.49965
H    -1.72452  10.58203  14.30118
H    -2.51456  10.10114  16.60079
H    -1.70515  10.37988  18.17939
H    -1.87044  11.72138  17.00979
