13
Generated by autodE on: 2022-10-22. E = -453.000272 Ha
C    -2.88795   0.38059   0.50612
O    -1.50768   0.07334   0.26054
C    -1.23901  -0.63360  -0.84165
O    -2.07684  -1.02146  -1.63422
C     0.19913  -0.90467  -1.00463
N     1.05867  -0.46926  -0.16106
C     1.80808  -0.13416   0.72678
C     2.59090   0.97062   1.02344
N     3.28984   1.83445   1.38790
H    -3.30046   0.97970  -0.31857
H    -3.47350  -0.54355   0.61710
H    -2.90655   0.95572   1.43880
H     0.53608  -1.48559  -1.86704
