45
Generated by autodE on: 2022-06-22. E = -1238.361908 Ha
C    -0.02145  -5.33947  -0.46294
N    -0.03699  -3.88934  -0.51861
C     0.00809  -3.14885   0.59087
O     0.08678  -3.59598   1.73610
C    -0.00300  -1.63828   0.39107
O    -0.36565  -1.25684  -0.95871
C     0.21991  -0.04027  -1.15348
O     0.12098   0.58566  -2.17103
C     0.95954   0.24903   0.16769
C     2.14723   1.15452   0.10000
C     3.33302   0.80233   0.75889
C     4.42978   1.66708   0.73645
C     4.34834   2.88996   0.06337
C     3.16451   3.24476  -0.59008
C     2.06530   2.38233  -0.57509
O     1.29014  -1.10887   0.53839
C    -0.11535   0.57858   1.26215
C    -1.00085   1.79105   0.99329
C    -2.10686   1.46294   0.02295
C    -2.60195   2.37622  -1.01660
N    -1.99922   3.58840  -1.11020
O    -3.52584   2.07177  -1.79686
C    -2.70108   0.24382   0.14414
N    -2.27476  -0.72626   1.00707
C    -2.98120  -2.00073   1.02686
C    -0.86749  -0.77663   1.36995
H    -0.13380  -5.73371  -1.47950
H     0.92445  -5.70930  -0.03739
H    -0.84713  -5.71381   0.16150
H    -0.10763  -3.41734  -1.41503
H     3.39584  -0.15027   1.28621
H     5.35176   1.38348   1.24930
H     5.20686   3.56542   0.04782
H     3.09366   4.19827  -1.11831
H     1.14752   2.66183  -1.09279
H     0.46905   0.73608   2.17675
H    -0.36350   2.61970   0.65710
H    -1.43233   2.11247   1.95762
H    -2.31439   4.22929  -1.82992
H    -1.25366   3.88077  -0.49257
H    -3.58027  -0.00191  -0.45543
H    -2.71581  -2.55378   1.93820
H    -4.06464  -1.82314   1.03125
H    -2.73665  -2.62887   0.15236
H    -0.76114  -1.21726   2.36823
