45
Generated by autodE on: 2022-06-22. E = -1238.300208 Ha. Imaginary frequency = -362.0 cm-1
C    -1.14841  -5.20958   0.01691
N    -0.66002  -3.89176  -0.33908
C     0.09026  -3.16312   0.50436
O     0.59113  -3.57854   1.55285
C     0.26831  -1.73606   0.12925
O    -0.21914  -1.23886  -1.02930
C     0.43001  -0.00950  -1.26370
O     0.08352   0.73331  -2.15997
C     1.42491   0.05275  -0.22917
C     2.49722   1.00259  -0.02915
C     3.46474   0.78690   0.97330
C     4.46859   1.72858   1.18963
C     4.52026   2.89817   0.42121
C     3.55964   3.11905  -0.57093
C     2.55307   2.18110  -0.80210
O     1.44834  -1.15855   0.39863
C    -0.30803   0.68686   1.31831
C    -0.97307   1.87840   0.68582
C    -2.21083   1.45697  -0.07800
C    -2.84707   2.33054  -1.07720
N    -2.30794   3.56554  -1.22851
O    -3.83137   1.98133  -1.75841
C    -2.78285   0.24585   0.15895
N    -2.28367  -0.68476   1.02815
C    -2.96369  -1.96555   1.17569
C    -0.97172  -0.52636   1.50473
H    -1.43223  -5.74905  -0.89536
H    -2.02855  -5.14447   0.68009
H    -0.36266  -5.77311   0.53640
H    -1.08229  -3.41829  -1.13294
H     3.42171  -0.11993   1.57855
H     5.21571   1.55137   1.96663
H     5.30744   3.63481   0.59660
H     3.59468   4.02902  -1.17423
H     1.80981   2.34925  -1.58105
H     0.57085   0.86962   1.93509
H    -0.25358   2.40187   0.03140
H    -1.22346   2.61519   1.47725
H    -2.71368   4.19005  -1.91670
H    -1.52098   3.89304  -0.68326
H    -3.70163  -0.03527  -0.35905
H    -2.46594  -2.55143   1.95848
H    -4.00992  -1.80621   1.47492
H    -2.95379  -2.54317   0.23864
H    -0.69121  -1.18413   2.32792
