41
Generated by autodE on: 2022-06-18. E = -977.398401 Ha
C    -3.97419  -0.98193  -2.45379
O    -2.72988  -0.47063  -1.94729
C    -2.49574  -0.63846  -0.65053
O    -3.27284  -1.17273   0.11119
C    -1.12302  -0.08080  -0.24972
C    -1.05212   0.08195   1.26930
O    -0.92197   1.15483   1.81935
O    -1.11553  -1.07831   1.90370
C    -1.00017  -1.04253   3.33656
N    -0.90226   1.22465  -0.86844
O    -0.18396   0.99510  -2.09859
C     0.21793  -0.37747  -2.18885
C     0.07092  -0.99101  -0.79217
C    -0.26172  -2.48162  -0.85196
C     1.28105  -0.75066   0.08567
C     2.12122   0.30054  -0.00602
C     3.23142   0.51664   0.90529
C     4.10251   1.55448   0.89224
C     5.20232   1.64687   1.91218
C     4.06518   2.68357  -0.09842
H    -4.03485  -2.06670  -2.28689
H    -4.81971  -0.48421  -1.95859
H    -3.97473  -0.75935  -3.52658
H    -0.03010  -0.61375   3.62525
H    -1.81412  -0.44409   3.76888
H    -1.07255  -2.08409   3.66802
H    -0.23307   1.71856  -0.26967
H     1.25728  -0.41310  -2.54389
H    -0.43031  -0.89766  -2.91058
H     0.59225  -3.03255  -1.27434
H    -1.13672  -2.67829  -1.48845
H    -0.46188  -2.87755   0.15284
H     1.42785  -1.47627   0.89249
H     1.96864   1.03510  -0.80268
H     3.35900  -0.24504   1.68370
H     5.18973   0.80098   2.61503
H     6.19042   1.67790   1.41915
H     5.12045   2.58427   2.49098
H     3.94182   3.64693   0.42709
H     5.02664   2.75006  -0.63727
H     3.26205   2.59446  -0.84105
