18
Generated by autodE on: 2022-07-27. E = -625.853375 Ha
C    -2.61752  -0.51581  -2.16138
O    -1.50130  -0.87330  -1.32897
C    -1.01713   0.08281  -0.54104
O    -1.43691   1.22130  -0.51216
C     0.11074  -0.39470   0.30088
N     0.15927  -1.62202   0.79592
O    -0.63835  -2.56226   0.66194
C     1.25582   0.45056   0.71379
O     2.12061   0.04454   1.47282
O     1.25242   1.65196   0.15581
C     2.34227   2.52577   0.49664
H    -3.46344  -0.18305  -1.54326
H    -2.33290   0.28621  -2.85728
H    -2.88141  -1.42491  -2.71314
H     0.99907  -1.77369   1.39638
H     2.15655   3.45837  -0.04742
H     2.35766   2.71037   1.58008
H     3.29801   2.08216   0.18351
