41
Generated by autodE on: 2022-06-18. E = -977.358217 Ha. Imaginary frequency = -465.7 cm-1
C    -2.75661  -1.36639  -3.51902
O    -1.72351  -1.71477  -2.59108
C    -0.95304  -0.70553  -2.15080
O    -1.10589   0.44375  -2.53561
C     0.06203  -1.14161  -1.18256
C     1.23220  -0.33029  -0.81093
O     2.18816  -0.80763  -0.21255
O     1.13152   0.96384  -1.10196
C     2.23620   1.80064  -0.72429
N     0.16771  -2.44055  -0.78121
O    -0.90446  -3.08306  -0.41942
C    -1.78972  -2.15526   0.88187
C    -1.45726  -0.76938   0.87019
C    -2.42431   0.22456   0.28528
C    -0.39051  -0.32195   1.73034
C    -0.02258   0.97736   1.92666
C     1.09188   1.36489   2.75209
C     1.60628   2.61814   2.88068
C     2.79013   2.87470   3.76638
C     1.08101   3.82305   2.15652
H    -3.44880  -0.63672  -3.07391
H    -2.32867  -0.94399  -4.44013
H    -3.28599  -2.30002  -3.74314
H     1.93626   2.82188  -0.98418
H     2.43143   1.72225   0.35328
H     3.13743   1.51383  -1.28528
H     1.01107  -2.62238  -0.22222
H    -1.39484  -2.74960   1.70920
H    -2.79173  -2.43408   0.54970
H    -1.91720   1.04767  -0.23648
H    -3.11016  -0.26109  -0.42223
H    -3.03108   0.67404   1.09096
H     0.18797  -1.10534   2.23258
H    -0.57920   1.76441   1.41249
H     1.58430   0.55516   3.30307
H     3.13572   1.96284   4.27468
H     3.63041   3.29045   3.18179
H     2.54730   3.63324   4.53211
H     0.76600   4.59774   2.87770
H     1.88475   4.27696   1.55060
H     0.23591   3.60516   1.49147
