31
Generated by autodE on: 2022-06-12. E = -817.566312 Ha
C    -1.94421   3.39464  -0.10176
N    -1.35989   2.09624   0.16575
C    -1.70643   0.96840  -0.49354
O    -2.68923   0.92257  -1.25873
C    -0.93199  -0.24693  -0.17650
N     0.37941  -0.28917   0.12453
C     1.44113   0.48190  -0.08847
C     1.42407   1.70987  -0.92842
C     2.66316  -0.07913   0.49216
O     2.69902  -1.12710   1.10853
O     3.74225   0.67714   0.27198
C     4.98483   0.19210   0.79580
C    -1.57816  -1.56182   0.02625
O    -0.92383  -2.50323   0.51978
N    -2.86879  -1.68296  -0.33099
C    -3.57299  -2.94263  -0.22744
H    -1.17437   4.10986  -0.43218
H    -2.69543   3.28934  -0.89280
H    -2.43434   3.80139   0.79690
H    -0.60291   2.05372   0.83882
H     0.61145  -1.19908   0.56900
H     1.16859   2.62284  -0.36508
H     2.41841   1.86286  -1.36617
H     0.68946   1.60744  -1.74259
H     5.24641  -0.77300   0.33752
H     5.73616   0.94798   0.53961
H     4.92355   0.07180   1.88723
H    -3.27650  -0.89332  -0.83074
H    -3.21335  -3.68049  -0.96560
H    -4.64244  -2.76923  -0.40129
H    -3.44452  -3.38012   0.77358
