66
Generated by autodE on: 2022-06-12. E = -2084.620068 Ha. Imaginary frequency = -327.8 cm-1
C   -19.02688  -4.58922  -9.98583
N   -19.21462  -5.87768 -10.61074
C   -19.23102  -6.07740 -11.93956
O   -19.17374  -5.14655 -12.76522
C   -19.41819  -7.48431 -12.40058
C   -19.70848  -8.59159 -11.45838
O   -19.55140  -8.49365 -10.22581
N   -20.15865  -9.75681 -12.00763
C   -20.40305 -10.90801 -11.15710
N   -20.00332  -7.62957 -13.63814
C   -19.51598  -7.31288 -14.84965
C   -20.40196  -7.71796 -15.99869
C   -18.81586  -5.98470 -15.14019
O   -19.44245  -5.09957 -15.69030
O   -17.51635  -5.92445 -14.90921
C   -16.87553  -4.67107 -15.17892
C   -17.65943  -8.64568 -14.44778
C   -17.33918  -8.37208 -13.27190
C   -16.31766  -8.39125 -12.19724
C   -16.53422  -9.60690 -11.28488
O   -17.26269 -10.53507 -11.56282
O   -15.74996  -9.58550 -10.21443
C   -15.83826 -10.71036  -9.32474
C   -16.30744  -7.06155 -11.41325
O   -16.48115  -6.93416 -10.22346
O   -16.02868  -6.05894 -12.24317
C   -15.88069  -4.73147 -11.71658
C   -14.86725  -8.52142 -12.79348
C   -14.47476  -9.84185 -13.45968
C   -14.82733 -10.02935 -14.94109
C   -16.24063 -10.52568 -15.28464
C   -17.30025  -9.45729 -15.62278
C   -16.94229  -8.63684 -16.85355
Cl  -18.81509 -10.51301 -16.06659
H   -19.15303  -3.79484 -10.73130
H   -19.77041  -4.44172  -9.18734
H   -18.02330  -4.50118  -9.53859
H   -19.24327  -6.72837 -10.04275
H   -19.84417  -9.97483 -12.94970
H   -20.86537 -11.69930 -11.76132
H   -19.47295 -11.29576 -10.71212
H   -21.09048 -10.63860 -10.34365
H   -20.68959  -8.38317 -13.68881
H   -20.89606  -8.67429 -15.79152
H   -19.83061  -7.81089 -16.92964
H   -21.16617  -6.93961 -16.15297
H   -15.81522  -4.82241 -14.94941
H   -17.00210  -4.39274 -16.23468
H   -17.29851  -3.88678 -14.53597
H   -15.58308 -11.63896  -9.85446
H   -15.11691 -10.51616  -8.52314
H   -16.85522 -10.78557  -8.91403
H   -15.43919  -4.76133 -10.71224
H   -16.85896  -4.23691 -11.68783
H   -15.21756  -4.20234 -12.41058
H   -14.18340  -8.33813 -11.95090
H   -14.73787  -7.69322 -13.50249
H   -14.84071 -10.70523 -12.87853
H   -13.37640  -9.88872 -13.38706
H   -14.13392 -10.78964 -15.33365
H   -14.59081  -9.10556 -15.49397
H   -16.18073 -11.17934 -16.16749
H   -16.62941 -11.13886 -14.45806
H   -16.05978  -8.01956 -16.62917
H   -16.70280  -9.30035 -17.69670
H   -17.75293  -7.96115 -17.15000
