31
Generated by autodE on: 2022-06-17. E = -780.336645 Ha
C     3.61013  -0.50182   1.08787
O     2.39798  -0.99221   0.49500
C     1.68400  -0.12479  -0.21624
O     2.05270   1.00156  -0.48160
C     0.38791  -0.74640  -0.76357
C     0.75642  -2.00245  -1.56200
N    -0.28421   0.22316  -1.66210
N    -1.32205   0.86001  -0.89843
C    -1.02325   2.01571  -0.29365
N    -0.82487   3.08828   0.12751
C    -1.95861  -0.23849  -0.12517
C    -2.82581   0.31206   1.00123
C    -2.81071  -1.08265  -1.07235
C    -0.67928  -1.05758   0.33484
C    -0.32696  -0.67248   1.74931
O     0.41020   0.24169   2.05706
H     4.04715  -1.34931   1.62791
H     4.30186  -0.14555   0.31167
H     3.38228   0.31801   1.78428
H     1.45373  -1.74765  -2.37466
H     1.23230  -2.74823  -0.91182
H    -0.15156  -2.43704  -2.00149
H     0.37219   0.94068  -1.97574
H    -3.65634   0.89302   0.57432
H    -2.27309   0.96159   1.69343
H    -3.25045  -0.52309   1.57510
H    -2.22484  -1.46087  -1.91894
H    -3.22434  -1.93963  -0.52212
H    -3.64341  -0.47797  -1.46081
H    -0.92692  -2.12638   0.33911
H    -0.84665  -1.26754   2.53343
