14
Generated by autodE on: 2022-06-17. E = -270.687340 Ha
C    -1.53149   1.78774   0.11878
C    -0.84326   0.45863   0.19319
C    -1.67909  -0.65130   0.75706
C     0.44051   0.32925  -0.23386
C     1.22093  -0.89553  -0.22341
O     2.38108  -0.96174  -0.62264
H    -2.44474   1.70716  -0.49598
H    -1.86510   2.09852   1.12403
H    -0.88553   2.57079  -0.30155
H    -1.16484  -1.61682   0.82331
H    -2.03023  -0.37037   1.76444
H    -2.58536  -0.77713   0.14047
H     0.96436   1.20570  -0.63003
H     0.72371  -1.81088   0.16881
