17
Generated by autodE on: 2022-07-27. E = -509.621074 Ha
C     2.75696  -0.66299   2.18602
O     1.91160  -1.07055   1.10138
C     0.93065  -0.22716   0.75802
O     0.72906   0.83479   1.31238
C     0.15596  -0.78785  -0.37770
C     0.50630  -2.11726  -0.95554
N    -0.84993  -0.12259  -0.89738
N    -1.31938   1.06625  -0.53940
C    -2.33941   1.49890  -1.24730
N    -3.24932   1.99379  -1.80379
H     2.16578  -0.52718   3.10323
H     3.26980   0.27801   1.93915
H     3.48602  -1.47029   2.31863
H     1.54551  -2.11278  -1.31918
H     0.43568  -2.89964  -0.18384
H    -0.16128  -2.37794  -1.78916
H    -1.31516  -0.60385  -1.68246
