17
Generated by autodE on: 2022-06-17. E = -509.629918 Ha
C    -3.74640  -0.07913  -0.20030
O    -2.47357   0.58809  -0.18794
C    -1.39877  -0.17945  -0.05954
O    -1.42369  -1.39474   0.04859
C    -0.13898   0.60273  -0.06009
C    -0.02897   2.07404  -0.18293
N     0.93184  -0.13968   0.06325
N     2.16702   0.33913   0.09053
C     3.11935  -0.56139   0.21869
N     4.05270  -1.26642   0.32906
H    -3.89938  -0.62325   0.74259
H    -4.49752   0.71039  -0.31262
H    -3.79855  -0.78191  -1.04408
H     0.58978   2.33324  -1.05879
H     0.48533   2.48847   0.70083
H    -1.01640   2.53524  -0.28188
H     0.75987  -1.15654   0.14245
