31
Generated by autodE on: 2022-06-17. E = -780.292229 Ha. Imaginary frequency = -339.8 cm-1
C     3.41192  -0.33594   1.55558
O     2.54177  -0.81654   0.51951
C     1.66550   0.05735   0.01757
O     1.61757   1.22342   0.34663
C     0.79553  -0.61341  -1.00500
C     1.28575  -1.87354  -1.64597
N    -0.06000   0.13937  -1.71130
N    -0.81599   1.02569  -1.02664
C    -1.60055   1.81466  -1.73528
N    -2.33607   2.56568  -2.25534
C    -1.74634  -0.07008   0.39821
C    -1.82237   0.99220   1.46223
C    -3.04341  -0.36747  -0.31591
C    -0.84404  -1.17755   0.51462
C    -0.04692  -1.49373   1.68293
O     0.22625  -0.75318   2.62824
H     2.81994   0.00014   2.41761
H     4.03131   0.49173   1.18241
H     4.04192  -1.18797   1.83464
H     2.24408  -1.69339  -2.16010
H     1.45945  -2.64262  -0.88322
H     0.55233  -2.25182  -2.37093
H    -0.49732  -0.31845  -2.51910
H    -2.42408   1.84159   1.10590
H    -0.83089   1.34593   1.76102
H    -2.31978   0.57708   2.35532
H    -2.88012  -0.99853  -1.20260
H    -3.70530  -0.92003   0.37282
H    -3.57171   0.54913  -0.61508
H    -1.07385  -2.05108  -0.10055
H     0.35183  -2.53580   1.67272
