31
Generated by autodE on: 2022-06-17. E = -838.377259 Ha
C     4.12065  -0.71815   0.13405
O     2.73369  -0.70975  -0.24747
C     1.92447   0.07880   0.44974
O     2.27404   0.78235   1.37156
C     0.49975  -0.07283  -0.01988
C     0.24450   0.03333  -1.53853
O     0.96610  -0.11934  -2.48593
O    -1.08048   0.30980  -1.64715
C    -1.57529   0.34872  -0.24640
C    -2.80738   1.13167  -0.23529
N    -3.79920   1.72903  -0.21881
C    -1.67483  -1.12506   0.21596
C    -2.55497  -1.31587   1.44390
C    -0.14996  -1.45388   0.38114
C     0.29002  -1.92199   1.76338
N    -0.47717   0.88943   0.51906
C    -0.18199   2.31000   0.29852
H     4.54868   0.28874   0.03120
H     4.61486  -1.41612  -0.55055
H     4.22451  -1.06072   1.17324
H    -2.09220  -1.69855  -0.62171
H    -2.53926  -2.36762   1.76158
H    -2.22700  -0.69688   2.29012
H    -3.59817  -1.05606   1.20835
H     0.15228  -2.20586  -0.35947
H    -0.26691  -2.82395   2.05349
H     1.35834  -2.18555   1.75413
H     0.12873  -1.15444   2.53179
H     0.04110   2.55397  -0.75575
H     0.67754   2.59056   0.91583
H    -1.04639   2.90594   0.62087
