12
Generated by autodE on: 2022-06-17. E = -157.299004 Ha
C     1.58305  -0.56241  -0.03092
C     0.66914   0.62137  -0.14032
C    -0.67000   0.63430  -0.04541
C    -1.58226  -0.53170   0.19274
H     1.04641  -1.50532   0.14690
H     2.18290  -0.68070  -0.95065
H     2.30781  -0.42345   0.79075
H     1.16962   1.58172  -0.31841
H    -1.17201   1.60432  -0.15276
H    -2.30784  -0.63661  -0.63326
H    -1.04468  -1.48527   0.29431
H    -2.18132  -0.37987   1.10807
