19
Generated by autodE on: 2022-06-17. E = -681.041848 Ha
C     3.91737  -0.79117   0.26847
O     2.66745  -0.09227   0.20211
C     1.56628  -0.84626   0.07771
O     1.58808  -2.06595   0.01864
C     0.36881  -0.02558   0.02531
C     0.26572   1.39616   0.09029
O     1.02790   2.32787   0.19583
O    -1.14989   1.64230  -0.00507
C    -1.77045   0.47080  -0.11394
C    -3.17474   0.38698  -0.22372
N    -4.33362   0.33258  -0.31345
N    -0.91202  -0.53669  -0.10104
C    -1.28332  -1.94988  -0.20355
H     4.68750  -0.01764   0.36880
H     3.93917  -1.46341   1.13856
H     4.08363  -1.37531  -0.64835
H    -0.95029  -2.47228   0.70017
H    -2.37192  -2.01829  -0.30429
H    -0.79136  -2.38498  -1.08025
