31
Generated by autodE on: 2022-06-17. E = -838.322947 Ha. Imaginary frequency = -456.6 cm-1
C     4.13705  -0.56508   0.31693
O     2.83274  -0.47681  -0.27453
C     1.97506   0.37570   0.29613
O     2.24994   1.06654   1.26240
C     0.66275   0.32432  -0.34140
C     0.31571  -0.31796  -1.59121
O     0.93177  -0.94672  -2.42208
O    -1.05426  -0.07509  -1.74415
C    -1.49086   0.49137  -0.55496
C    -2.75992   1.15913  -0.63450
N    -3.81823   1.63547  -0.66369
C    -1.73692  -1.18542   0.51897
C    -2.48675  -0.80960   1.77662
C    -0.41803  -1.69090   0.58463
C     0.37640  -1.78199   1.85178
N    -0.40815   1.10872   0.03072
C    -0.50518   1.95556   1.21300
H     4.65028   0.40584   0.26448
H     4.68098  -1.31404  -0.26975
H     4.06167  -0.88405   1.36637
H    -2.35820  -1.64476  -0.25769
H    -2.79150  -1.72437   2.31277
H    -1.87763  -0.21398   2.46928
H    -3.40237  -0.24427   1.54890
H    -0.09430  -2.34672  -0.22741
H    -0.01942  -2.60364   2.47879
H     1.43237  -2.00832   1.64694
H     0.32376  -0.86548   2.45565
H     0.23201   2.76304   1.14125
H    -0.32281   1.38324   2.13082
H    -1.51234   2.38830   1.24337
