54
Generated by autodE on: 2022-10-23. E = -1835.981128 Ha
C     0.61474  -1.13611  -8.65475
N     0.03129  -1.09584  -7.32809
C     0.76782  -0.89170  -6.23850
O     1.99337  -0.69761  -6.27580
C    -0.01191  -0.96859  -4.89473
C     0.43105   0.07855  -3.81892
O    -0.36461   0.34651  -2.91479
N     1.65809   0.58724  -3.91455
C     2.20847   1.44332  -2.88193
N    -1.43406  -0.84800  -5.12321
C    -2.17088  -1.92444  -4.46894
C    -3.06007  -1.35064  -3.42860
N    -3.77175  -0.79410  -2.70399
C    -3.04736  -2.50770  -5.52765
N    -3.70012  -2.84466  -6.42338
C    -1.05499  -2.89282  -3.95311
C     0.14578  -2.35010  -4.25393
C     1.57434  -2.87332  -4.14536
O     1.95835  -3.30868  -2.85280
C     2.21259  -2.24929  -1.94439
C     1.86469  -3.95603  -5.21397
C     0.73145  -4.88364  -5.65227
C     0.22818  -5.85896  -4.59036
C    -0.19790  -5.26789  -3.24370
C    -1.33692  -4.20238  -3.18373
C    -1.49704  -3.86818  -1.66156
F    -1.69288  -4.97246  -0.92603
F    -2.52840  -3.05137  -1.40981
F    -0.39856  -3.26793  -1.19172
C    -2.63869  -4.89175  -3.66795
F    -2.86293  -6.04412  -3.02874
F    -3.73551  -4.12857  -3.48031
F    -2.57000  -5.17000  -4.97715
H     1.18015  -0.21498  -8.86174
H     1.30273  -1.99027  -8.75839
H    -0.19025  -1.23568  -9.39222
H    -0.96756  -1.22632  -7.18872
H     2.22209   0.28208  -4.71128
H     3.22324   1.74048  -3.17238
H     2.25341   0.91509  -1.91590
H     1.59559   2.34786  -2.74799
H    -1.80712   0.07081  -4.89649
H     2.22651  -2.02681  -4.39537
H     2.50975  -2.70599  -0.99041
H     1.31966  -1.62709  -1.77112
H     3.03271  -1.60575  -2.30898
H     2.71391  -4.54028  -4.82353
H     2.23342  -3.42516  -6.10393
H    -0.10469  -4.28832  -6.05092
H     1.10211  -5.47538  -6.50502
H    -0.57874  -6.47271  -5.01654
H     1.04417  -6.56064  -4.34777
H     0.66977  -4.81956  -2.75430
H    -0.52218  -6.09677  -2.60315
