24
Generated by autodE on: 2022-10-23. E = -734.797490 Ha
C     3.12068  -1.52989  -0.39696
N     1.80041  -0.96477  -0.60880
C     0.82238  -1.11280   0.29505
O     0.89964  -1.87026   1.27117
C    -0.44209  -0.36341   0.02808
N    -0.52396   0.91671  -0.25450
C     0.35503   1.95996  -0.27338
C     1.68302   1.85639   0.19454
N     2.77909   1.81927   0.59390
C    -0.12201   3.21907  -0.70228
N    -0.49947   4.26501  -1.05734
C    -1.78643  -1.02200   0.04619
O    -2.77103  -0.37339  -0.33976
N    -1.83427  -2.28642   0.47873
C    -3.08778  -3.00857   0.57449
H     3.63182  -1.02770   0.44031
H     3.71283  -1.39512  -1.30957
H     3.04789  -2.60259  -0.16806
H     1.66528  -0.33593  -1.39476
H    -1.51117   1.15882  -0.47401
H    -0.99195  -2.67055   0.90438
H    -3.65090  -2.92253  -0.36563
H    -2.87367  -4.06621   0.76899
H    -3.71958  -2.61732   1.38925
