30
Generated by autodE on: 2022-10-23. E = -1101.108643 Ha
C    -1.36542  -4.25313   0.34344
O    -2.07936  -3.23442  -0.33122
C    -1.30467  -2.52958  -1.28696
C    -0.28100  -1.69345  -0.63639
C     0.23102  -0.70868  -0.15213
C     0.36559   0.69795   0.22129
C     0.66573   0.81289   1.73584
F     1.84700   0.26931   2.06103
F    -0.27442   0.17090   2.44387
F     0.67856   2.08820   2.14552
C     1.51035   1.34514  -0.59652
F     2.68163   0.72385  -0.40133
F     1.24624   1.28681  -1.90959
F     1.67923   2.63607  -0.27843
C    -1.00126   1.40623  -0.08335
C    -1.76223   0.95478  -1.34600
C    -2.66878  -0.30537  -1.24716
C    -2.23192  -1.55521  -2.03990
H    -0.96957  -5.00486  -0.36458
H    -2.06442  -4.74388   1.03513
H    -0.51907  -3.84263   0.92488
H    -0.85039  -3.24436  -1.99717
H    -1.64695   1.24509   0.79133
H    -0.80406   2.48674  -0.13420
H    -2.40799   1.80783  -1.60444
H    -1.06586   0.85094  -2.19051
H    -3.66224  -0.02434  -1.62829
H    -2.82724  -0.58204  -0.19159
H    -3.11507  -2.14550  -2.33166
H    -1.72593  -1.25237  -2.97018
