54
Generated by autodE on: 2022-10-23. E = -1835.900691 Ha. Imaginary frequency = -256.2 cm-1
C    -0.37204  -0.28326  -8.44056
N    -0.55646  -0.14237  -7.00794
C     0.28931  -0.70950  -6.13618
O     1.37040  -1.20791  -6.47502
C    -0.09314  -0.60449  -4.68452
C     0.79892   0.16739  -3.74609
O     0.34450   0.53052  -2.65229
N     2.04538   0.41760  -4.16058
C     3.01016   1.07712  -3.30168
N    -1.36077  -0.58417  -4.25388
C    -2.37586  -1.42491  -4.58709
C    -2.48847  -2.02495  -5.87513
N    -2.62928  -2.51825  -6.91987
C    -3.56914  -1.32144  -3.81423
N    -4.54322  -1.22283  -3.18587
C    -0.83292  -3.36507  -3.94788
C     0.27288  -2.81797  -4.09712
C     1.75777  -3.02779  -3.99032
O     2.07382  -3.47184  -2.68090
C     1.98801  -2.46370  -1.68974
C     2.23003  -4.08622  -4.99514
C     1.86041  -5.54645  -4.71027
C     0.37670  -5.94967  -4.76449
C    -0.42322  -5.74965  -3.45789
C    -1.48363  -4.60047  -3.45191
C    -1.90721  -4.35859  -1.97581
F    -2.42639  -5.46377  -1.42137
F    -2.81697  -3.38347  -1.85394
F    -0.84750  -4.00070  -1.23468
C    -2.71741  -5.02869  -4.28428
F    -3.21655  -6.19691  -3.85582
F    -3.71891  -4.13525  -4.23249
F    -2.39427  -5.18369  -5.57486
H    -1.10716   0.34717  -8.95428
H     0.64020   0.03008  -8.73325
H    -0.51687  -1.33064  -8.75186
H    -1.41316   0.28778  -6.67430
H     2.34776   0.00574  -5.04185
H     3.95240   1.18845  -3.85066
H     3.19347   0.49020  -2.38732
H     2.64870   2.07230  -3.00244
H    -1.41709  -0.16691  -3.31036
H     2.29951  -2.09590  -4.19549
H     2.19494  -2.93844  -0.72050
H     2.73139  -1.66598  -1.86775
H     0.98524  -2.00540  -1.65489
H     3.32957  -4.01418  -5.02882
H     1.86315  -3.78430  -5.98770
H     2.28470  -5.84829  -3.73852
H     2.39306  -6.14439  -5.46763
H    -0.10768  -5.44273  -5.61043
H     0.33592  -7.02352  -5.00071
H     0.27397  -5.51922  -2.64278
H    -0.94322  -6.67615  -3.17906
