14
Generated by autodE on: 2022-06-23. E = -270.683218 Ha
C     0.50327   1.50222  -0.11721
C     0.85918   0.06617   0.14099
C     2.29808  -0.21410   0.43934
C    -0.04886  -0.94771   0.11506
C    -1.47171  -0.81012  -0.15689
O    -2.07808   0.23327  -0.38956
H    -0.21865   1.86639   0.63162
H     0.00759   1.61814  -1.09357
H     1.39517   2.14365  -0.08898
H     2.49341  -1.27883   0.62716
H     2.61973   0.37338   1.31738
H     2.92888   0.12727  -0.40032
H     0.29275  -1.96809   0.31193
H    -2.03283  -1.77599  -0.14174
