36
Generated by autodE on: 2022-07-27. E = -863.331615 Ha
C     5.01352   1.58505   1.30697
C     4.03252   2.15041   0.48280
C     2.78334   1.55057   0.32647
C     2.48141   0.33821   1.00141
N     1.29995  -0.36139   0.93619
O     0.48009   0.25830   0.03299
C    -0.71924  -0.14524  -0.25064
C    -1.38796  -1.23367   0.46134
C    -2.21157  -2.12514  -0.25940
C    -2.88527  -3.15316   0.39786
C    -2.76529  -3.29682   1.78361
C    -1.95758  -2.41280   2.50918
C    -1.26020  -1.39901   1.85727
C    -1.32387   0.58982  -1.35856
C    -0.50534   1.22102  -2.32272
C    -1.07602   1.95009  -3.36205
C    -2.46823   2.06545  -3.46272
C    -3.28761   1.44758  -2.51202
C    -2.72563   0.71564  -1.46747
C     3.48136  -0.22298   1.83928
C     4.72041   0.39211   1.98418
H     5.98687   2.06625   1.42376
H     4.24118   3.08389  -0.04748
H     2.03190   2.01897  -0.30895
H    -2.30534  -2.02138  -1.34102
H    -3.50616  -3.84532  -0.17492
H    -3.29737  -4.09979   2.29885
H    -1.86525  -2.52015   3.59221
H    -0.62222  -0.72343   2.42325
H     0.57829   1.11435  -2.25850
H    -0.43240   2.42410  -4.10644
H    -2.91290   2.63506  -4.28182
H    -4.37349   1.54344  -2.57936
H    -3.37313   0.26095  -0.71720
H     3.25570  -1.15416   2.36417
H     5.47099  -0.06506   2.63466
