50
Generated by autodE on: 2022-06-23. E = -1134.019894 Ha. Imaginary frequency = -256.8 cm-1
C     2.57392  -0.44574  -1.52387
C     1.64734  -1.38615  -0.80103
C     2.30816  -2.49679  -0.03394
C     0.34359  -1.62394  -1.28491
C    -0.17767  -1.11696  -2.52154
O    -1.22748  -1.50095  -3.05528
C    -0.88285   0.14066  -0.05521
C    -1.57109  -0.82534   0.83199
C    -2.42363  -1.81842   0.31775
C    -3.13187  -2.65571   1.17970
C    -3.00688  -2.50898   2.56496
C    -2.16641  -1.51805   3.08345
C    -1.44926  -0.68363   2.22643
C    -1.60882   0.97934  -1.01733
C    -0.89617   1.91333  -1.80367
C    -1.56088   2.72140  -2.71900
C    -2.94878   2.61153  -2.88161
C    -3.66326   1.69060  -2.11261
C    -3.00318   0.88163  -1.18581
O     0.27039   0.67255   0.29752
N     1.18025  -0.15611   0.91878
C     2.27595   0.61066   1.30758
C     2.51260   1.94851   0.91732
C     3.67101   2.60324   1.33375
C     4.61570   1.95444   2.13830
C     4.37730   0.63550   2.54230
C     3.21753  -0.02784   2.14522
H     3.46676  -0.23131  -0.92142
H     2.08956   0.50618  -1.78157
H     2.91430  -0.91535  -2.46250
H     2.72107  -3.22438  -0.75510
H     3.14779  -2.13277   0.57303
H     1.59164  -3.02531   0.61047
H    -0.20135  -2.46535  -0.85443
H     0.42080  -0.32389  -3.02096
H    -2.50834  -1.94896  -0.76153
H    -3.78243  -3.42926   0.76565
H    -3.56184  -3.16560   3.23892
H    -2.06788  -1.39252   4.16415
H    -0.79722   0.08703   2.63777
H     0.18683   1.98390  -1.70240
H    -0.99413   3.43583  -3.32007
H    -3.46752   3.24138  -3.60782
H    -4.74565   1.60168  -2.22778
H    -3.58213   0.18824  -0.57797
H     1.78617   2.46889   0.29468
H     3.83870   3.63800   1.02386
H     5.52034   2.47606   2.45822
H     5.09416   0.12217   3.18797
H     3.01364  -1.04228   2.48964
