41
Generated by autodE on: 2022-05-29. E = -1048.678896 Ha
C     4.26076  -1.39505  -1.47697
N     3.17513  -1.15495  -0.54863
C     2.35935  -0.10084  -0.60533
O     2.43145   0.78703  -1.47352
C     1.30189  -0.00805   0.50100
C     1.67355   1.18348   1.40239
N     1.30143  -1.20420   1.35353
C     0.10434  -1.58060   1.56023
C    -0.99964  -0.83688   0.84361
C    -1.91629  -0.19353   1.89526
C    -3.40351  -0.19415   1.70062
O    -1.40830   0.20779   2.93197
C    -1.63302  -1.83179  -0.21035
C    -2.58488  -1.07883  -1.12502
C    -1.80046  -0.34083  -1.91930
C    -0.37878  -0.64869  -1.47428
O    -0.48999  -2.01341  -1.05958
C    -0.16004   0.10823  -0.09101
C    -0.65109   1.54946  -0.20655
O    -1.62101   1.97342   0.43313
N     0.03059   2.30069  -1.08581
C    -0.24532   3.71462  -1.24515
H     5.23899  -1.21689  -1.00215
H     4.15723  -0.71894  -2.33383
H     4.23155  -2.43474  -1.83383
H     3.02512  -1.79241   0.22969
H     2.61296   0.95868   1.92760
H     0.88143   1.33987   2.14752
H     1.81241   2.10202   0.82043
H    -0.12506  -2.43559   2.20745
H    -3.76385  -1.23209   1.60662
H    -3.67688   0.33866   0.78142
H    -3.88176   0.28264   2.56610
H    -1.97270  -2.78079   0.21847
H    -3.67128  -1.11487  -1.07673
H    -2.08163   0.39388  -2.67234
H     0.42030  -0.51153  -2.20730
H     0.91719   1.91460  -1.43231
H     0.33339   4.09865  -2.09474
H     0.02803   4.28762  -0.34241
H    -1.31492   3.88009  -1.44053
