16
Generated by autodE on: 2022-05-29. E = -380.197536 Ha
C    -1.98653   2.18370  -0.13070
N    -1.49575   1.07112  -0.19839
C    -0.90437  -0.06769  -0.11059
C    -1.68619  -1.35021  -0.15936
C     0.57568  -0.00274   0.05554
O     1.17032   1.08303   0.12606
N     1.20107  -1.20072   0.12822
C     2.63141  -1.34418   0.29883
H    -2.16803   2.76823  -1.04939
H    -1.53472  -1.94112   0.75970
H    -2.75893  -1.14078  -0.26201
H    -1.37464  -1.97638  -1.01237
H     0.64826  -2.04737   0.05538
H     3.07994  -0.34772   0.38250
H     2.86583  -1.91543   1.21113
H     3.08538  -1.86521  -0.55944
