23
Generated by autodE on: 2022-06-18. E = -351.521384 Ha
C    -3.67725  -0.87581   0.08829
C    -2.58354  -0.09690  -0.06295
C    -2.70409   1.36118  -0.42567
C    -1.25067  -0.66642   0.12505
C    -0.07835   0.00484  -0.00117
C     1.21846  -0.60989   0.19656
C     2.43166  -0.01220   0.08465
C     2.63637   1.43209  -0.27492
C     3.69590  -0.78849   0.32297
H    -4.68622  -0.47611  -0.04633
H    -3.58614  -1.93426   0.35116
H    -2.24196   2.00165   0.34389
H    -2.18117   1.57992  -1.37156
H    -3.75645   1.65839  -0.53620
H    -1.21770  -1.73013   0.38998
H    -0.10280   1.06545  -0.26561
H     1.20218  -1.67322   0.46471
H     3.26144   1.51469  -1.18161
H     1.70204   1.97987  -0.45291
H     3.19159   1.95037   0.52688
H     4.28829  -0.33172   1.13618
H     4.34249  -0.76867  -0.57280
H     3.49649  -1.83801   0.58483
