45
Generated by autodE on: 2022-06-22. E = -1017.820700 Ha
C    -4.40840  -1.34869  -0.57351
O    -3.10791  -1.01571  -0.05898
C    -2.24405  -0.45885  -0.89958
O    -2.49928  -0.18236  -2.05262
C    -0.88255  -0.21963  -0.23959
C    -1.16507   0.24503   1.20222
O    -0.88194  -0.37286   2.20578
O    -1.78034   1.42783   1.21570
C    -2.08752   1.98162   2.50394
N    -0.14796   0.79731  -0.99400
C     1.22292   0.29513  -1.22903
C     1.80343   0.98000  -2.46821
C     2.12207   0.62474  -0.02825
C     1.72867   1.54610   0.95250
C     2.56619   1.85369   2.03019
C     3.82104   1.25068   2.14217
C     4.23306   0.34263   1.16056
C     3.39224   0.03545   0.08824
C     1.03418  -1.24865  -1.35971
C     0.58334  -1.70197  -2.74761
C     0.01099  -1.51523  -0.23630
C    -0.72568  -2.84811  -0.27732
H    -4.31507  -2.07495  -1.39317
H    -4.95904  -1.78810   0.26540
H    -4.91647  -0.44385  -0.93494
H    -2.58577   2.93844   2.31073
H    -2.75510   1.30882   3.06114
H    -1.16357   2.14200   3.07813
H    -0.61312   0.90136  -1.89542
H     2.79354   0.56822  -2.71057
H     1.91654   2.05906  -2.28489
H     1.14787   0.84690  -3.34160
H     0.75791   2.03200   0.86355
H     2.23182   2.57020   2.78484
H     4.47565   1.48767   2.98433
H     5.21576  -0.13060   1.22985
H     3.73520  -0.67188  -0.66989
H     1.96903  -1.77418  -1.11828
H     0.38256  -2.78346  -2.75335
H    -0.33370  -1.19029  -3.07534
H     1.36588  -1.51361  -3.49704
H     0.56126  -1.47599   0.71338
H    -1.36467  -2.96683   0.60942
H     0.00046  -3.67595  -0.28324
H    -1.36156  -2.95616  -1.16907
