12
Generated by autodE on: 2022-06-22. E = -157.299004 Ha
C    -1.56379   0.25973   0.55850
C    -0.68047  -0.47613  -0.40413
C     0.65255  -0.38010  -0.53182
C     1.58813   0.48637   0.25705
H    -2.11389  -0.44707   1.20476
H    -1.00983   0.95199   1.20853
H    -2.33206   0.84141   0.01904
H    -1.20053  -1.17097  -1.07582
H     1.12960  -1.00225  -1.29979
H     2.13907   1.17524  -0.40757
H     1.07611   1.08954   1.02037
H     2.35426  -0.12563   0.76512
