28
Generated by autodE on: 2022-06-02. E = -744.899429 Ha
C     3.41026  -2.07686  -0.70976
N     2.59122  -1.02833  -0.13620
C     1.30673  -0.88551  -0.47060
O     0.74567  -1.63340  -1.28924
C     0.50885   0.22084   0.18511
C     1.18400   1.28128   1.01034
C     0.52260   2.61712   1.20902
O     2.29428   1.07639   1.49105
C    -0.82486   0.17175  -0.02927
C    -1.49963  -0.91687  -0.85983
C    -1.74684  -0.57662  -2.30066
O    -2.00432  -1.86747  -0.28641
C    -1.89062   1.08812   0.52985
C    -2.41087   0.71813   1.88342
O    -2.33871   1.98115  -0.16483
H     3.00723  -3.07423  -0.47114
H     3.45871  -1.98719  -1.80625
H     4.42485  -1.99690  -0.30168
H     2.95564  -0.39459   0.57532
H    -0.28012   2.54148   1.95936
H     0.08228   2.99525   0.27727
H     1.27423   3.31951   1.59130
H    -0.86812  -0.11100  -2.76395
H    -2.04744  -1.48061  -2.84826
H    -2.57457   0.15316  -2.33133
H    -2.80579  -0.31041   1.82710
H    -3.19916   1.41574   2.19555
H    -1.58828   0.69809   2.61494
