16
Generated by autodE on: 2022-06-02. E = -492.395827 Ha
C     1.96841  -1.88768   0.16615
C     1.06484  -0.71585   0.08045
C     1.41618   0.66114   0.05144
O     2.47093   1.27734   0.08548
O     0.17830   1.35106  -0.03361
C    -0.81524   0.44566  -0.05264
C    -2.16508   0.79955  -0.14293
N    -3.29193   1.09939  -0.21777
N    -0.29379  -0.78700   0.01473
C    -1.06035  -2.02869   0.01406
H     1.76334  -2.49904   1.06068
H     3.00504  -1.52898   0.22257
H     1.87584  -2.54370  -0.71549
H    -2.12929  -1.79397  -0.03672
H    -0.76704  -2.63020  -0.85616
H    -0.84230  -2.58524   0.93466
