52
Generated by autodE on: 2022-06-25. E = -1467.125165 Ha. Imaginary frequency = -257.3 cm-1
C    -1.00808   3.52249   2.04533
N    -0.92665   2.51370   1.01020
C    -1.41165   1.26786   1.14525
O    -1.97758   0.84240   2.15432
C    -1.24553   0.37732  -0.07945
C    -2.29097  -0.62043  -0.32823
C    -2.63779  -1.57283   0.65277
C    -3.68996  -2.45639   0.42406
C    -4.41665  -2.39907  -0.77041
C    -4.09558  -1.44052  -1.73656
C    -3.04134  -0.55568  -1.52019
O    -0.69327   1.06284  -1.08335
C     0.00771   0.55891  -2.13446
C    -0.40600  -0.58386  -2.86451
N    -0.63248  -1.55655  -3.46475
C     0.75573   1.55164  -2.81901
N     1.41889   2.35313  -3.34444
C     1.51302  -0.77752  -0.79175
O     1.75722  -1.79432  -1.60455
C     2.63753  -1.73875  -2.74054
C     2.43158   0.39959  -0.66134
O     3.30121   0.62473  -1.49361
C     2.29216   1.27278   0.53426
C     3.03094   2.57274   0.44706
C     1.63242   0.82648   1.63696
C     1.62451   1.50763   2.96736
C     0.86525  -0.45392   1.59255
O     0.41946  -0.95895   2.62055
C     0.60931  -1.06897   0.27642
O    -0.00179  -2.28034   0.23750
C     0.71130  -3.39902   0.78666
H    -1.50479   3.09708   2.92460
H    -0.00324   3.86755   2.33008
H    -1.58718   4.39124   1.69440
H    -0.42382   2.73768   0.15728
H    -2.07097  -1.62147   1.57761
H    -3.94455  -3.19743   1.18474
H    -5.24097  -3.09469  -0.94342
H    -4.67460  -1.37281  -2.65991
H    -2.83130   0.21642  -2.26058
H     3.68373  -1.70370  -2.41203
H     2.41739  -0.87080  -3.37387
H     2.44183  -2.66759  -3.28935
H     2.67149   3.29649   1.18805
H     4.11218   2.42401   0.60795
H     2.91497   3.00282  -0.55861
H     0.61417   1.50890   3.39953
H     2.00434   2.53343   2.91893
H     2.26072   0.93927   3.66760
H     1.69153  -3.51517   0.30082
H     0.84249  -3.28569   1.87184
H     0.09391  -4.28276   0.58023
