29
Generated by autodE on: 2022-05-26. E = -1222.536579 Ha
C    -2.10806   2.20578   0.59041
C    -0.85533   2.14710  -0.24833
O    -0.50657   3.10959  -0.91920
C    -0.02075   0.92103  -0.20270
C    -0.36935  -0.43982   0.12030
C    -1.70312  -1.03566   0.32309
C    -1.91709  -1.93357   1.38241
C    -3.16982  -2.52262   1.56277
C    -4.21862  -2.22555   0.68627
C    -4.00875  -1.34010  -0.37600
C    -2.75805  -0.74811  -0.55861
N     0.70645  -1.20471   0.17591
N     1.77318  -0.39997  -0.09253
C     3.09096  -0.95692  -0.09717
C     3.16419  -2.41062   0.25156
O     4.04085  -0.26159  -0.36937
C     1.36143   0.88994  -0.34361
Cl    2.42403   2.18055  -0.67415
H    -2.97793   1.94608  -0.03316
H    -2.08449   1.51984   1.44672
H    -2.24138   3.24224   0.93188
H    -1.09854  -2.15755   2.06880
H    -3.32896  -3.21387   2.39354
H    -5.19894  -2.68599   0.82948
H    -4.82152  -1.11329  -1.06965
H    -2.59181  -0.07041  -1.39836
H     2.74177  -2.58921   1.25093
H     4.21779  -2.71260   0.22388
H     2.57786  -3.00708  -0.46220
