20
Generated by autodE on: 2022-05-26. E = -532.686754 Ha
C    -4.75310  -0.01104  -0.13625
C    -3.27720   0.27888  -0.08364
O    -2.83652   1.43045  -0.01730
N    -2.49061  -0.85285  -0.11594
N    -1.23227  -0.59910  -0.06801
C    -0.08404  -0.42543  -0.02641
C     1.32041  -0.22130   0.02644
C     1.82270   1.08859   0.17257
C     3.20000   1.28791   0.22477
C     4.07442   0.19885   0.13346
C     3.57274  -1.09981  -0.01135
C     2.19864  -1.32088  -0.06626
H    -5.18924   0.50476  -1.00647
H    -5.23277   0.40788   0.76272
H    -4.96546  -1.08536  -0.19989
H     1.12901   1.92782   0.24285
H     3.59398   2.29993   0.33769
H     5.15331   0.36332   0.17535
H     4.25773  -1.94713  -0.08226
H     1.79614  -2.32854  -0.17947
