29
Generated by autodE on: 2022-05-26. E = -1222.378887 Ha. Imaginary frequency = -300.3 cm-1
C    -2.02954   2.25684   0.68705
C    -1.24526   1.80494  -0.51748
O    -1.76248   1.67515  -1.62621
C     0.14367   1.50941  -0.28720
C    -0.25680  -0.92372   0.20593
C    -1.63455  -1.26694   0.26081
C    -2.24325  -1.50498   1.51295
C    -3.60067  -1.80642   1.56451
C    -4.35217  -1.86713   0.38409
C    -3.75042  -1.62520  -0.85606
C    -2.39459  -1.31660  -0.92646
N     0.91709  -1.03097   0.36347
N     2.02369  -0.38997   0.48403
C     3.18110  -0.98648  -0.01705
C     3.05921  -2.36284  -0.62269
O     4.24197  -0.38339   0.05746
C     1.37324   1.58352  -0.12604
Cl    2.80326   2.44851  -0.12252
H    -2.05422   1.44578   1.43310
H    -1.54071   3.12256   1.16078
H    -3.05446   2.51344   0.38685
H    -1.64363  -1.45066   2.42268
H    -4.07763  -1.99499   2.52831
H    -5.41754  -2.10317   0.43242
H    -4.34350  -1.67174  -1.77135
H    -1.91254  -1.10885  -1.88181
H     2.65874  -3.07499   0.11525
H     4.04760  -2.69602  -0.96190
H     2.35936  -2.34202  -1.47336
