49
Generated by autodE on: 2022-06-07. E = -1521.576851 Ha
C    -3.27484   3.46272  -0.89571
N    -2.72503   2.13637  -1.08471
C    -2.60332   1.24396  -0.09792
O    -2.98209   1.41363   1.06538
C    -1.92404  -0.07981  -0.49787
C    -2.86295  -1.20846   0.00639
O    -2.75132  -1.69868   1.13067
N    -3.81573  -1.54856  -0.87416
C    -4.73156  -2.64600  -0.63709
O    -1.76841  -0.12984  -1.90205
C    -0.58600  -0.89918  -2.26201
C    -0.96388  -2.37273  -2.42025
C    -0.09049  -0.31853  -3.57691
C     0.37416  -0.73120  -1.05686
C     1.41368   0.42606  -1.15485
O     0.62476   1.57847  -0.83568
C     0.19381   1.13121   0.45071
C     1.51644   0.74238   1.09944
C     1.73962   0.68137   2.57858
F     1.97988  -0.57183   3.00544
F     2.77183   1.44353   2.97253
F     0.64800   1.11616   3.23705
C     2.28682   0.29771   0.09143
C     3.59660  -0.37469   0.16284
O     4.33603  -0.36104   1.12739
O     3.86696  -1.01316  -0.98026
C     5.10832  -1.73228  -1.04072
C    -0.51357  -0.22149   0.11717
H    -3.94407   3.45824  -0.02608
H    -2.48129   4.20844  -0.72162
H    -3.84417   3.76077  -1.78689
H    -2.31593   1.87425  -1.97744
H    -3.71132  -1.18245  -1.81617
H    -4.24826  -3.62379  -0.80561
H    -5.09259  -2.61601   0.39985
H    -5.58895  -2.55655  -1.31639
H    -1.78149  -2.48339  -3.14768
H    -0.09339  -2.94010  -2.78240
H    -1.27727  -2.81729  -1.46381
H     0.84367  -0.80951  -3.88598
H    -0.84288  -0.48226  -4.36301
H     0.08664   0.76228  -3.48812
H     0.88078  -1.67831  -0.84123
H     1.93845   0.54004  -2.10569
H    -0.40642   1.88132   0.97159
H     5.13887  -2.50771  -0.26184
H     5.95442  -1.04333  -0.90564
H     5.14337  -2.18929  -2.03593
H    -0.54675  -0.87973   0.99003
