27
Generated by autodE on: 2022-06-07. E = -648.755655 Ha
C     2.31084   1.21778  -2.62313
N     1.75938   0.39547  -1.56818
C     0.72859   0.85597  -0.80117
O     0.39848   2.06583  -0.81095
C     0.04585  -0.12419   0.01561
O    -1.04310   0.34544   0.76680
C    -0.99307   1.31229   1.60846
C     0.27675   1.90707   2.04584
C    -2.29522   1.74142   2.15689
C     0.00592  -1.54613  -0.22795
O     0.83428  -2.12188  -0.98174
N    -0.94046  -2.27403   0.42901
C    -1.12102  -3.68557   0.16786
H     1.59248   1.40991  -3.44172
H     3.18912   0.71398  -3.04859
H     2.63011   2.19364  -2.22887
H     1.80277  -0.62354  -1.64167
H     0.16001   2.36373   3.03692
H     1.06168   1.13002   2.03755
H     0.59734   2.67286   1.31914
H    -2.25938   1.71645   3.25832
H    -2.46612   2.79556   1.87433
H    -3.11565   1.12049   1.77655
H    -1.66178  -1.77898   0.94010
H    -0.17186  -4.22985   0.28474
H    -1.49574  -3.88492  -0.85205
H    -1.84459  -4.09058   0.88712
