27
Generated by autodE on: 2022-07-27. E = -648.744508 Ha
C     0.87763   3.63149   1.20913
N     0.82535   2.34101   0.55802
C     0.07136   1.32209   1.07879
O    -0.44670   1.44506   2.21014
C    -0.04701   0.12466   0.27287
O     0.51065   0.28472  -1.01662
C     1.24091  -0.56776  -1.63963
C     1.60133  -1.85404  -1.03596
C     1.68610  -0.16203  -2.98609
C    -0.97079  -0.95637   0.53751
O    -1.37988  -1.23077   1.68507
N    -1.42103  -1.68792  -0.53587
C    -2.41992  -2.72077  -0.35219
H     1.60102   4.26731   0.68197
H     1.20266   3.53142   2.25576
H    -0.09941   4.14803   1.21432
H     1.12613   2.27958  -0.40710
H     0.75806  -2.56123  -1.13604
H     2.48702  -2.27692  -1.52527
H     1.74767  -1.71303   0.05049
H     1.26151  -0.86229  -3.72766
H     2.78161  -0.26577  -3.05464
H     1.37296   0.86269  -3.22041
H    -1.33003  -1.29742  -1.46770
H    -3.40379  -2.31591  -0.05336
H    -2.54164  -3.27035  -1.29519
H    -2.10173  -3.42928   0.42637
