47
Generated by autodE on: 2022-06-25. E = -1301.310684 Ha
C    -2.74785  -1.76279  -1.89377
O    -1.56856  -2.02346  -1.13137
C    -1.16813  -1.12067  -0.15213
C    -2.28878  -0.74185   0.81062
O    -3.24833  -1.48546   0.93783
C    -2.12550   0.47322   1.64200
C    -2.91365   0.54900   2.91188
C    -1.34669   1.50613   1.21426
C    -1.21759   2.77805   1.99184
C    -0.69740   1.46262  -0.11606
O    -0.37864   2.48681  -0.69778
C    -0.32772   0.10777  -0.72091
O    -0.22254   0.11331  -2.10523
C    -1.14118   0.87494  -2.89249
C     1.10202  -0.26017  -0.12749
C     2.13011   0.81880  -0.10463
C     2.39488   1.50788   1.08483
C     3.30730   2.56555   1.08305
C     3.94993   2.93612  -0.10197
C     3.67922   2.24768  -1.28935
C     2.76738   1.19081  -1.29495
O     1.55550  -1.41356  -0.88476
C     0.86267  -2.47070  -0.38830
O     1.00920  -3.60391  -0.74991
C    -0.04806  -1.86679   0.69187
C    -0.47621  -2.79956   1.78461
O     0.78479  -0.78867   1.13033
H    -3.10492  -0.73211  -1.77231
H    -3.54985  -2.45014  -1.58694
H    -2.50766  -1.93214  -2.95310
H    -3.59921   1.41210   2.89835
H    -3.50046  -0.36333   3.07028
H    -2.23723   0.69617   3.76977
H    -2.16667   3.34139   1.97616
H    -0.43196   3.42063   1.57656
H    -0.99348   2.56311   3.04758
H    -2.10203   1.02775  -2.38170
H    -0.71321   1.85585  -3.14342
H    -1.31709   0.30519  -3.81529
H     1.88394   1.22100   2.00480
H     3.51619   3.10116   2.01170
H     4.66298   3.76377  -0.10093
H     4.17987   2.53566  -2.21633
H     2.54636   0.65586  -2.21926
H     0.39738  -3.31835   2.20306
H    -1.16678  -3.54416   1.36569
H    -0.98772  -2.25239   2.58774
