26
Generated by autodE on: 2022-06-25. E = -689.460866 Ha
C     3.18838   0.61602   0.08707
O     2.02920   1.04138  -0.63684
C     0.86016   0.41603  -0.30866
C    -0.13930   1.02332   0.39124
O    -0.18169   2.25023   0.90967
C     0.91169   3.16906   0.81607
C    -1.42691   0.28551   0.64816
O    -2.31596   0.84990   1.27088
C    -1.58451  -1.10619   0.15368
C    -2.87434  -1.80702   0.44984
C    -0.58110  -1.70231  -0.53686
C    -0.69635  -3.10213  -1.05178
C     0.68305  -0.95901  -0.82301
O     1.57776  -1.47449  -1.49114
H     4.02999   1.21153  -0.29093
H     3.39420  -0.45214  -0.07689
H     3.06293   0.80494   1.16630
H     0.57091   4.07573   1.33190
H     1.80427   2.77342   1.32104
H     1.14335   3.40131  -0.23143
H    -3.56626  -1.15299   0.99328
H    -3.35950  -2.14200  -0.48149
H    -2.69551  -2.71172   1.05443
H     0.21398  -3.40707  -1.58063
H    -1.55361  -3.19407  -1.73934
H    -0.88184  -3.80683  -0.22438
