41
Generated by autodE on: 2022-05-30. E = -1284.390567 Ha
C    -1.37561  -3.14919  -2.62192
N    -0.96601  -2.37476  -1.46838
C    -1.52134  -1.20325  -1.16614
O    -2.43631  -0.68943  -1.82881
C    -0.98592  -0.53235   0.11789
C    -2.10855  -0.46711   1.19314
O    -1.82901  -0.67441   2.37604
N    -3.32877  -0.15353   0.75653
C    -4.44836  -0.00157   1.66538
N     0.13285  -1.28650   0.67664
C     1.36637  -0.69505   0.17740
C     2.51415  -0.90118   1.14215
O     2.38240  -1.27157   2.28846
O     3.67722  -0.59427   0.57594
C     4.84446  -0.66052   1.41311
C     1.10054   0.80594  -0.04526
F     1.59238   1.54991   1.01324
C     1.53898   1.37550  -1.41711
C     1.26253   2.87012  -1.38468
C    -0.06906   2.98696  -1.45412
C    -0.60597   1.56685  -1.54916
O     0.45958   0.87341  -2.22474
C    -0.45458   0.92825  -0.13990
F    -0.93352   1.77556   0.84362
H    -1.24426  -2.57009  -3.54905
H    -0.76133  -4.05557  -2.67826
H    -2.43586  -3.43947  -2.54959
H    -0.26126  -2.71403  -0.81606
H    -3.45424  -0.05574  -0.25113
H    -4.64274  -0.93417   2.21830
H    -4.25473   0.79545   2.40038
H    -5.34171   0.25984   1.08576
H     0.09127  -1.19563   1.69572
H     1.64634  -1.14037  -0.78868
H     4.74474   0.03490   2.25869
H     4.98554  -1.68316   1.79041
H     5.68784  -0.36920   0.77723
H     2.51330   1.02737  -1.77496
H     2.01449   3.64659  -1.24968
H    -0.68348   3.88422  -1.39125
H    -1.56672   1.40632  -2.03904
