28
Generated by autodE on: 2022-05-30. E = -778.232415 Ha
C    -1.91511   4.00064   0.86069
N    -1.86615   2.59724   0.51131
C    -0.71126   1.91968   0.47917
O     0.38860   2.43861   0.76560
C    -0.75079   0.48644   0.08383
N     0.48983  -0.01844   0.02425
C     1.06782  -1.15673  -0.32070
C     2.51805  -1.18332  -0.24189
O     3.20883  -0.24772   0.14554
O     3.01835  -2.36137  -0.64464
C     4.44418  -2.49720  -0.60910
C    -1.99459  -0.25322  -0.17797
O    -3.06558   0.34718  -0.40188
N    -1.95508  -1.60567  -0.15727
C    -3.16549  -2.38708  -0.33141
H    -2.96377   4.31949   0.90345
H    -1.38749   4.62470   0.11985
H    -1.45041   4.18155   1.84233
H    -2.69230   2.09034   0.18808
H     1.16105   0.72735   0.31367
H     0.50996  -2.01119  -0.69098
H     4.92084  -1.75367  -1.26493
H     4.82042  -2.37052   0.41679
H     4.66091  -3.51019  -0.96779
H    -1.15129  -2.07469   0.24487
H    -3.67621  -2.10022  -1.26156
H    -2.89436  -3.44846  -0.38743
H    -3.87278  -2.24258   0.50260
