13
Generated by autodE on: 2022-05-30. E = -506.057106 Ha
F    -0.66378   2.15229   0.32681
C    -0.31100   0.92444  -0.04108
C    -0.94127  -0.24190   0.08949
F    -2.11911  -0.54116   0.62856
C     0.07772  -1.30009  -0.37128
C     1.21795  -1.34545   0.67891
C     1.84953  -0.17609   0.54893
C     1.08600   0.56488  -0.57941
O     0.73094  -0.55355  -1.41957
H    -0.33839  -2.25176  -0.71972
H     1.39219  -2.16280   1.37742
H     2.68746   0.23452   1.11074
H     1.61288   1.35736  -1.12220
