16
Generated by autodE on: 2022-05-29. E = -380.197778 Ha
C    -2.63016   1.08230  -1.82539
C    -1.13749   1.07772  -1.72995
N    -0.51450   0.82860  -0.64803
C     0.04383   0.67587   0.43908
C     0.35694  -0.64871   1.02221
O    -0.52888  -1.26180   1.63484
N     1.63730  -1.05986   0.93811
C     2.66923  -0.39964   0.16117
H    -2.97202   0.33048  -2.55703
H    -3.09079   0.86338  -0.85174
H    -2.98827   2.06368  -2.18054
H    -0.53135   1.29653  -2.61779
H     1.83935  -1.95994   1.36647
H     2.66729  -0.71226  -0.89624
H     2.52801   0.69103   0.19713
H     3.65325  -0.63055   0.59037
