20
Generated by autodE on: 2022-05-29. E = -1069.688655 Ha
F     2.25605   0.30518  -0.61739
C     1.50472  -0.65304  -0.05401
F     1.41962  -1.66697  -0.95091
F     2.20686  -1.14272   0.99250
C     0.16127  -0.18595   0.36695
C    -0.52626   0.91577   0.01149
Cl   -0.05978   2.20606  -1.03786
C    -1.94369   0.78574   0.53177
C    -2.60374  -0.32140  -0.35497
C    -1.83447  -1.60701   0.06243
C    -0.82062  -1.07438   1.12541
C    -1.67506  -0.00126   1.83089
H    -2.50247   1.72618   0.59717
H    -3.67431  -0.39392  -0.11513
H    -2.51088  -0.08768  -1.42492
H    -2.50627  -2.34523   0.52427
H    -1.31880  -2.09376  -0.77631
H    -0.35540  -1.84617   1.75027
H    -2.59178  -0.40765   2.28319
H    -1.11080   0.57826   2.57549
