36
Generated by autodE on: 2022-05-29. E = -1449.885799 Ha. Imaginary frequency = -203.1 cm-1
C     3.91604  -0.96419  -0.34097
N     3.82880  -0.03711   0.77306
C     2.72826   0.19757   1.50871
O     2.69083   0.94256   2.49992
C     1.46307  -0.37080   1.03235
N     0.83486  -1.38838   1.26181
C    -0.20186  -2.15611   1.18475
C    -1.22034  -2.26039   2.27197
C    -1.15085   0.00700  -0.27328
C    -1.58315  -0.93417  -1.32460
F    -2.51977  -1.80821  -0.88063
F    -2.16488  -0.31354  -2.39666
F    -0.57298  -1.66720  -1.84054
C    -2.13494   0.71320   0.65921
C    -2.64184   1.97462  -0.11095
C    -1.36120   2.85722  -0.20508
C    -0.29582   2.01892   0.56830
C    -1.16789   1.37774   1.66169
C    -0.02448   0.79906  -0.29722
Cl    1.05638   0.96497  -1.68240
H     4.23718  -1.96890  -0.02058
H     4.63845  -0.58452  -1.07607
H     2.94307  -1.05056  -0.84225
H     4.67968   0.41089   1.10621
H    -0.16727  -2.93500   0.41502
H    -1.02966  -3.14764   2.90195
H    -1.22420  -1.36982   2.91393
H    -2.21621  -2.38938   1.82192
H    -2.92659   0.07772   1.07455
H    -3.05578   1.71334  -1.09394
H    -3.43196   2.47727   0.46766
H    -1.04478   3.04867  -1.24040
H    -1.50225   3.82966   0.28902
H     0.59832   2.56791   0.88689
H    -0.61608   0.67465   2.29662
H    -1.66771   2.12644   2.29397
