41
Generated by autodE on: 2022-10-07. E = -1090.762936 Ha
C     1.42331  -0.16017  -2.21676
C     1.14836   0.07342  -0.72010
C     2.41989   0.60532  -0.07447
C     2.55356   1.94810   0.30819
C     3.74476   2.42105   0.86987
C     4.82798   1.55899   1.05583
C     4.70916   0.21849   0.67233
C     3.51956  -0.25031   0.11153
N     0.02548   1.01636  -0.55596
C    -1.18355   0.22512  -0.85420
C    -2.43282   0.82352  -0.25171
C    -3.52241   1.15637  -1.06904
C    -4.69315   1.69574  -0.52474
C    -4.78858   1.91521   0.85209
C    -3.70894   1.58322   1.67922
C    -2.54484   1.03759   1.13355
C    -0.89205  -1.23961  -0.41728
C    -1.27464  -2.32589  -1.44927
O    -1.63437  -1.97799  -2.60810
O    -1.18334  -3.51577  -1.04360
C     0.62723  -1.26453  -0.08377
C     0.89034  -1.31108   1.43053
O     0.37604  -0.39743   2.14026
O     1.61604  -2.24164   1.87063
H     1.64171   0.79599  -2.71712
H     2.28904  -0.82574  -2.34446
H     0.56409  -0.63154  -2.71389
H     1.71885   2.63357   0.16138
H     3.82365   3.47155   1.16149
H     5.75836   1.92692   1.49524
H     5.54841  -0.46763   0.81208
H     3.44072  -1.30051  -0.17468
H    -0.00218   1.21314   0.44726
H    -1.32535   0.20533  -1.94136
H    -3.45182   0.98394  -2.14622
H    -5.53159   1.94679  -1.17945
H    -5.70002   2.33951   1.28049
H    -3.77750   1.74540   2.75807
H    -1.71389   0.75749   1.78527
H    -1.45675  -1.48254   0.49383
H     1.11663  -2.13549  -0.53739
