31
Generated by autodE on: 2022-10-07. E = -635.651185 Ha
C    -1.20947  -2.46798   0.78659
C    -1.17829  -1.03585   0.37530
N     0.03733  -0.50534   0.15443
C     1.25884  -1.06125   0.26968
C     2.47120  -0.35722  -0.03564
C     3.71025  -1.03411   0.12785
C     4.92173  -0.40713  -0.14744
C     4.95448   0.92052  -0.59699
C     3.74385   1.60620  -0.76385
C     2.52536   0.98807  -0.49165
C    -2.35292  -0.19852   0.21366
C    -3.65025  -0.76793   0.13021
C    -4.78304   0.02438  -0.04695
C    -4.67764   1.41625  -0.14933
C    -3.40841   2.00192  -0.05916
C    -2.27252   1.21864   0.12717
H    -0.75622  -3.12007   0.01568
H    -2.22566  -2.82381   0.98451
H    -0.61436  -2.62236   1.70683
H     0.03322   0.46232  -0.16922
H     1.30927  -2.09068   0.61679
H     3.70114  -2.06951   0.47896
H     5.85503  -0.95987  -0.00997
H     5.90553   1.41158  -0.81413
H     3.74849   2.64200  -1.11373
H     1.60757   1.56452  -0.63741
H    -3.77129  -1.85024   0.18553
H    -5.76300  -0.45556  -0.11298
H    -5.56713   2.03427  -0.28927
H    -3.30165   3.08817  -0.11872
H    -1.31323   1.73084   0.23591
