10
Generated by autodE on: 2022-10-07. E = -455.051705 Ha
O     2.35237  -0.00849  -1.00262
C     1.93362   0.38060   0.12209
O     2.64043   0.88118   1.04107
C     0.45476   0.24830   0.42505
C    -0.45473  -0.24826  -0.42504
C    -1.93362  -0.38059  -0.12209
O    -2.64041  -0.88119  -1.04107
O    -2.35241   0.00845   1.00261
H     0.13157   0.59161   1.41369
H    -0.13153  -0.59156  -1.41367
