22
Generated by autodE on: 2022-05-29. E = -425.583616 Ha
C     2.68791  -0.73090   0.03501
C     1.79611   0.44623   0.32982
O     2.22723   1.45449   0.88904
C     0.38551   0.34097  -0.08403
C    -0.60530   1.18044   0.29978
C    -1.91109   0.60627  -0.19247
C    -2.16623  -0.66289   0.69501
C    -1.04341  -1.63943   0.24366
C    -0.27549  -0.81073  -0.83510
C    -1.44642  -0.06211  -1.50647
H     2.75439  -0.88462  -1.05486
H     2.25683  -1.65293   0.45798
H     3.69148  -0.56062   0.44621
H    -0.49675   2.04576   0.95663
H    -2.75938   1.30030  -0.23942
H    -2.12754  -0.42458   1.76745
H    -3.16533  -1.06811   0.47602
H    -1.46427  -2.55015  -0.20792
H    -0.38248  -1.94610   1.06694
H     0.38027  -1.40328  -1.48358
H    -2.20219  -0.73384  -1.94195
H    -1.11400   0.66440  -2.26295
