20
Generated by autodE on: 2022-05-29. E = -566.020658 Ha
C     2.90515  -2.08079   1.99528
N     2.00904  -1.59112   0.96754
C     1.10698  -0.61411   1.17488
O     0.95034  -0.03190   2.26504
C     0.25652  -0.21922   0.03258
C     0.40204  -0.73601  -1.26412
N     0.58565  -1.20689  -2.32740
N    -0.63243   0.75263   0.35926
C    -1.59230   1.40415  -0.26742
C    -2.37117   2.46810   0.44099
C    -1.91156   1.10306  -1.61778
N    -2.24959   0.90385  -2.73556
H     3.95663  -1.87732   1.73638
H     2.78591  -3.16665   2.13157
H     2.67219  -1.57760   2.94061
H     2.04770  -2.03173   0.05342
H    -0.48553   1.00240   1.35477
H    -3.44494   2.22129   0.45263
H    -2.25662   3.43679  -0.07180
H    -2.01657   2.57120   1.47617
