20
Generated by autodE on: 2022-07-26. E = -566.014003 Ha
C     1.97234   1.23580   3.19182
N     1.13095   0.60312   2.19204
C     1.11508   1.06532   0.91519
O     1.80253   2.03192   0.55476
C     0.26500   0.35958  -0.05990
C     0.03806   0.99853  -1.29365
N    -0.11298   1.54858  -2.31329
N    -0.21119  -0.89120   0.19619
C    -1.06063  -1.69877  -0.42342
C    -1.26798  -3.10022   0.06118
C    -1.79440  -1.26102  -1.55514
N    -2.46631  -0.98489  -2.46733
H     1.96295   0.62273   4.10172
H     1.62359   2.25151   3.44459
H     3.00596   1.31294   2.82663
H     0.35381   0.04713   2.53385
H     0.20116  -1.31797   1.03276
H    -0.74110  -3.26571   1.01219
H    -0.88777  -3.82354  -0.67930
H    -2.34076  -3.30250   0.20452
