49
Generated by autodE on: 2022-05-31. E = -1128.500281 Ha
C    -1.85961   3.65182  -1.64753
O    -1.58300   2.38268  -1.03251
C    -0.61246   2.34386  -0.12362
O     0.02654   3.31565   0.21080
C    -0.42470   0.91229   0.45687
C    -1.88349   0.41025   0.58658
O    -2.46737  -0.25947  -0.23677
O    -2.46488   0.87392   1.69122
C    -3.85470   0.55868   1.87185
C     0.30803   1.07415   1.82743
C     1.05379  -0.11965   2.42886
C     0.25339  -1.38707   2.78456
C     0.40478  -2.55694   1.80801
C    -0.25016  -2.33879   0.42914
C    -0.44102  -3.66013  -0.32874
C     0.46168  -1.30641  -0.41144
C     0.38238   0.03620  -0.49188
C     1.47102   0.54578  -1.46888
C     2.69864   1.05632  -0.70420
C     1.02583   1.56457  -2.51808
N     1.83825  -0.69566  -2.20865
N     1.46597  -1.76878  -1.34187
C     2.45493  -2.57596  -0.95831
N     3.29889  -3.33304  -0.67491
H    -0.98099   4.00003  -2.20852
H    -2.12960   4.39317  -0.88274
H    -2.70100   3.47678  -2.32702
H    -3.99243  -0.52981   1.93747
H    -4.44634   0.95559   1.03482
H    -4.15118   1.03768   2.81173
H    -0.42376   1.46161   2.54898
H     1.04328   1.87536   1.68519
H     1.51259   0.27420   3.35022
H     1.90003  -0.39464   1.77993
H     0.58518  -1.74255   3.77325
H    -0.81707  -1.14228   2.89955
H    -0.06786  -3.44895   2.25133
H     1.47348  -2.80300   1.68439
H    -1.25272  -1.94479   0.62533
H    -0.89346  -3.49146  -1.31781
H     0.50651  -4.20152  -0.47163
H    -1.11156  -4.31694   0.24553
H     3.48377   1.35042  -1.41740
H     3.10216   0.27287  -0.04550
H     2.44172   1.93038  -0.09031
H     0.95988   2.57580  -2.09969
H     1.78124   1.59869  -3.31872
H     0.05673   1.29223  -2.95956
H     1.19946  -0.77772  -3.00437
