35
Generated by autodE on: 2022-05-31. E = -807.444635 Ha
C    -1.82092  -0.76192   2.97223
O    -1.10799  -0.29575   1.81251
C    -0.21419  -1.12158   1.28832
O     0.03899  -2.22497   1.72583
C     0.45547  -0.57953   0.01507
C     1.94916  -0.92678   0.14362
O     2.56342  -1.64660  -0.60941
O     2.48138  -0.31733   1.20124
C     3.87483  -0.55704   1.46012
C     0.25285   0.85209  -0.19943
C    -0.24143   1.83510  -0.70976
C    -1.10137   2.65766  -1.55917
C    -1.67158   3.90259  -0.87414
C    -2.21733   1.70001  -2.05972
C    -1.75865   0.32988  -2.60305
C    -1.59775  -0.85395  -1.60491
C    -0.17446  -1.30369  -1.21722
H    -1.11771  -0.97007   3.79069
H    -2.38613  -1.67244   2.72853
H    -2.50269   0.04950   3.24985
H     4.48374  -0.22026   0.60922
H     4.11845   0.02345   2.35697
H     4.04896  -1.62777   1.63849
H    -0.50671   2.97762  -2.43352
H    -2.33354   4.44640  -1.56562
H    -0.86902   4.58601  -0.55756
H    -2.25778   3.62433   0.01596
H    -2.93180   1.54243  -1.23308
H    -2.76821   2.23567  -2.85046
H    -0.82783   0.45554  -3.18341
H    -2.51947   0.02165  -3.33722
H    -2.19298  -0.65984  -0.69692
H    -2.06440  -1.73381  -2.07387
H    -0.16731  -2.38108  -0.99342
H     0.51159  -1.15086  -2.06309
