34
Generated by autodE on: 2022-12-30. E = -820.472813 Ha
C    -3.41968   3.32711   0.29071
N    -2.81650   2.01263   0.20206
C    -1.48532   1.85644   0.08003
O    -0.70890   2.83388   0.05601
C    -0.94643   0.47728   0.01125
N     0.38461   0.47788   0.06717
N     1.19409  -0.53289   0.05884
C     2.55130  -0.22812   0.02462
C     3.11056   1.04558  -0.23521
C     4.49489   1.21893  -0.24006
C     5.35631   0.14194  -0.00185
C     4.81193  -1.12596   0.23844
C     3.43174  -1.31018   0.24906
C    -1.73908  -0.75654  -0.07442
C    -1.44089  -1.86812   0.74009
C    -2.21194  -3.02769   0.66749
C    -3.28928  -3.10771  -0.22200
C    -3.58934  -2.01642  -1.04217
C    -2.82175  -0.85238  -0.97277
H    -3.10639   3.85587   1.20594
H    -4.51040   3.21428   0.30473
H    -3.13746   3.95038  -0.57188
H    -3.40975   1.19279   0.26347
H     0.74123   1.45166   0.11953
H     2.48026   1.90961  -0.45814
H     4.90546   2.21097  -0.44462
H     6.43856   0.28785  -0.01162
H     5.47024  -1.97912   0.42039
H     2.99968  -2.29514   0.43778
H    -0.60401  -1.81510   1.43555
H    -1.97110  -3.87611   1.31242
H    -3.88969  -4.01866  -0.27728
H    -4.42089  -2.07218  -1.74845
H    -3.05254  -0.01624  -1.63504
