46
Generated by autodE on: 2022-06-23. E = -1127.157738 Ha
C    -0.52793  -1.84442  -2.12298
C    -1.43151  -1.58250  -0.95882
O    -2.64480  -1.52695  -1.06631
C    -0.81112  -1.41251   0.44151
C    -1.37964  -2.54418   1.34330
C    -1.19706  -3.94820   0.84837
O    -1.92018  -2.28602   2.39933
N     0.64649  -1.55210   0.43982
C     1.20056  -0.39959   0.60033
C     2.66460  -0.22406   0.60214
C     3.24003   1.03312   0.86144
C     4.62781   1.19148   0.85812
C     5.45863   0.09929   0.59529
C     4.89582  -1.15693   0.33522
C     3.51253  -1.31761   0.33858
C     0.23371   0.76295   0.69033
C     0.18409   1.52685  -0.65631
C    -1.17956   2.10515  -0.92987
C    -1.38975   3.14038  -1.94910
N    -0.29883   3.51877  -2.66623
O    -2.49945   3.66796  -2.17437
C    -2.27669   1.66233  -0.24751
N    -2.27479   0.71721   0.72007
C    -3.50597   0.30406   1.37209
C    -1.06153   0.01689   1.05348
H     0.26599  -1.08610  -2.18555
H    -1.11441  -1.86815  -3.05027
H    -0.02501  -2.81342  -1.97087
H    -0.16802  -4.09713   0.49265
H    -1.86896  -4.11577  -0.00975
H    -1.44297  -4.66467   1.64251
H     2.60691   1.89609   1.07072
H     5.06057   2.17336   1.06221
H     6.54392   0.22481   0.59147
H     5.54154  -2.01314   0.12697
H     3.06987  -2.29264   0.13328
H     0.49444   1.46511   1.49257
H     0.94433   2.32247  -0.62269
H     0.49230   0.85878  -1.47964
H    -0.41976   4.21083  -3.39720
H     0.60625   3.07808  -2.56358
H    -3.24992   2.10619  -0.46579
H    -4.30883   1.00360   1.10556
H    -3.38278   0.31011   2.46617
H    -3.80321  -0.70868   1.06064
H    -1.06595  -0.15097   2.13921
