46
Generated by autodE on: 2022-06-23. E = -1127.092642 Ha. Imaginary frequency = -359.7 cm-1
C    -2.09048  -1.92457  -1.74450
C    -2.26271  -2.36096  -0.30226
O    -3.35785  -2.79885   0.08928
C    -1.11509  -2.18707   0.55701
C    -0.99155  -2.54355   1.96068
C    -2.18614  -3.13078   2.67460
O     0.06970  -2.36146   2.58327
N     0.02535  -1.67046   0.00006
C     0.79622  -0.75654   0.13702
C     2.11931  -0.33001  -0.25723
C     3.17216  -0.37911   0.67293
C     4.43560   0.07683   0.29949
C     4.64859   0.58854  -0.98605
C     3.59508   0.64300  -1.90486
C     2.32535   0.19196  -1.54565
C     0.03184   0.83232   1.49003
C     0.50916   2.07045   0.76170
C    -0.33241   2.26009  -0.48299
C     0.14566   2.98576  -1.68400
N     1.39845   3.49382  -1.61948
O    -0.56365   3.14623  -2.69179
C    -1.60695   1.79781  -0.49722
N    -2.15675   1.08304   0.55031
C    -3.56221   0.69368   0.47983
C    -1.32324   0.55538   1.49722
H    -1.25304  -2.45607  -2.22318
H    -1.85806  -0.84789  -1.79483
H    -3.01825  -2.12246  -2.29695
H    -3.02483  -2.41791   2.68049
H    -2.55086  -4.03555   2.16759
H    -1.89222  -3.36556   3.70671
H     2.98762  -0.77354   1.67379
H     5.25869   0.03500   1.01603
H     5.63899   0.95039  -1.27088
H     3.75922   1.04874  -2.90529
H     1.49031   0.25012  -2.24566
H     0.61425   0.47323   2.34022
H     0.43805   2.95991   1.41978
H     1.57674   1.97042   0.52125
H     1.78576   3.91864  -2.45596
H     2.03649   3.25329  -0.87082
H    -2.26371   1.97012  -1.35015
H    -4.20538   1.58584   0.49316
H    -3.80730   0.06298   1.34154
H    -3.76146   0.12910  -0.44209
H    -1.79353  -0.08241   2.24258
