20
Generated by autodE on: 2022-05-29. E = -573.573647 Ha
C    -3.39864   0.01218   0.40781
C    -1.96840  -0.26318   0.76275
O    -1.63222  -0.89644   1.74626
C    -0.89916   0.30198  -0.15135
O    -1.39832   1.14951  -0.97572
O    -0.65549   1.78961  -1.90168
C     0.50244  -0.05928  -0.06070
C     0.85632  -1.36652   0.34979
C     2.19601  -1.72633   0.45608
C     3.19978  -0.78991   0.18381
C     2.86023   0.50910  -0.21068
C     1.52476   0.87403  -0.35186
H    -3.58685   1.09711   0.39951
H    -3.61945  -0.36187  -0.60419
H    -4.04839  -0.47514   1.14503
H     0.08127  -2.10110   0.55991
H     2.46022  -2.74292   0.75397
H     4.25040  -1.07483   0.27565
H     3.64381   1.24060  -0.41847
H     1.25740   1.87858  -0.66789
