20
Generated by autodE on: 2022-07-26. E = -573.578533 Ha
C     0.58607   2.84752   0.43902
C     0.89593   1.67627  -0.43396
O     1.16781   1.72294  -1.61602
C     0.74912   0.30449   0.21774
O     1.73006  -0.06779   0.93365
O     2.79609   0.82388   0.99040
C    -0.39680  -0.55186   0.04802
C    -0.45203  -1.81840   0.67492
C    -1.57037  -2.62354   0.50376
C    -2.64116  -2.18233  -0.28780
C    -2.59316  -0.93105  -0.91125
C    -1.47792  -0.11366  -0.74825
H    -0.51314   2.92208   0.51843
H     0.98133   3.76745  -0.01305
H     0.99157   2.69637   1.44890
H     0.38487  -2.15489   1.28808
H    -1.61425  -3.60185   0.98621
H    -3.51765  -2.82083  -0.41842
H    -3.42817  -0.59224  -1.52717
H    -1.44191   0.85927  -1.24066
