13
Generated by autodE on: 2022-05-29. E = -642.534056 Ha
C     4.16568   0.39610  -0.00066
O     2.73671   0.58154  -0.00030
C     1.99839  -0.52047  -0.00322
O     2.42186  -1.65587  -0.00619
C     0.57514  -0.20805  -0.00225
C    -0.61713  -0.01077  -0.00162
C    -2.06576   0.22892   0.00156
F    -2.34574   1.53076  -0.14797
F    -2.61589  -0.17746   1.15393
F    -2.66564  -0.43428  -0.99648
H     4.47472  -0.15762   0.89700
H     4.59552   1.40351   0.00176
H     4.47486  -0.15344  -0.90084
