33
Generated by autodE on: 2022-05-29. E = -1216.105876 Ha. Imaginary frequency = -249.1 cm-1
C     5.27486  -0.25067   1.01152
O     3.91468  -0.50895   0.61632
C     3.20400   0.54417   0.22457
O     3.61376   1.68337   0.16474
C     1.84807   0.15665  -0.14972
C     0.83133  -0.24426  -0.71754
C     0.10374  -1.00669  -1.74073
F    -0.88611  -0.30139  -2.30941
F    -0.44731  -2.11496  -1.21292
F     0.92057  -1.40492  -2.73316
C    -0.77359   0.64093   0.82273
C    -0.71963   2.06255   0.23727
C    -1.04182   3.12413   1.24995
O    -0.55373   2.27480  -0.94098
C    -1.96748  -0.17785   0.72026
C    -2.05616  -1.39570   1.42929
C    -3.19781  -2.17901   1.31657
C    -4.25490  -1.76715   0.49276
C    -4.16777  -0.56772  -0.22096
C    -3.02946   0.22764  -0.11398
O     0.04508   0.39603   1.80096
O     1.20221   1.11529   1.69522
H     5.69029  -1.22200   1.30152
H     5.29634   0.44612   1.86147
H     5.84093   0.17397   0.17052
H    -2.12970   3.08268   1.43376
H    -0.77952   4.10853   0.84059
H    -0.53100   2.94592   2.20499
H    -1.22274  -1.71939   2.05348
H    -3.26666  -3.12033   1.86528
H    -5.14827  -2.38923   0.40392
H    -4.99014  -0.25133  -0.86529
H    -2.96409   1.15684  -0.68073
