34
Generated by autodE on: 2022-05-29. E = -1126.295503 Ha
C     5.13825   0.03195  -0.57255
N     3.70074  -0.11172  -0.70039
C     2.83680   0.30675   0.22609
O     3.11414   0.86455   1.28911
C     1.36923   0.04422  -0.07291
O     1.12513  -0.35014  -1.45584
C    -0.11193  -0.93664  -1.45401
O    -0.63540  -1.36774  -2.44047
C    -0.59505  -0.84153   0.00735
C    -1.68823  -1.77840   0.53001
C    -1.96487  -3.03450  -0.22459
O    -2.25226  -1.46284   1.55853
C    -0.84189   0.66901   0.22077
C    -2.12624   1.37933   0.19203
O    -2.30064   2.50371   0.62024
O    -3.07517   0.63870  -0.38799
C    -4.38997   1.21004  -0.46359
C     0.39164   1.19741   0.19336
F     0.76028   2.45476   0.22404
N     0.74444  -1.07198   0.63629
C     0.78551  -1.05094   2.09714
H     5.62193  -0.95076  -0.45979
H     5.55250   0.52681  -1.46292
H     5.35843   0.63962   0.31277
H     3.32291  -0.56112  -1.53004
H    -2.40557  -2.76869  -1.19925
H    -1.02404  -3.56567  -0.43975
H    -2.65371  -3.67220   0.34292
H    -4.37188   2.13562  -1.05635
H    -5.01697   0.45637  -0.95290
H    -4.76908   1.42645   0.54544
H     1.83295  -1.07352   2.41940
H     0.29447  -0.16803   2.54064
H     0.29420  -1.95592   2.47484
