24
Generated by autodE on: 2022-05-29. E = -721.635011 Ha
C     4.51116   0.57366   0.03138
N     3.06939   0.72829   0.05064
C     2.25854  -0.33632  -0.04338
O     2.65801  -1.49897  -0.14995
C     0.80722   0.01303  -0.00583
O     0.44448   1.28789   0.10985
C    -0.98933   1.36880   0.12865
O    -1.52343   2.45386   0.23017
C    -1.41093   0.01673   0.01010
C    -2.76876  -0.48225  -0.02884
C    -3.86524   0.55144   0.07259
O    -3.03741  -1.68334  -0.13898
N    -0.25093  -0.77033  -0.06697
C    -0.23892  -2.23139  -0.19857
H     4.84798  -0.07484   0.85494
H     4.84773   0.12362  -0.91573
H     4.97198   1.56182   0.14206
H     2.66628   1.65679   0.13237
H    -4.83611   0.04147   0.02580
H    -3.78764   1.28570  -0.74425
H    -3.78371   1.11560   1.01475
H    -0.76848  -2.50642  -1.11737
H     0.80028  -2.56167  -0.23152
H    -0.76315  -2.66686   0.65903
