10
Generated by autodE on: 2022-05-29. E = -404.601310 Ha
C    -2.84431   0.25186  -0.49466
O    -1.41927   0.32388  -0.67192
C    -0.67300  -0.14828   0.32903
O    -1.11991  -0.62316   1.35362
C     0.74115  -0.02531   0.04468
C     1.93143   0.05024  -0.13926
F     3.18134   0.13260  -0.33579
H    -3.16233  -0.79341  -0.37225
H    -3.15024   0.83445   0.38609
H    -3.28048   0.67887  -1.40465
