34
Generated by autodE on: 2022-05-29. E = -1126.223889 Ha. Imaginary frequency = -467.8 cm-1
C     5.11653   0.10318  -0.51018
N     3.69747  -0.17991  -0.62225
C     2.85094   0.13597   0.36378
O     3.18434   0.66683   1.42343
C     1.40447  -0.17861   0.06054
O     1.15537  -0.81847  -1.12375
C    -0.11902  -1.37731  -1.06219
O    -0.64039  -1.88134  -2.02641
C    -0.52938  -1.19583   0.32344
C    -1.82820  -1.58635   0.91422
C    -2.81213  -2.24583  -0.00715
O    -2.07959  -1.35813   2.09017
C    -0.72532   1.45663  -0.55323
C    -2.12013   1.21958  -0.75995
O    -2.62405   0.89742  -1.82540
O    -2.82448   1.39589   0.37349
C    -4.24225   1.18862   0.29172
C     0.49229   1.60444  -0.35094
F     1.48885   2.45151  -0.33335
N     0.51414  -0.64917   0.98983
C     0.48911  -0.21661   2.38779
H     5.28448   1.17141  -0.30536
H     5.60349  -0.16290  -1.45530
H     5.57467  -0.47811   0.30523
H     3.34065  -0.63624  -1.45622
H    -3.01561  -1.60584  -0.87919
H    -2.39000  -3.18471  -0.39907
H    -3.73870  -2.44616   0.54455
H    -4.62851   1.37475   1.30041
H    -4.46864   0.15818  -0.01445
H    -4.69427   1.89119  -0.42339
H     0.19809  -1.06423   3.01460
H     1.48387   0.15036   2.64732
H    -0.25552   0.58516   2.49186
