23
Generated by autodE on: 2022-07-27. E = -687.244434 Ha
C     3.41735  -0.87607  -1.76239
O     2.53962  -0.85093  -0.62859
C     1.33549  -0.31069  -0.82563
O     0.97735   0.14208  -1.90235
C     0.47043  -0.30630   0.37309
O    -0.68638   0.26250   0.05795
C    -1.82037   0.58488   0.55281
C    -2.77112   1.24676  -0.35013
C    -2.34917   1.49947  -1.76924
O    -3.86690   1.56309   0.10436
C     0.78827  -0.82891   1.70492
C    -0.25191  -0.73334   2.79269
O     1.88341  -1.34023   1.93649
H     2.97495  -1.46058  -2.58221
H     3.62447   0.14504  -2.11449
H     4.34156  -1.35145  -1.41403
H    -2.08950   0.38892   1.59078
H    -2.08123   0.55225  -2.26291
H    -3.16793   1.99010  -2.31004
H    -1.44835   2.13295  -1.79032
H    -1.16982  -1.27471   2.51266
H    -0.52277   0.31620   2.99169
H     0.16547  -1.17770   3.70490
