35
Generated by autodE on: 2022-06-20. E = -1068.898346 Ha. Imaginary frequency = -165.6 cm-1
C     3.95380  -0.05840  -1.36599
O     3.07219  -0.03870  -0.23304
C     1.92273   0.60572  -0.38841
O     1.62248   1.22592  -1.39368
C     0.99513   0.45840   0.76679
C     1.38608  -0.03802   2.11154
C     0.63037   0.44368   3.32337
O     2.32784  -0.81122   2.22851
O    -0.10554   1.16172   0.52122
C    -1.29774   1.09501   1.02980
C    -2.34472   1.88894   0.35432
C    -1.98397   2.60700  -0.91179
O    -3.45845   1.90879   0.86151
C    -1.66342  -1.21680   0.36159
C    -2.28592  -0.86832  -0.93679
O    -3.47641  -0.57809  -1.02506
C    -1.41269  -0.88760  -2.13336
C    -0.15459  -1.35998  -2.07760
C     0.41530  -1.89706  -0.81800
O     1.49276  -2.48889  -0.81257
C    -0.38177  -1.71056   0.41265
H     3.45575  -0.53544  -2.22201
H     4.25914   0.96232  -1.63604
H     4.82363  -0.64777  -1.05511
H    -0.26342  -0.18315   3.47751
H     0.31131   1.49292   3.23906
H     1.28504   0.31840   4.19562
H    -1.47586   0.72455   2.03699
H    -1.32109   2.00038  -1.54490
H    -2.89999   2.88151  -1.44965
H    -1.42825   3.52418  -0.65075
H    -2.33643  -1.29190   1.21688
H    -1.85916  -0.52554  -3.06227
H     0.48946  -1.40660  -2.95853
H     0.01926  -2.16106   1.32137
