29
Generated by autodE on: 2022-07-27. E = -820.107789 Ha
C     3.09217   0.24496  -2.62130
N     2.55745   0.45150  -1.29147
C     1.32898   0.03096  -0.95516
O     0.53525  -0.48374  -1.76520
C     0.96800   0.13829   0.47484
O    -0.25670  -0.19036   0.85312
C    -1.37471  -0.23797   0.18886
C    -1.56651   0.56740  -1.06723
C    -2.40952   0.01357  -2.17038
O    -1.11113   1.70176  -1.06961
C    -2.48892  -0.85497   0.92977
C    -2.18913  -1.43166   2.28642
O    -3.60706  -0.89625   0.42229
C     1.90162   0.27714   1.58916
C     1.36553   0.08408   2.98330
O     3.08431   0.58065   1.38972
H     3.39131  -0.80406  -2.78735
H     3.97200   0.88626  -2.75612
H     2.33714   0.50599  -3.37598
H     3.17068   0.70341  -0.51257
H    -2.27326  -1.07159  -2.27047
H    -2.15790   0.52973  -3.10672
H    -3.46857   0.20032  -1.93150
H    -3.12107  -1.80713   2.72690
H    -1.45995  -2.25269   2.19999
H    -1.74172  -0.66849   2.94175
H     0.61778   0.85900   3.21497
H     2.19792   0.15361   3.69452
H     0.86476  -0.89098   3.08093
