19
Generated by autodE on: 2022-06-07. E = -535.502987 Ha
C     3.52059  -0.23692   0.34639
O     2.11432  -0.44173   0.16192
C     1.37509   0.64817  -0.10285
O     1.84717   1.76904  -0.19357
C    -0.04186   0.31400  -0.25840
C    -1.07624   1.16273  -0.36697
C    -2.32471   0.25986  -0.38087
C    -2.45767  -0.33932   1.04030
C    -1.43472  -1.19127   1.14974
C    -0.68796  -1.09277  -0.20055
O    -1.79851  -0.87817  -1.09279
H     3.70455   0.43690   1.19606
H     3.97028   0.19261  -0.56082
H     3.94743  -1.22612   0.54864
H    -1.07027   2.25211  -0.37394
H    -3.22911   0.66327  -0.84800
H    -3.20798  -0.04669   1.77375
H    -1.11647  -1.79578   1.99830
H    -0.06505  -1.93934  -0.50398
