48
Generated by autodE on: 2022-06-07. E = -1355.620810 Ha. Imaginary frequency = -170.5 cm-1
C     3.44292  -0.73058  -2.89187
N     2.95915  -1.10122  -1.57767
C     1.64806  -1.10171  -1.29978
O     0.78287  -0.85159  -2.15491
C     1.26706  -1.36506   0.11295
C     2.19840  -1.72833   1.19526
C     1.61605  -2.20225   2.49638
O     3.41775  -1.63008   1.03490
O    -0.00226  -1.48538   0.46672
C    -1.12535  -1.07603  -0.07439
C    -1.48653  -1.28034  -1.52478
C    -1.27364  -2.68375  -2.03852
O    -2.15929  -0.46387  -2.12752
C    -2.26029  -0.99838   0.88636
C    -2.04145  -1.50495   2.28363
O    -3.32627  -0.52379   0.51266
C    -0.19656   1.40463   0.27244
C    -0.88747   1.87143  -0.93652
O    -0.39322   1.95044  -2.04664
O    -2.13826   2.26231  -0.65079
C    -2.92889   2.74864  -1.74136
C    -0.66919   1.69946   1.71786
C    -0.06984   3.07380   2.08980
C     1.24526   2.86000   2.20024
C     1.43152   1.35407   1.90023
O     0.21042   0.82770   2.44776
C     1.15033   1.18622   0.39789
H     4.52827  -0.88348  -2.92520
H     3.22376   0.32588  -3.11964
H     2.97048  -1.34801  -3.67071
H     3.59580  -1.23796  -0.79044
H     0.97598  -3.08327   2.33771
H     2.43734  -2.45098   3.17943
H     0.98575  -1.41558   2.93517
H    -0.44773  -3.20971  -1.54415
H    -1.10996  -2.65143  -3.12427
H    -2.20665  -3.23961  -1.83991
H    -2.99327  -1.45863   2.82716
H    -1.28616  -0.89228   2.79536
H    -1.66320  -2.53838   2.26374
H    -3.06254   1.95855  -2.49282
H    -3.89682   3.03024  -1.31069
H    -2.45121   3.62314  -2.20663
H    -1.72237   1.52552   1.95372
H    -0.63693   3.99984   2.17412
H     2.05483   3.56201   2.39548
H     2.31998   0.86257   2.30852
H     1.90276   1.26958  -0.38251
