39
Generated by autodE on: 2022-10-21. E = -1013.377041 Ha
C     2.44663  -1.24291   1.83962
O     1.18579  -1.23670   1.17012
C     0.85023  -0.15559   0.33030
C     1.94329  -0.01256  -0.75965
C     2.36793  -1.28219  -1.44762
O     2.48531   1.05211  -0.97939
C     0.49977   1.14639   1.12038
C     1.47927   1.75708   2.08071
N    -0.79177   0.79782   1.64930
C    -1.47898   0.61088   0.36029
C    -2.97650   0.42264   0.42524
C    -1.03961   1.88795  -0.38169
O    -1.62770   2.55879  -1.19522
O     0.19219   2.17062   0.06973
C    -0.56047  -0.48873  -0.31540
O    -0.41961  -0.29426  -1.70130
C    -1.57040  -0.43508  -2.53424
C    -0.92443  -1.96821  -0.00118
C    -1.47519  -2.35986   1.33901
O    -0.74714  -2.79372  -0.87703
H     3.17828  -0.56965   1.36879
H     2.83485  -2.27079   1.79802
H     2.32563  -0.94994   2.89331
H     2.73929  -1.03287  -2.45101
H     3.20382  -1.72294  -0.87854
H     1.56178  -2.02209  -1.50478
H     2.44914   1.92042   1.59515
H     1.61283   1.10733   2.95350
H     1.08320   2.72463   2.42236
H    -1.19948   1.57576   2.17442
H    -3.43247   1.30318   0.90245
H    -3.40158   0.32567  -0.58146
H    -3.24972  -0.46443   1.00777
H    -2.16745   0.48908  -2.54026
H    -2.20185  -1.28055  -2.22716
H    -1.19709  -0.62422  -3.55003
H    -0.96627  -3.27830   1.66488
H    -1.36837  -1.57443   2.09148
H    -2.54306  -2.60293   1.20962
