24
Generated by autodE on: 2022-10-21. E = -613.211950 Ha
C     2.53907   1.61464   0.07925
O     1.78393   0.42940  -0.21350
C     0.45432   0.45648  -0.08965
C    -0.24994   1.79747   0.10684
C    -0.71517   2.48932  -1.13484
O    -0.38793   2.23750   1.23265
C    -0.32864  -0.65483  -0.14727
O    -1.69489  -0.42196  -0.09170
C    -2.28701  -0.67113   1.18483
C     0.09427  -2.05665  -0.30440
C     1.55870  -2.39012  -0.40624
O    -0.76452  -2.93878  -0.35029
H     3.58898   1.34932  -0.09092
H     2.39504   1.91454   1.12695
H     2.25739   2.43897  -0.59262
H    -1.15586   3.46451  -0.88825
H     0.13277   2.61079  -1.82874
H    -1.45528   1.84852  -1.64054
H    -3.35589  -0.43351   1.09353
H    -1.83352  -0.02586   1.95593
H    -2.17335  -1.72672   1.47692
H     1.66888  -3.47880  -0.49750
H     2.01057  -1.89256  -1.27797
H     2.10249  -2.02877   0.47992
