15
Generated by autodE on: 2022-10-21. E = -400.137220 Ha
C     2.73203   0.44283   0.41995
C     1.28651   0.23252   0.21551
N     0.28171   0.88288   0.76229
C    -0.94501   0.38200   0.31612
C    -2.26527   0.90734   0.75183
C    -0.65760  -0.65063  -0.56849
O    -1.28591  -1.45202  -1.26698
O     0.81076  -0.70044  -0.59319
H     3.22275   0.68181  -0.53737
H     3.19875  -0.47318   0.81691
H     2.89690   1.26706   1.12609
H     0.39704   1.64843   1.42428
H    -2.40278   1.97277   0.49617
H    -3.05652   0.33694   0.24411
H    -2.42401   0.80587   1.83996
