39
Generated by autodE on: 2022-10-21. E = -1013.336688 Ha. Imaginary frequency = -377.3 cm-1
C     2.11523  -1.41134   1.99122
O     1.08457  -1.52174   1.01370
C     0.92018  -0.53804   0.06202
C     2.14057  -0.30609  -0.83346
C     3.02602  -1.50526  -1.06660
O     2.35774   0.76630  -1.36470
C     0.66242   1.23507   1.04594
C     1.91019   1.80438   1.64284
N    -0.39429   0.85062   1.85590
C    -1.54741   0.93048   1.17308
C    -2.88502   0.51248   1.64207
C    -1.27991   1.76803   0.02285
O    -2.01162   2.23593  -0.82639
O     0.08679   2.01505   0.05446
C    -0.31395  -0.63885  -0.66773
O    -0.36382   0.04008  -1.86424
C    -0.23237  -0.75640  -3.04283
C    -1.48544  -1.45309  -0.35328
C    -1.52517  -2.38450   0.83696
O    -2.46953  -1.40680  -1.11291
H     2.97268  -0.82151   1.63962
H     2.45446  -2.43197   2.21531
H     1.72678  -0.95885   2.91767
H     2.46487  -2.44731  -1.01243
H     3.51520  -1.39356  -2.04363
H     3.81323  -1.53688  -0.29511
H     2.74149   1.76380   0.92908
H     2.18426   1.25793   2.55234
H     1.72874   2.85822   1.90818
H    -0.26677   0.29002   2.69803
H    -3.46295   1.39264   1.97084
H    -3.44049   0.04797   0.81247
H    -2.81337  -0.19652   2.47677
H    -1.07588  -1.45432  -3.14988
H     0.71261  -1.32555  -3.03532
H    -0.22542  -0.06011  -3.89256
H    -0.85637  -3.24037   0.65486
H    -1.18935  -1.91770   1.76972
H    -2.55504  -2.75039   0.94469
