38
Generated by autodE on: 2022-06-17. E = -880.171403 Ha
C    -3.67943  -2.32313  -0.56794
N    -3.19844  -1.01578  -0.16267
C    -1.89996  -0.79501   0.10887
O    -1.06695  -1.70874   0.05343
C    -1.48755   0.65880   0.46792
C    -2.42021   1.23347   1.53909
C    -1.46029   1.52636  -0.80606
C    -0.10996   1.20531  -1.45046
C     0.79181   0.69324  -0.28379
C     1.98412   1.65912  -0.13499
C     1.74390   2.94310   0.60182
O     3.05736   1.38207  -0.64462
C     1.38933  -0.68740  -0.65094
O     1.34924  -1.20135  -1.74988
O     2.01178  -1.24653   0.38614
C     2.57751  -2.54652   0.17563
N    -0.08743   0.72117   0.87379
C     0.31716   0.17124   2.14953
H    -4.76423  -2.27230  -0.72169
H    -3.20232  -2.65296  -1.50498
H    -3.46589  -3.08033   0.20274
H    -3.84925  -0.23897  -0.14281
H    -2.51006   0.56759   2.40961
H    -3.42859   1.39706   1.13143
H    -2.03449   2.20654   1.87611
H    -1.51097   2.58086  -0.49782
H    -2.30646   1.32610  -1.47718
H     0.32808   2.07713  -1.95608
H    -0.19342   0.40557  -2.19511
H     0.78933   3.39935   0.30146
H     1.67008   2.73179   1.68058
H     2.57870   3.63345   0.42318
H     3.03035  -2.83846   1.13026
H     1.79112  -3.26158  -0.10649
H     3.34212  -2.51183  -0.61378
H     0.17220  -0.92051   2.23842
H     1.38146   0.38014   2.32385
H    -0.24770   0.65763   2.95963
