32
Generated by autodE on: 2022-07-27. E = -801.490590 Ha
C    -2.16806  -1.52935  -1.99471
N    -1.77887  -1.00300  -0.69868
C    -1.74299   0.31354  -0.46059
O    -2.13621   1.19752  -1.22112
C    -1.26338   0.72266   0.91850
C    -2.26950   1.24869   1.87557
N     0.00193   0.64682   1.16805
C     0.59312   1.06062   2.44308
C     0.93564   0.31178   0.11015
C     1.29984   1.40825  -0.72543
C     2.28731   1.17508  -1.85028
O     0.81639   2.54944  -0.55470
C     1.37794  -1.04140   0.02570
O     2.20514  -1.51513  -0.75291
O     0.72483  -1.84579   0.92846
C     1.07355  -3.23040   0.91150
H    -2.43050  -2.58911  -1.88761
H    -3.03924  -0.97896  -2.37416
H    -1.34998  -1.43598  -2.72823
H    -1.28214  -1.61538  -0.05232
H    -2.34462   0.57023   2.74208
H    -1.96565   2.23848   2.24982
H    -3.25175   1.32339   1.39525
H     1.38874   0.34674   2.68789
H    -0.15083   1.08099   3.24620
H     1.03253   2.05986   2.30593
H     3.24990   0.80533  -1.46736
H     2.43861   2.12497  -2.38105
H     1.91322   0.41448  -2.55208
H     0.47469  -3.70417   1.69916
H     0.83563  -3.68503  -0.06206
H     2.14446  -3.37103   1.12106
