32
Generated by autodE on: 2022-06-17. E = -801.489678 Ha
C    -2.80492   1.66920   1.05521
N    -1.96207   1.19501  -0.02788
C    -1.87478  -0.10208  -0.32757
O    -2.54377  -1.01461   0.16120
C    -0.95138  -0.49409  -1.46359
C    -1.56422  -0.72321  -2.79722
N     0.29153  -0.73371  -1.20574
C     1.19797  -1.29420  -2.21654
C     0.86542  -0.38676   0.07869
C     1.12820  -1.51237   0.91700
C     1.74186  -1.32582   2.28824
O     0.84224  -2.66634   0.52715
C     1.11218   1.00902   0.24861
O     0.76734   1.88806  -0.55875
O     1.75208   1.33817   1.39490
C     1.95740   2.73124   1.63597
H    -2.99150   2.74234   0.92303
H    -2.32904   1.50914   2.03696
H    -3.76322   1.13334   1.04316
H    -1.20300   1.79265  -0.36638
H    -2.57643  -0.30377  -2.83455
H    -0.94600  -0.27260  -3.58827
H    -1.62196  -1.80743  -2.99573
H     1.57573  -0.47494  -2.84716
H     0.68063  -2.03394  -2.83874
H     2.03489  -1.76946  -1.69678
H     1.15042  -0.63176   2.90243
H     1.78977  -2.30746   2.77895
H     2.75501  -0.90351   2.21330
H     2.47314   2.79658   2.60196
H     2.57984   3.18283   0.84931
H     0.99861   3.26883   1.68769
