42
Generated by autodE on: 2022-06-19. E = -995.516463 Ha
C    -2.33149  -2.20627   2.35276
N    -1.37386  -1.28687   1.76728
C    -1.34906  -1.02748   0.45706
O    -2.10721  -1.55518  -0.36293
C    -0.33327   0.03990  -0.02170
C    -1.17568   1.27869  -0.33235
C    -1.53510   2.15133   0.70577
C    -2.35291   3.25499   0.45229
C    -2.83138   3.49465  -0.83952
C    -2.48514   2.62198  -1.87465
C    -1.66327   1.51892  -1.62431
N     0.63837   0.32977   1.03601
C     1.78008  -0.15935   0.73708
C     2.92475  -0.03248   1.71210
C     2.70637   0.80834   2.93518
O     3.97706  -0.61068   1.49164
C     1.87302  -0.91635  -0.58297
C     1.96619  -2.42619  -0.27932
C     3.04832  -0.48087  -1.46690
C     0.52026  -0.47233  -1.22966
C    -0.12212  -1.51039  -2.11826
O    -0.48576  -1.27411  -3.25597
H    -3.35811  -1.81027   2.29101
H    -2.30689  -3.17444   1.83118
H    -2.07443  -2.36245   3.40727
H    -0.73016  -0.77306   2.36270
H    -1.16958   1.96586   1.71582
H    -2.61833   3.92929   1.27003
H    -3.47182   4.35720  -1.03818
H    -2.85526   2.79757  -2.88753
H    -1.40665   0.84945  -2.44531
H     2.43140   1.83474   2.64727
H     3.62034   0.81678   3.54232
H     1.86584   0.40589   3.52161
H     2.86575  -2.62776   0.31751
H     2.04257  -3.00342  -1.21287
H     1.09151  -2.78602   0.28251
H     2.93654  -0.92914  -2.46677
H     4.00749  -0.80829  -1.04525
H     3.07208   0.61353  -1.58396
H     0.72512   0.39837  -1.86554
H    -0.20589  -2.53672  -1.70876
