14
Generated by autodE on: 2022-06-19. E = -270.683223 Ha
C    -1.38933   1.86460  -0.33649
C    -0.61826   0.61463  -0.05190
C    -1.35847  -0.46871   0.67887
C     0.67868   0.50031  -0.44952
C     1.53594  -0.65662  -0.23937
O     1.22655  -1.71057   0.31191
H    -1.75248   2.30493   0.60887
H    -2.29278   1.62206  -0.92342
H    -0.79740   2.61428  -0.87934
H    -2.37739  -0.14859   0.93774
H    -0.82780  -0.75960   1.59876
H    -1.41929  -1.38215   0.06532
H     1.14541   1.33825  -0.97552
H     2.57282  -0.53173  -0.63591
