28
Generated by autodE on: 2022-06-19. E = -724.754237 Ha
C    -0.71616   4.03219   0.42634
N    -0.84638   2.61045   0.17394
C     0.21907   1.78794   0.22633
O     1.36082   2.19739   0.47922
C    -0.02317   0.33964  -0.07582
N     1.06008  -0.31156  -0.34931
C     2.12323  -0.78370  -0.65305
C     3.26377  -1.41340  -0.01214
C     4.32379  -0.43591   0.42432
O     3.36061  -2.63149   0.07949
C    -1.32460  -0.35536  -0.12551
C    -2.37895  -0.01455   0.74425
C    -3.59318  -0.70163   0.68664
C    -3.77468  -1.74346  -0.22727
C    -2.72747  -2.09957  -1.08482
C    -1.51491  -1.41373  -1.03618
H    -1.71792   4.47662   0.47045
H    -0.13883   4.53571  -0.36685
H    -0.20329   4.21125   1.38318
H    -1.74547   2.24732  -0.12231
H     5.03047  -0.28074  -0.40843
H     4.87350  -0.86395   1.27482
H     3.88517   0.53710   0.69038
H    -2.24498   0.77546   1.48383
H    -4.39890  -0.42543   1.37065
H    -4.72563  -2.27924  -0.26885
H    -2.85845  -2.91376  -1.80137
H    -0.70482  -1.69237  -1.71356
