42
Generated by autodE on: 2022-06-19. E = -995.440956 Ha. Imaginary frequency = -334.5 cm-1
C    -1.79735  -3.40037   1.48762
N    -1.19497  -2.08315   1.42641
C    -1.66436  -1.14871   0.57365
O    -2.70260  -1.31519  -0.07406
C    -0.82905   0.10017   0.44110
C    -1.30120   1.36039  -0.14647
C    -0.57537   2.54776   0.10163
C    -0.95758   3.75055  -0.48366
C    -2.07230   3.80105  -1.33060
C    -2.79772   2.63423  -1.58073
C    -2.42457   1.42175  -0.99705
N     0.32239   0.09243   1.07031
C     1.52005  -0.13012   1.02064
C     2.56673  -0.03703   2.06895
C     3.14511   1.32561   2.28539
O     2.91753  -1.05446   2.64254
C     2.01794  -0.92681  -0.85205
C     2.12071  -2.37671  -0.41591
C     3.35039  -0.23134  -1.05279
C     0.94539  -0.49428  -1.65370
C    -0.18799  -1.26539  -2.05009
O    -1.05525  -0.88214  -2.85573
H    -2.87421  -3.32669   1.69931
H    -1.67292  -3.94477   0.53632
H    -1.31590  -3.97209   2.29010
H    -0.29848  -1.94606   1.87998
H     0.28942   2.52673   0.76702
H    -0.38618   4.65752  -0.27340
H    -2.37298   4.74638  -1.78798
H    -3.66721   2.66182  -2.24168
H    -2.98646   0.51656  -1.20384
H     3.46773   1.75315   1.32298
H     3.98965   1.26644   2.98468
H     2.36115   1.98842   2.68885
H     2.82526  -2.48378   0.42074
H     2.50471  -2.98439  -1.25325
H     1.15352  -2.79147  -0.10393
H     3.83535  -0.64972  -1.95173
H     4.03524  -0.39809  -0.20843
H     3.22577   0.85019  -1.20807
H     0.99866   0.51330  -2.07973
H    -0.26478  -2.29011  -1.62171
