37
Generated by autodE on: 2022-06-18. E = -916.894425 Ha. Imaginary frequency = -332.0 cm-1
C    -2.54706   2.36808  -0.76185
C    -1.92074   2.47273   0.42542
C    -1.94382   3.74525   1.22864
C    -1.11678   1.38457   1.01076
C    -1.08683   0.06086   0.49723
C    -0.80169  -1.04301   1.38465
C    -0.99776  -2.36279   1.12400
C    -0.66281  -3.39660   2.15611
C    -1.55048  -2.90008  -0.16217
C     1.01590   0.20505  -0.51545
C     1.43581  -1.18255  -0.76610
O     1.11249  -1.74377  -1.82062
N     2.13434  -1.77627   0.21562
C     2.49562  -3.17832   0.13914
O     1.45937   0.89753   0.56454
N     0.82911   2.10840   0.55860
O     0.59705   2.36502  -0.77815
C     0.59004   1.16433  -1.50094
O     0.26010   1.11741  -2.66229
H    -3.10319   3.21478  -1.17312
H    -2.52706   1.45522  -1.36106
H    -2.33216   3.56075   2.24438
H    -2.56213   4.51799   0.75088
H    -0.92027   4.13905   1.34936
H    -0.91253   1.48150   2.08018
H    -1.60122  -0.14825  -0.44101
H    -0.38912  -0.77187   2.36196
H    -1.54928  -4.01013   2.39485
H     0.09635  -4.09451   1.76165
H    -0.28054  -2.95008   3.08499
H    -1.69441  -2.13806  -0.93738
H    -2.51750  -3.39956   0.02550
H    -0.87650  -3.67418  -0.56440
H     2.26968  -1.27765   1.08968
H     1.60491  -3.81219   0.00697
H     3.00178  -3.46277   1.06893
H     3.17439  -3.36464  -0.70743
