9
Generated by autodE on: 2022-06-16. E = -172.071435 Ha
C     1.78022   0.39659   0.12859
N     0.58840  -0.00319  -0.10948
C    -0.51668  -0.44064  -0.40625
C    -1.79405  -0.05284   0.26344
H     2.17655   1.26836  -0.40184
H     2.40211  -0.14719   0.84690
H    -2.48451   0.35598  -0.49222
H    -1.66792   0.68091   1.07978
H    -2.28140  -0.95917   0.65823
