27
Generated by autodE on: 2022-06-16. E = -557.473550 Ha
C     3.71000   0.08953  -0.36655
O     2.40085   0.55772  -0.72140
C     1.37992  -0.28192  -0.50963
O     1.52286  -1.40818  -0.07742
C     0.05449   0.38503  -0.81514
N    -0.97391  -0.61018  -1.11418
C    -1.79627  -0.66609  -0.13224
C    -2.96108  -1.59762  -0.10095
C    -1.50647   0.27104   1.02678
C    -1.03341  -0.48892   2.27284
C    -0.44072   1.21094   0.41564
C    -1.01650   2.55551  -0.01803
H     3.75388  -0.15616   0.70457
H     4.39830   0.91154  -0.59495
H     3.97403  -0.80061  -0.95575
H     0.21758   1.03935  -1.68386
H    -3.89737  -1.02991   0.02974
H    -2.88189  -2.27817   0.76273
H    -3.02049  -2.19311  -1.02177
H    -2.42183   0.83040   1.28435
H    -0.79220   0.21686   3.08267
H    -1.81013  -1.17554   2.64339
H    -0.13125  -1.07879   2.04981
H     0.37985   1.38400   1.12793
H    -1.83534   2.41497  -0.74284
H    -1.41936   3.10652   0.84657
H    -0.24509   3.18176  -0.49354
