27
Generated by autodE on: 2022-06-16. E = -557.365948 Ha. Imaginary frequency = -396.3 cm-1
C     3.61542   0.13306  -0.31191
O     2.39273   0.44930  -0.97715
C     1.32721  -0.34794  -0.69171
O     1.41860  -1.32083   0.05563
C     0.13246   0.12722  -1.33696
N    -0.99259  -0.56394  -1.16546
C    -1.84976  -0.83174  -0.35875
C    -2.90987  -1.81610  -0.12145
C    -1.42035   0.56333   1.35666
C    -1.09178  -0.46322   2.41689
C    -0.47300   1.42484   0.85416
C    -0.81588   2.69724   0.13291
H     3.50251   0.21061   0.78056
H     4.35239   0.86694  -0.66126
H     3.95369  -0.88351  -0.56434
H     0.17780   0.88699  -2.11653
H    -3.71656  -1.38991   0.49125
H    -2.47649  -2.66922   0.42602
H    -3.31485  -2.18647  -1.07621
H    -2.47037   0.87547   1.29163
H    -1.16178  -0.01995   3.42658
H    -1.78117  -1.32123   2.40142
H    -0.06928  -0.84831   2.28897
H     0.56603   1.30214   1.17638
H    -1.74694   2.59209  -0.44742
H    -0.97044   3.53012   0.84575
H    -0.01553   3.00968  -0.55459
