36
Generated by autodE on: 2022-06-03. E = -621.974162 Ha
C    -0.37457  -2.38342  -3.60283
C    -0.85872  -1.66324  -2.33409
C    -2.07745  -0.78445  -2.66303
C     0.21276  -0.86157  -1.71540
C     0.91709  -0.44397  -0.81677
C     1.25727  -0.26405   0.59948
C     1.10285   1.16136   1.11124
C     0.35161   2.12873   0.43047
C     0.19141   3.41356   0.96174
C     0.78254   3.74972   2.18214
C     1.53874   2.79183   2.86792
C     1.69640   1.51096   2.33514
C     0.30716  -1.26348   1.34982
C    -1.18234  -1.13312   0.95724
C    -1.82099  -2.24688   0.09267
C    -1.19418  -2.72000  -1.23447
H    -0.06979  -1.65818  -4.37319
H    -1.18257  -3.00683  -4.01706
H     0.48569  -3.03476  -3.38370
H    -2.41770  -0.21844  -1.78383
H    -1.83390  -0.06383  -3.45900
H    -2.91070  -1.41443  -3.01342
H     2.29465  -0.57611   0.80018
H    -0.10635   1.87565  -0.52774
H    -0.39722   4.15492   0.41551
H     0.65968   4.75339   2.59620
H     2.01140   3.04585   3.82001
H     2.29048   0.76752   2.87381
H     0.66899  -2.28418   1.14599
H     0.43605  -1.09600   2.43050
H    -1.34592  -0.15679   0.47590
H    -1.78092  -1.09659   1.88218
H    -1.90542  -3.15248   0.71907
H    -2.86102  -1.93495  -0.10347
H    -1.89384  -3.44842  -1.68121
H    -0.26501  -3.27563  -1.02801
