60
Generated by autodE on: 2022-06-03. E = -1065.798558 Ha. Imaginary frequency = -227.5 cm-1
C    -8.90832   2.53941  15.85454
C    -8.43024   1.11578  15.52001
C    -9.65496   0.20410  15.31567
C    -7.60994   0.51451  16.69928
C    -6.43355   1.30613  17.28593
C    -5.25750   1.69477  16.37203
C    -4.69131   0.56723  15.48549
C    -4.99198   0.75517  13.96821
C    -4.10407   1.84096  13.37791
C    -2.79525   1.51748  12.98645
C    -1.93745   2.48849  12.46617
C    -2.37688   3.81030  12.32638
C    -3.67516   4.14691  12.71968
C    -4.52872   3.16899  13.24276
C    -6.44427   0.98765  13.79221
C    -7.57080   1.12780  14.29854
C    -8.88728   1.82338  12.13608
C    -8.52598   3.26886  12.28229
C   -10.34311   1.47539  12.06385
N    -8.03959   1.00770  11.49237
C    -6.69198   1.14847  11.41360
C    -5.85269   0.08571  10.90654
C    -4.56557   0.39526  10.40550
C    -3.69958  -0.60482   9.96772
C    -4.08831  -1.95024  10.00288
C    -5.36046  -2.27551  10.49196
C    -6.22604  -1.28032  10.94442
H    -9.45625   2.54365  16.81125
H    -9.58491   2.91779  15.07403
H    -8.06514   3.24112  15.93892
H    -9.34134  -0.82363  15.07233
H   -10.26220   0.16583  16.23468
H   -10.29278   0.56680  14.50083
H    -7.26094  -0.48110  16.37901
H    -8.31729   0.33148  17.52766
H    -6.81475   2.22552  17.76249
H    -6.03486   0.69213  18.11341
H    -4.45789   2.08571  17.02255
H    -5.55452   2.54242  15.73687
H    -5.10492  -0.40570  15.79594
H    -3.59947   0.48871  15.60721
H    -4.71280  -0.18123  13.45786
H    -2.45319   0.48293  13.07601
H    -0.92558   2.21200  12.15911
H    -1.71096   4.57150  11.91258
H    -4.02931   5.17586  12.61727
H    -5.54391   3.43769  13.53793
H    -8.56240   3.77251  11.29420
H    -7.51971   3.41650  12.69162
H    -9.24486   3.77712  12.93876
H   -10.50420   0.38696  12.02292
H   -10.81201   1.92180  11.16433
H   -10.88492   1.87701  12.93196
H    -8.40197   0.07089  11.31646
H    -6.31148   2.16583  11.37097
H    -4.25145   1.44030  10.36945
H    -2.70995  -0.33121   9.59206
H    -3.40991  -2.73392   9.65811
H    -5.67728  -3.32104  10.53480
H    -7.19560  -1.57222  11.35669
