43
Generated by autodE on: 2022-10-08. E = -1295.413752 Ha
C    -2.09991   2.95592   1.52239
N    -1.31788   1.76648   1.24953
C    -1.90583   0.70119   0.68944
O    -3.12865   0.55019   0.59741
C    -0.94214  -0.37034   0.11899
C    -1.54874  -1.75540   0.30362
C    -1.17007  -2.55114   1.39175
C    -1.75015  -3.80890   1.58678
C    -2.72191  -4.28043   0.70013
C    -3.10644  -3.48737  -0.38649
C    -2.52357  -2.23369  -0.58482
O     0.29134  -0.25781   0.83058
N     1.34863  -0.35260  -0.13830
C     2.59324  -0.10810   0.44261
C     3.68013   0.27993  -0.36903
C     4.94811   0.43991   0.18915
C     5.16508   0.23196   1.55600
C     4.08428  -0.14111   2.36110
C     2.80887  -0.31175   1.81953
C     0.88194   0.41909  -1.29053
C     1.12522   1.94944  -1.16607
O     1.07101   2.46957  -0.01551
O     1.41610   2.53995  -2.23062
C    -0.57760  -0.06554  -1.38019
C    -1.58164   0.83610  -2.14314
O    -1.62181   2.05484  -1.84484
O    -2.30381   0.26031  -2.99810
H    -2.46950   3.41278   0.58759
H    -2.96891   2.71638   2.15125
H    -1.47352   3.68726   2.04953
H    -0.32786   1.91245   0.99232
H    -0.41269  -2.18610   2.08640
H    -1.43995  -4.42135   2.43708
H    -3.17607  -5.26256   0.85242
H    -3.86295  -3.84842  -1.08766
H    -2.81883  -1.62442  -1.44051
H     3.53392   0.46114  -1.43424
H     5.77648   0.74099  -0.45730
H     6.16000   0.36388   1.98647
H     4.23037  -0.30146   3.43253
H     1.97515  -0.59856   2.45834
H     1.41987   0.07701  -2.18301
H    -0.55768  -1.03054  -1.89786
