33
Generated by autodE on: 2022-10-13. E = -840.283173 Ha
C    -2.46678   3.44198   0.58224
N    -1.62445   2.31679   0.23053
C    -2.07360   1.05098   0.33827
O    -3.22891   0.78190   0.69025
C    -1.08072  -0.02794   0.01936
O     0.13964   0.41438   0.11641
N     1.25375  -0.28727  -0.15136
C     2.35698   0.50996   0.08545
C     3.60420  -0.06295  -0.26264
C     4.78734   0.64346  -0.06788
C     4.76514   1.93339   0.47927
C     3.53542   2.50365   0.83311
C     2.34092   1.81066   0.64673
C    -1.46443  -1.38362  -0.31636
C    -0.60230  -2.48961  -0.11369
C    -1.02916  -3.78148  -0.41317
C    -2.30212  -4.00376  -0.94687
C    -3.15818  -2.91848  -1.17188
C    -2.75386  -1.62627  -0.85699
H    -1.90473   4.36898   0.41833
H    -3.37802   3.46392  -0.03622
H    -2.77736   3.39483   1.63830
H    -0.66957   2.48075  -0.06989
H     3.61563  -1.06687  -0.69237
H     5.73885   0.18367  -0.34649
H     5.69481   2.48543   0.63262
H     3.50607   3.50581   1.26869
H     1.39602   2.26353   0.94592
H     0.39493  -2.32484   0.28327
H    -0.35524  -4.62262  -0.23610
H    -2.62505  -5.01776  -1.19356
H    -4.14979  -3.08241  -1.59934
H    -3.43025  -0.79308  -1.03480
