10
Generated by autodE on: 2022-10-08. E = -455.046616 Ha
O    -1.18980  -0.82504  -0.64649
C    -1.55471   0.26935  -0.13127
O    -2.73941   0.71039  -0.10827
C    -0.50949   1.14711   0.51641
C     0.80354   0.87571   0.60158
C     1.53359  -0.34982   0.08561
O     2.01676  -0.27229  -1.07356
O     1.67218  -1.30351   0.89461
H    -0.89336   2.08123   0.94270
H     1.45504   1.60684   1.10037
