51
Generated by autodE on: 2022-06-22. E = -1224.862180 Ha
C    -0.23872  -2.73000   0.91540
C     0.28055  -2.21746  -0.21000
C     1.13582  -3.06326  -1.11594
C     0.05345  -0.78285  -0.65174
C    -1.11331  -0.05061   0.03995
C    -2.42471  -0.24901  -0.65720
C    -3.56561  -0.71053  -0.11462
C    -4.80251  -0.87620  -0.95625
C    -3.73413  -1.10172   1.32868
N    -0.66882   1.36413   0.04623
C    -1.08490   2.17693   1.06109
O    -2.01561   1.89405   1.80420
O    -0.41184   3.33528   1.11316
C    -0.81815   4.25027   2.13631
N     0.60341   1.55503  -0.53936
C     0.47865   2.10888  -1.89128
C     1.23765   0.22674  -0.44604
C     2.34158   0.11754  -1.50238
O     2.24978  -0.50704  -2.53405
O     3.39576   0.84869  -1.15705
C     4.49512   0.88638  -2.08360
C     1.80351   0.02427   0.96397
O     1.42195   0.61769   1.94817
O     2.70401  -0.95247   0.98000
C     3.18451  -1.38058   2.26489
H    -0.04516  -3.77264   1.18352
H    -0.86409  -2.15999   1.60313
H     2.17637  -2.70392  -1.13072
H     1.14150  -4.11170  -0.78548
H     0.77324  -3.02044  -2.15574
H    -0.12561  -0.79040  -1.73780
H    -1.18220  -0.35800   1.08758
H    -2.41658   0.01187  -1.72207
H    -5.15781  -1.92128  -0.92488
H    -4.63022  -0.59889  -2.00661
H    -5.62774  -0.25773  -0.56145
H    -2.86465  -0.86791   1.95433
H    -3.93731  -2.18374   1.40970
H    -4.61139  -0.58818   1.75771
H    -0.16964   5.12792   2.02867
H    -0.68451   3.80505   3.13316
H    -1.87064   4.54151   2.00522
H     1.47585   2.36014  -2.27770
H    -0.03265   1.43749  -2.60388
H    -0.09058   3.04386  -1.81288
H     4.89605  -0.12562  -2.23526
H     4.16411   1.30269  -3.04550
H     5.25114   1.53344  -1.62553
H     2.34697  -1.75713   2.86949
H     3.90239  -2.18340   2.06464
H     3.67562  -0.54722   2.78592
