77
Generated by autodE on: 2022-07-03. E = -1860.983748 Ha
C     9.63857   6.54405 -34.79698
C     9.30416   5.07909 -34.79045
O     8.16466   4.69132 -34.57822
C    10.38627   4.04191 -35.24819
C    11.76782   4.67352 -35.45965
C    10.27253   2.78972 -34.32804
C     9.52001   1.84721 -34.96300
C     9.14174   2.34464 -36.37435
C     9.40188   1.40194 -37.54583
C    10.70826   0.97542 -37.82069
C    10.97366   0.13418 -38.90259
C     9.93276  -0.27653 -39.74182
C     8.63241   0.17840 -39.50134
C     8.37327   1.01806 -38.41506
N     9.95073   3.53054 -36.55133
C     9.44659   4.44938 -37.55076
C     8.91379   0.47239 -34.58970
C     9.43797  -0.67097 -35.52302
C    10.90591  -0.99523 -35.44002
O     8.67560  -1.36871 -36.16243
C     7.36533   0.54561 -34.72449
F     6.77092  -0.54638 -34.20907
F     6.90509   0.65640 -35.97974
F     6.86962   1.61136 -34.05921
C     9.21515  -0.14862 -33.18976
C     8.51689   0.43049 -31.96077
C     8.87078   1.89085 -31.71300
C    10.39158   2.06665 -31.75235
C    11.01503   2.86248 -32.96026
C    12.44471   2.29383 -33.13242
C    12.92987   1.79458 -34.34685
C    14.20908   1.23446 -34.44913
C    15.03730   1.16051 -33.32980
C    14.56838   1.65093 -32.10552
C    13.29203   2.20509 -32.01029
C    11.05397   4.33031 -32.43307
C    12.24016   5.07031 -32.30929
C    12.24592   6.35377 -31.75497
C    11.06043   6.93312 -31.29692
C     9.87133   6.20890 -31.40234
C     9.87201   4.92924 -31.96094
H    10.53822   6.76118 -34.20662
H     9.84906   6.85607 -35.83312
H     8.78466   7.11632 -34.41297
H    11.70102   5.40097 -36.28043
H    12.48950   3.90603 -35.75861
H    12.15482   5.20196 -34.58808
H     8.06422   2.59671 -36.38145
H    11.52294   1.29949 -37.17247
H    11.99589  -0.20293 -39.09063
H    10.13651  -0.93774 -40.58756
H     7.81672  -0.11836 -40.16521
H     7.35750   1.37250 -38.23386
H     9.37953   3.92873 -38.51810
H     8.43606   4.84682 -37.31963
H    10.13223   5.29829 -37.68007
H    11.22962  -1.44023 -36.38798
H    11.52446  -0.13023 -35.18426
H    11.03493  -1.75082 -34.64760
H     8.95397  -1.21476 -33.25377
H    10.30144  -0.11516 -33.05496
H     8.85735  -0.17214 -31.10148
H     7.42852   0.29233 -32.01723
H     8.37816   2.52016 -32.46400
H     8.47427   2.20557 -30.73553
H    10.86659   1.08033 -31.70686
H    10.73132   2.57840 -30.84435
H    12.30431   1.83296 -35.23460
H    14.55001   0.85338 -35.41479
H    16.03623   0.72466 -33.40569
H    15.20071   1.60095 -31.21569
H    12.95504   2.58216 -31.04411
H    13.18273   4.65198 -32.65785
H    13.18907   6.90080 -31.68324
H    11.06435   7.93555 -30.86269
H     8.93027   6.64003 -31.05292
H     8.92635   4.39909 -32.03284
