48
Generated by autodE on: 2022-07-03. E = -1264.377890 Ha
C    -2.51403  -2.76556  -0.77906
C    -1.81737  -2.33469  -2.03053
O    -1.75103  -3.02121  -3.02798
C    -1.14442  -0.91901  -2.04279
C    -2.09533   0.03115  -2.79015
F    -1.63261   1.29336  -2.79131
F    -2.26442  -0.33273  -4.06898
F    -3.31371   0.05802  -2.21748
C    -0.87083  -0.41023  -0.70195
C    -0.18757  -0.12080   0.25449
C     0.98051   0.06799   1.11549
C     0.65047  -0.29843   2.57081
C     1.50001  -1.07986   3.36389
C     1.17445  -1.35351   4.69785
C    -0.00353  -0.85236   5.25531
C    -0.85817  -0.07105   4.46904
C    -0.53111   0.20190   3.14037
C     1.49061   1.52276   1.05873
C     2.53824   1.91022   1.90937
C     3.05566   3.20547   1.86099
C     2.53091   4.14081   0.96153
C     1.48833   3.76439   0.11277
C     0.97268   2.46375   0.15995
C     2.04847  -0.88578   0.47380
C     2.24027  -0.76203  -1.05185
C     1.36812  -1.64875  -1.98670
C     0.22632  -0.98320  -2.78094
H    -1.76408  -2.91038   0.01546
H    -3.19539  -1.97452  -0.43017
H    -3.05820  -3.70203  -0.95437
H     2.42685  -1.47989   2.95321
H     1.84964  -1.96499   5.30139
H    -0.25661  -1.06889   6.29584
H    -1.78380   0.32634   4.89249
H    -1.20090   0.81480   2.53189
H     2.95189   1.19301   2.62102
H     3.87109   3.48698   2.53170
H     2.93291   5.15606   0.92528
H     1.06896   4.48403  -0.59462
H     0.16175   2.18147  -0.51277
H     1.77215  -1.92220   0.72288
H     3.00714  -0.68235   0.97260
H     2.15743   0.29483  -1.35584
H     3.28867  -1.03666  -1.24415
H     2.04273  -2.07221  -2.74629
H     0.97964  -2.51716  -1.42783
H     0.51673   0.04291  -3.05110
H     0.05509  -1.53394  -3.71589
