29
Generated by autodE on: 2022-07-03. E = -596.529151 Ha
C    -4.59182  -0.61461   0.20792
C    -3.31357   0.21787   0.13624
O    -3.46811   1.46747   0.10356
C    -2.07595  -0.50196   0.09410
C    -2.05467  -1.99936   0.00890
N    -0.81988   0.11056   0.04755
C    -0.68699   1.53927   0.39490
C     0.27184  -0.57991  -0.27472
C     1.66934  -0.19707  -0.17674
C     2.22598   0.71389   0.75276
C     3.59968   0.95381   0.77710
C     4.45753   0.29956  -0.11319
C     3.92773  -0.62281  -1.02331
C     2.55899  -0.87456  -1.04731
H    -5.44004   0.07940   0.27620
H    -4.72292  -1.24446  -0.68631
H    -4.60670  -1.28113   1.08450
H    -3.02040  -2.43465   0.28083
H    -1.29255  -2.42065   0.69022
H    -1.80548  -2.37381  -1.00323
H    -0.58077   1.64705   1.48319
H    -1.59880   2.04713   0.08000
H     0.18871   1.95512  -0.11013
H     0.09604  -1.56544  -0.69779
H     1.59573   1.21282   1.48608
H     4.00540   1.65592   1.50940
H     5.53157   0.49701  -0.08941
H     4.58702  -1.15156  -1.71572
H     2.15259  -1.60195  -1.75432
