77
Generated by autodE on: 2022-07-03. E = -1860.902927 Ha. Imaginary frequency = -260.1 cm-1
C     9.73933   6.50567 -34.86160
C     9.48276   5.06863 -35.26541
O     8.30762   4.68396 -35.35955
C    10.65786   4.25480 -35.63616
C    12.00432   4.91693 -35.47377
C    10.36634   2.53321 -34.01108
C     9.66193   1.68641 -34.60622
C     9.42224   2.56894 -36.77661
C     9.15779   1.61949 -37.86863
C    10.09535   0.71269 -38.40554
C     9.72283  -0.20843 -39.38487
C     8.40882  -0.24862 -39.85888
C     7.46577   0.64708 -39.34288
C     7.83596   1.56443 -38.36212
N    10.51248   3.36671 -36.70023
C    11.66240   3.15523 -37.58669
C     8.91177   0.40311 -34.46582
C     9.26741  -0.60072 -35.59892
C    10.72751  -0.92313 -35.76289
O     8.40500  -1.16174 -36.24604
C     7.39761   0.68546 -34.47895
F     6.68132  -0.40403 -34.14874
F     6.94471   1.11161 -35.66877
F     7.06220   1.64914 -33.59481
C     9.29786  -0.37087 -33.15604
C     8.82523   0.14897 -31.79571
C     9.23953   1.57200 -31.40624
C    10.73122   1.87918 -31.60621
C    11.12881   2.88127 -32.76857
C    12.63448   2.62977 -32.98838
C    13.12038   2.11413 -34.19774
C    14.47240   1.80086 -34.36822
C    15.37533   1.98454 -33.31945
C    14.90307   2.46640 -32.09448
C    13.55076   2.77514 -31.92977
C    10.77021   4.30732 -32.29276
C    11.71919   5.24958 -31.86790
C    11.33019   6.48890 -31.34690
C     9.97809   6.81805 -31.23322
C     9.02145   5.90656 -31.68652
C     9.41561   4.67965 -32.22236
H    10.47215   6.60490 -34.05304
H    10.14191   7.05455 -35.73012
H     8.79075   6.96204 -34.55400
H    12.15037   5.75690 -36.17650
H    12.83206   4.21516 -35.60858
H    12.09741   5.32198 -34.46082
H     8.54358   2.99074 -36.30494
H    11.11528   0.68990 -38.03069
H    10.46635  -0.90946 -39.77144
H     8.11995  -0.97455 -40.62245
H     6.43525   0.62838 -39.70548
H     7.09233   2.25324 -37.95791
H    11.30669   2.81812 -38.56396
H    12.19174   4.10044 -37.73291
H    12.36231   2.41114 -37.17946
H    10.88476  -1.43882 -36.71684
H    11.35540  -0.02527 -35.69181
H    11.02741  -1.60071 -34.94723
H     8.93319  -1.40475 -33.26461
H    10.39347  -0.42667 -33.15594
H     9.24126  -0.55731 -31.05646
H     7.73120   0.05795 -31.71194
H     8.61977   2.28097 -31.95937
H     8.97777   1.71820 -30.34627
H    11.27807   0.94315 -31.79061
H    11.15587   2.29667 -30.68287
H    12.42806   1.94602 -35.01964
H    14.81476   1.40782 -35.32880
H    16.43303   1.74295 -33.44848
H    15.59006   2.59766 -31.25484
H    13.21063   3.12341 -30.95440
H    12.78248   5.03458 -31.94785
H    12.09744   7.19896 -31.02862
H     9.67448   7.78200 -30.81832
H     7.95880   6.15738 -31.64586
H     8.65158   4.01928 -32.62621
