17
Generated by autodE on: 2022-05-29. E = -439.145384 Ha
C     2.30393  -0.29906   0.80420
C     0.93075  -0.35992   0.26207
C     0.21166   0.52295  -0.46596
C     0.59467   1.79461  -0.93247
N     0.89861   2.84928  -1.32979
C    -1.20625  -0.11398  -0.59089
C    -1.83052  -0.08521   0.82017
C    -1.11264  -0.95976   1.53147
C    -0.06861  -1.51161   0.53793
O    -0.82565  -1.49397  -0.68509
H     2.26778  -0.35641   1.90670
H     2.89057  -1.17051   0.46747
H     2.82423   0.62357   0.51161
H    -1.81980   0.21550  -1.43508
H    -2.63964   0.57347   1.13341
H    -1.16612  -1.21416   2.58921
H     0.37071  -2.49280   0.74710
