36
Generated by autodE on: 2022-05-29. E = -1120.136303 Ha. Imaginary frequency = -310.5 cm-1
C     4.21583  -2.39402   1.18272
O     3.11753  -1.45525   1.19146
C     2.94311  -0.73948   0.09563
O     3.58535  -0.79044  -0.92818
C     1.75868   0.12151   0.21255
N     1.37266   1.20752   0.52678
C     0.41914   2.12281   0.40298
C    -0.35556   2.49555   1.52672
N    -1.02132   2.78535   2.43875
C     0.31909   2.80924  -0.89770
O     1.03494   2.56357  -1.84963
O    -0.67113   3.70640  -0.89681
C    -0.91370   4.39617  -2.13252
C    -1.05977   0.13194  -0.74508
C    -1.91726  -0.22443   0.48012
O    -0.92362  -0.79771   1.34669
C    -0.43926  -1.76076   0.40231
C    -1.78004  -2.46574   0.05030
C    -1.93024  -3.81464  -0.32523
N    -2.03866  -4.93616  -0.62919
C    -2.71642  -1.49048   0.08650
C    -4.15488  -1.49677  -0.25042
C    -0.09320  -0.83241  -0.78583
H     4.07845  -3.12040   0.37005
H     5.16573  -1.85795   1.05242
H     4.18397  -2.89220   2.15717
H    -1.17911   3.68065  -2.92407
H    -0.02375   4.96665  -2.43445
H    -1.75184   5.07456  -1.93723
H    -1.35797   0.82821  -1.52599
H    -2.48287   0.57731   0.96595
H     0.35820  -2.38759   0.81254
H    -4.34139  -0.79514  -1.08271
H    -4.50768  -2.49628  -0.53997
H    -4.75150  -1.13186   0.60266
H     0.52156  -1.11972  -1.63871
