23
Generated by autodE on: 2022-06-19. E = -351.521381 Ha
C     3.51018  -1.34209  -0.41980
C     2.54092  -0.41784  -0.24041
C     2.87150   1.04497  -0.08826
C     1.13962  -0.83014  -0.19010
C     0.07809  -0.00449  -0.01035
C    -1.29411  -0.46734   0.03196
C    -2.40641   0.28824   0.21494
C    -3.77006  -0.34251   0.23264
C    -2.39829   1.77762   0.41169
H     4.56636  -1.06159  -0.46081
H     3.26668  -2.40337  -0.52991
H     3.95566   1.21651  -0.14576
H     2.38338   1.64639  -0.87312
H     2.50997   1.43586   0.87740
H     0.95191  -1.90407  -0.30932
H     0.25761   1.06745   0.10965
H    -1.43314  -1.54729  -0.09961
H    -4.28112  -0.14372   1.19189
H    -3.72728  -1.43092   0.08018
H    -4.41378   0.09519  -0.55153
H    -2.99207   2.27058  -0.37838
H    -1.39313   2.21827   0.40922
H    -2.88576   2.03889   1.36755
