21
Generated by autodE on: 2022-06-19. E = -566.230342 Ha
C    -3.02878   1.53430  -0.28534
N    -2.31344   0.28490  -0.12558
C    -1.05593   0.13039  -0.56503
O    -0.41956   0.99538  -1.17055
N    -0.59514  -1.19621  -0.37956
N     0.65114  -1.41113  -0.19182
C     1.08272  -2.81274  -0.38562
N     1.62027  -0.60334   0.10404
C     1.37277   0.56925   0.80724
C     2.42268   1.61792   0.59870
O     0.43434   0.70236   1.58762
H    -3.37409   1.67925  -1.32280
H    -2.37868   2.38028  -0.01965
H    -3.90193   1.53299   0.37851
H    -2.77899  -0.51863   0.28452
H     1.57546  -3.14732   0.53525
H     1.80097  -2.82867  -1.21530
H     0.20268  -3.41845  -0.61699
H     3.42939   1.17765   0.58070
H     2.24225   2.08081  -0.38664
H     2.34786   2.38883   1.37625
