44
Generated by autodE on: 2022-06-19. E = -917.731740 Ha. Imaginary frequency = -326.8 cm-1
C     1.93869  -2.12483   1.50770
N     0.68340  -1.56188   1.94738
C    -0.32556  -1.21776   1.10232
O    -0.28913  -1.45177  -0.11575
N    -1.37856  -0.65071   1.80519
N    -2.35126  -0.03977   1.16284
C    -3.42425   0.44265   2.03635
N    -2.20697   0.63341   0.04985
C    -2.06255   0.09589  -1.20506
C    -2.79886  -1.19841  -1.47273
O    -1.53971   0.72604  -2.12431
C    -0.93043   2.21627   0.42394
C     0.13113   1.81612   1.23783
C     0.10412   2.09833   2.72091
C     1.35994   1.27887   0.70696
C     1.55434   0.83909  -0.57082
C     2.79186   0.27144  -1.03819
C     3.00465  -0.28964  -2.25929
C     1.95268  -0.41955  -3.32240
C     4.34936  -0.84757  -2.62298
H     1.86498  -2.37162   0.44235
H     2.77416  -1.41920   1.64296
H     2.17407  -3.04600   2.06532
H     0.59039  -1.26312   2.91208
H    -3.11866   1.40131   2.48643
H    -3.59774  -0.29697   2.82535
H    -4.32708   0.58965   1.43249
H    -3.76563  -0.94221  -1.93726
H    -2.21873  -1.79018  -2.19279
H    -2.98497  -1.78447  -0.56615
H    -0.78266   2.34907  -0.64658
H    -1.72383   2.81462   0.87493
H    -0.91239   2.31113   3.07909
H     0.73536   2.97739   2.94643
H     0.51401   1.25777   3.30096
H     2.18670   1.17268   1.41794
H     0.72431   0.90382  -1.27577
H     3.62808   0.28171  -0.32975
H     2.24674   0.14778  -4.22344
H     0.95763  -0.08041  -3.00922
H     1.87013  -1.47368  -3.64030
H     4.73845  -0.36222  -3.53609
H     4.27340  -1.92410  -2.85960
H     5.08607  -0.71787  -1.81693
