53
Generated by autodE on: 2022-06-01. E = -1131.759178 Ha
C    -5.85116  -6.15173  -3.45747
N    -4.87120  -5.17708  -3.02756
C    -3.69550  -5.02219  -3.67028
O    -3.44243  -5.64203  -4.71401
C    -2.75195  -4.07128  -3.00354
N    -2.95911  -3.87213  -1.69620
N    -2.01950  -3.01285  -1.30308
C    -1.96741  -2.62204   0.07035
C    -1.78075  -3.60323   1.04915
C    -1.74416  -3.23103   2.39426
C    -1.88382  -1.88705   2.75696
C    -2.07232  -0.91334   1.77145
C    -2.12401  -1.27809   0.42388
C    -1.18099  -2.64043  -2.32933
C    -1.63334  -3.30381  -3.47701
C    -1.07451  -3.26859  -4.90372
C    -2.21112  -2.99087  -5.90896
C    -0.43718  -4.64678  -5.19374
C     0.04024  -2.21801  -5.14225
C    -0.32614  -0.73067  -5.16855
C    -1.02276  -0.15715  -3.93599
C    -0.24919  -0.27148  -2.62331
C    -0.03865  -1.70367  -2.05983
C     1.31999  -2.38074  -2.26197
C     2.53814  -1.50381  -2.35234
O     1.41380  -3.59851  -2.25102
H    -6.75511  -6.04156  -2.84594
H    -5.47712  -7.18448  -3.35344
H    -6.11783  -5.99754  -4.51396
H    -4.98127  -4.70734  -2.13462
H    -1.66241  -4.64567   0.75015
H    -1.59824  -3.99440   3.16163
H    -1.84853  -1.59902   3.80994
H    -2.19131   0.13579   2.05052
H    -2.29305  -0.52957  -0.35150
H    -1.79412  -2.88588  -6.92363
H    -2.93889  -3.80975  -5.92582
H    -2.74464  -2.06051  -5.66355
H    -0.07484  -4.68910  -6.23380
H    -1.16506  -5.45380  -5.04651
H     0.42024  -4.81890  -4.52492
H     0.86885  -2.39943  -4.44856
H     0.46349  -2.45871  -6.13120
H    -0.96000  -0.53170  -6.04796
H     0.60754  -0.16601  -5.33924
H    -1.20932   0.91509  -4.11507
H    -2.01766  -0.61594  -3.81666
H     0.72414   0.22966  -2.72163
H    -0.80239   0.29339  -1.85819
H     0.00278  -1.57391  -0.96329
H     3.44185  -2.12113  -2.27010
H     2.52657  -0.73424  -1.56523
H     2.54440  -0.97585  -3.31953
