31
Generated by autodE on: 2022-06-01. E = -543.537327 Ha
C    -1.23901   2.34097  -2.08059
C    -0.16053   1.32164  -2.31475
O    -0.05296   0.72289  -3.37014
C     0.83648   1.08179  -1.16887
C     0.18986   1.05272   0.14342
C    -0.25282   0.54364   1.15311
C    -0.57289  -0.47871   2.15851
C     0.39702  -0.37609   3.35034
C    -2.02140  -0.36812   2.65982
C    -0.37893  -1.83202   1.40046
C     0.89788  -1.99405   0.54736
C     0.86538  -1.52471  -0.93677
C     1.62912  -0.23775  -1.31978
H    -0.83658   3.23046  -1.57212
H    -1.99622   1.90388  -1.40869
H    -1.71461   2.61646  -3.03102
H     1.53408   1.93754  -1.25126
H     0.29708   0.59851   3.85245
H     0.17317  -1.16699   4.08367
H     1.44315  -0.48763   3.02859
H    -2.17653   0.57223   3.21126
H    -2.24999  -1.20541   3.33810
H    -2.73408  -0.39908   1.82144
H    -1.25882  -1.99080   0.75451
H    -0.40678  -2.62725   2.16473
H     1.75513  -1.52933   1.06329
H     1.12102  -3.07275   0.53672
H     1.31076  -2.33232  -1.53898
H    -0.18009  -1.44842  -1.28219
H     1.95019  -0.30421  -2.36992
H     2.54385  -0.16069  -0.71101
