22
Generated by autodE on: 2022-06-01. E = -588.055678 Ha
C     4.40270  -0.49498  -0.41831
N     3.85455   0.00922   0.82717
C     2.57765   0.37369   1.02623
O     2.10298   0.73853   2.10604
C     1.71528   0.38730  -0.16562
N     0.75639  -0.13758  -0.63366
N    -0.20470  -0.63404  -1.23550
C    -1.49069  -0.31518  -0.74363
C    -1.70718   0.39088   0.45428
C    -3.01134   0.66707   0.86620
C    -4.10487   0.24367   0.10173
C    -3.88546  -0.46620  -1.08462
C    -2.58667  -0.74719  -1.50788
H     5.45424  -0.19049  -0.50525
H     3.85195  -0.06984  -1.26981
H     4.34719  -1.59384  -0.48026
H     4.43196  -0.02191   1.66487
H    -0.85871   0.70725   1.06529
H    -3.17434   1.21398   1.79802
H    -5.12294   0.46119   0.43194
H    -4.73302  -0.80304  -1.68621
H    -2.40042  -1.29705  -2.43248
