54
Generated by autodE on: 2022-12-30. E = -1335.476114 Ha
C    -1.52015  -4.67631  -0.15864
N    -0.94461  -3.40237   0.22567
C    -1.68953  -2.31631   0.43094
O    -2.92671  -2.31406   0.31492
C    -0.94225  -1.04711   0.87832
C    -1.44261  -0.69537   2.29057
N     0.49609  -1.28214   0.95839
C     1.17025  -0.34630   0.40507
C     2.64733  -0.33048   0.42212
C     3.38133   0.78116  -0.02863
C     4.77693   0.77579   0.02103
C     5.45944  -0.33933   0.51299
C     4.73793  -1.45325   0.96048
C     3.34605  -1.44831   0.91806
C     0.32106   0.75698  -0.25030
O     0.70483   1.09426  -1.56083
C     1.25104   0.10239  -2.43096
C     0.43606   2.03249   0.61860
O     0.27762   1.97131   1.84171
N     0.78481   3.15128  -0.02656
C     0.81252   4.43377   0.64511
C    -1.12277   0.08718  -0.20139
O    -1.34150  -0.58623  -1.42889
C    -1.93307   0.13384  -2.50722
C    -2.28884   1.06658   0.06192
O    -2.13896   2.29287   0.04227
N    -3.47922   0.47892   0.22636
C    -4.69074   1.25740   0.38361
H    -0.71124  -5.40256  -0.30183
H    -2.20561  -5.05497   0.61610
H    -2.08698  -4.58378  -1.09782
H     0.05434  -3.31492   0.39124
H    -1.06946  -1.45577   2.99168
H    -2.53672  -0.68936   2.33508
H    -1.05417   0.28548   2.58834
H     2.86727   1.65516  -0.42341
H     5.33154   1.64859  -0.33037
H     6.55139  -0.34344   0.54719
H     5.26567  -2.32937   1.34416
H     2.78159  -2.31285   1.26837
H     0.83398   0.27651  -3.43262
H     2.34670   0.20068  -2.47756
H     0.98795  -0.91480  -2.11574
H     0.84393   3.09734  -1.03811
H    -0.20326   4.75554   0.93207
H     1.42402   4.37920   1.55767
H     1.24551   5.18303  -0.02914
H    -3.02772   0.18514  -2.39375
H    -1.52819   1.15116  -2.59250
H    -1.69791  -0.42590  -3.42219
H    -3.51102  -0.54874   0.24251
H    -4.87953   1.88406  -0.50341
H    -4.62674   1.92283   1.25947
H    -5.53738   0.57311   0.52013
