28
Generated by autodE on: 2022-12-30. E = -724.019773 Ha
C     3.36004  -1.33880  -0.00058
N     2.31485  -0.36238   0.23831
C     1.47975   0.01684  -0.74393
O     1.65790  -0.22298  -1.94088
C     0.31208   0.87710  -0.30891
O     0.32754   2.18875  -0.62038
C     1.49363   2.76435  -1.21770
C    -0.78137   0.37974   0.32120
O    -1.80205   1.22993   0.69898
C    -2.76478   1.49229  -0.32792
C    -0.96256  -1.06325   0.62284
O    -0.19504  -1.94518   0.20187
N    -2.03664  -1.34375   1.38676
C    -2.37514  -2.69887   1.76487
H     4.06690  -1.32766   0.83855
H     3.89820  -1.09345  -0.92569
H     2.93890  -2.35410  -0.10123
H     1.98863  -0.23658   1.19211
H     1.29976   3.84233  -1.27578
H     1.65750   2.36046  -2.22651
H     2.38416   2.58709  -0.59610
H    -3.54479   2.12414   0.11837
H    -2.30202   2.02610  -1.17308
H    -3.21862   0.55620  -0.69339
H    -2.60050  -0.56446   1.70988
H    -2.43175  -3.35139   0.87981
H    -3.35061  -2.69676   2.26635
H    -1.62705  -3.12956   2.45140
