26
Generated by autodE on: 2022-12-30. E = -611.370201 Ha
C     4.42649   1.10366  -1.35379
N     3.67405   0.15073  -0.56339
C     2.39105   0.38704  -0.21081
O     1.79493   1.42310  -0.55184
C     1.72537  -0.67012   0.59374
C     2.38972  -1.96029   0.98650
N     0.51624  -0.40160   0.94868
C    -0.56821   0.03250   1.29247
C    -1.83573  -0.02012   0.57260
C    -3.05103  -0.01956   1.28013
C    -4.26279  -0.05624   0.58876
C    -4.27196  -0.05204  -0.81034
C    -3.06556  -0.02306  -1.52172
C    -1.85090  -0.01847  -0.83846
H     3.90120   1.33956  -2.29242
H     4.58436   2.05038  -0.81082
H     5.40491   0.67085  -1.59586
H     4.14385  -0.68349  -0.23162
H     3.27995  -1.77601   1.61257
H     2.72080  -2.52570   0.09946
H     1.69417  -2.59009   1.55660
H    -3.03199   0.00187   2.37173
H    -5.20422  -0.07279   1.14238
H    -5.22194  -0.06360  -1.34975
H    -3.07457  -0.01070  -2.61416
H    -0.90440   0.00806  -1.38307
