54
Generated by autodE on: 2022-12-30. E = -1335.390375 Ha. Imaginary frequency = -215.1 cm-1
C    -1.33632  -3.93018  -1.19337
N    -0.76727  -3.08894  -0.16000
C    -1.55658  -2.37096   0.66787
O    -2.78479  -2.54760   0.73365
C    -0.90173  -1.31894   1.48991
C    -1.60965  -0.74949   2.68013
N     0.35722  -1.04333   1.29092
C     1.22884  -0.38506   0.74040
C     2.67830  -0.40523   0.82168
C     3.44006   0.50013   0.05996
C     4.83175   0.48845   0.14960
C     5.47291  -0.42297   0.99465
C     4.72174  -1.32853   1.75468
C     3.33178  -1.32200   1.67198
C     0.07562   0.97152  -0.60482
O     0.84960   0.86548  -1.74799
C     1.11474  -0.39682  -2.35393
C     0.47448   2.21795   0.18011
O     0.71722   2.22100   1.39131
N     0.60156   3.31599  -0.58300
C     1.03993   4.58176  -0.02913
C    -1.23476   0.48891  -0.57612
O    -1.61510  -0.42874  -1.54401
C    -2.14646   0.15645  -2.73535
C    -2.31157   1.04325   0.26103
O    -2.16733   2.04015   0.99392
N    -3.51687   0.42111   0.14553
C    -4.62403   0.78999   1.00209
H    -1.83201  -3.33183  -1.97674
H    -0.53577  -4.52201  -1.65455
H    -2.08104  -4.61576  -0.76466
H     0.20844  -2.82520  -0.24522
H    -1.32754  -1.28976   3.60015
H    -2.69227  -0.85292   2.54513
H    -1.35300   0.31133   2.80919
H     2.93676   1.19978  -0.60574
H     5.41889   1.19299  -0.44309
H     6.56326  -0.42926   1.06262
H     5.22396  -2.03945   2.41445
H     2.73727  -2.02156   2.26269
H     2.10505  -0.31438  -2.82404
H     1.13918  -1.20181  -1.60659
H     0.37030  -0.64731  -3.12278
H     0.43072   3.23776  -1.57996
H     0.32105   4.96084   0.71464
H     2.01822   4.47928   0.46657
H     1.12739   5.31379  -0.84111
H    -3.07092   0.71683  -2.52377
H    -1.41500   0.83418  -3.20365
H    -2.37334  -0.66917  -3.42379
H    -3.50410  -0.52101  -0.23564
H    -5.52086   0.24268   0.68337
H    -4.82627   1.86838   0.92604
H    -4.43131   0.56025   2.06498
