36
Generated by autodE on: 2022-06-17. E = -709.455431 Ha
C    -1.22865   1.55261   2.38447
C    -1.90591   1.09356   1.32227
C    -3.29213   1.57757   0.99419
C    -1.33084   0.06054   0.37356
C    -1.59912  -1.41398   0.76570
C    -2.93426  -1.97000   0.30163
N    -0.46086  -2.18257   0.18989
C     0.44336  -1.27423  -0.50002
C     0.14477  -1.16671  -1.94941
N    -0.15086  -1.11062  -3.06980
C     1.85674  -1.67421  -0.34986
N     2.96710  -1.97195  -0.19951
C     0.19619   0.10005   0.21277
C     0.74682   1.28783  -0.50716
C     1.86942   1.96265  -0.19693
C     2.77963   1.62658   0.95231
C     2.30656   3.14356  -1.02004
H    -1.67767   2.28687   3.06000
H    -0.21393   1.22351   2.62264
H    -3.30521   2.05798   0.00035
H    -3.65888   2.30091   1.73686
H    -4.00678   0.73975   0.94122
H    -1.77505   0.22816  -0.62302
H    -1.54279  -1.48591   1.86459
H    -3.04683  -1.85516  -0.78859
H    -3.76708  -1.44941   0.79617
H    -3.01625  -3.04030   0.54979
H    -0.77357  -2.93177  -0.42449
H     0.66198  -0.01766   1.19900
H     0.16595   1.61629  -1.37650
H     2.41600   0.80306   1.57989
H     3.77715   1.34559   0.57289
H     2.92832   2.51318   1.59218
H     2.36755   4.05135  -0.39445
H     1.62161   3.34162  -1.85735
H     3.31985   2.97987  -1.42668
