23
Generated by autodE on: 2022-06-17. E = -351.521381 Ha
C     3.73874   0.56490  -0.04845
C     2.58088  -0.11091   0.12063
C     2.57236  -1.55252   0.56098
C     1.30378   0.55586  -0.12545
C     0.07769  -0.01001   0.00636
C    -1.15971   0.69805  -0.25090
C    -2.42002   0.20629  -0.14358
C    -2.75041  -1.19886   0.27306
C    -3.61101   1.07017  -0.44879
H     3.74172   1.61144  -0.36853
H     4.70801   0.09033   0.12820
H     3.59405  -1.92983   0.70897
H     2.07138  -2.19254  -0.18426
H     2.01694  -1.67634   1.50551
H     1.36401   1.60382  -0.44314
H     0.00941  -1.05459   0.32203
H    -1.05034   1.74294  -0.56579
H    -3.40581  -1.18957   1.16182
H    -1.86873  -1.81006   0.50492
H    -3.32226  -1.70846  -0.52266
H    -3.32100   2.08803  -0.74816
H    -4.21837   0.62730  -1.25867
H    -4.27873   1.14051   0.42871
