13
Generated by autodE on: 2022-06-17. E = -357.898968 Ha
C    -3.19177  -0.37831  -0.34184
C    -1.85625   0.22224  -0.14443
N    -0.76893  -0.48374  -0.14020
C     0.56002  -0.07006   0.04086
C     0.84388   1.28463   0.26109
N     1.06426   2.42086   0.44299
C     1.57557  -1.03517  -0.00320
N     2.43412  -1.83228  -0.03777
H    -3.13551  -1.46608  -0.49198
H    -3.82948  -0.16283   0.53277
H    -3.68594   0.08587  -1.21228
H    -1.75193   1.30046   0.01076
H    -0.87747  -1.49239  -0.28748
