36
Generated by autodE on: 2022-06-17. E = -709.406462 Ha. Imaginary frequency = -465.3 cm-1
C    -1.69468   0.18944   2.77842
C    -2.19199   0.68094   1.63047
C    -3.52351   1.38301   1.57197
C    -1.47671   0.57773   0.31863
C    -1.62577  -1.39278  -0.09680
C    -2.96946  -1.62142  -0.71818
N    -0.53404  -1.71689  -0.83549
C     0.74563  -1.50435  -0.31958
C     1.80870  -1.22898  -1.19092
N     2.67780  -0.92635  -1.91343
C     1.02470  -1.77945   1.03404
N     1.25095  -1.98462   2.16421
C    -0.11002   0.93587   0.23171
C     0.45192   1.50185  -0.95657
C     1.72709   1.96526  -1.10822
C     2.75700   1.92750  -0.01814
C     2.16534   2.59706  -2.39479
H    -2.23905   0.30449   3.72009
H    -0.73383  -0.33191   2.81706
H    -3.40286   2.41674   1.20419
H    -4.20238   0.87931   0.86319
H    -4.01074   1.41687   2.55730
H    -2.07366   0.91471  -0.53675
H    -1.53693  -1.67197   0.95707
H    -3.00944  -1.21636  -1.74126
H    -3.75423  -1.14430  -0.11676
H    -3.18966  -2.70117  -0.76187
H    -0.61236  -1.61202  -1.84624
H     0.48032   0.95132   1.14940
H    -0.21910   1.57127  -1.82013
H     3.72934   1.60594  -0.42355
H     2.49098   1.25745   0.80968
H     2.91035   2.94082   0.39608
H     2.51271   3.63149  -2.21992
H     1.35867   2.62096  -3.14167
H     3.02466   2.05187  -2.82120
