29
Generated by autodE on: 2022-06-16. E = -612.876912 Ha
C     3.50443  -1.60465   0.37787
N     2.24819  -1.00566  -0.01000
C     1.94424   0.28940   0.14419
O     2.70368   1.13326   0.64328
C     0.55138   0.70068  -0.38236
C     0.76610   1.62397  -1.58121
C    -0.24100   1.36311   0.76072
C    -0.87887   0.16849   1.46505
C    -1.24302  -0.76377   0.27985
C    -2.65798  -0.47430  -0.20900
C    -3.78706  -1.03157   0.60964
O    -2.85045   0.15542  -1.23842
N    -0.24330  -0.49174  -0.76069
H     3.34608  -2.43135   1.08817
H     4.04549  -2.00198  -0.49611
H     4.12842  -0.84096   0.85900
H     1.50230  -1.55524  -0.43681
H    -0.20715   1.95871  -1.97210
H     1.35152   2.50477  -1.28283
H     1.30947   1.10348  -2.38570
H    -1.01622   2.01466   0.32784
H     0.39742   1.97215   1.41419
H    -1.74669   0.43261   2.08479
H    -0.14786  -0.33866   2.11256
H    -1.22444  -1.81650   0.60844
H    -3.89764  -2.09685   0.34096
H    -4.72530  -0.51024   0.37787
H    -3.57346  -0.99171   1.68729
H    -0.74304  -0.28385  -1.62520
