23
Generated by autodE on: 2022-06-16. E = -534.192302 Ha
C    -4.20392   0.20083   0.10820
N    -2.97515  -0.56247   0.02405
C    -1.77295   0.04146   0.07216
O    -1.66017   1.27687   0.19570
C    -0.56489  -0.80991  -0.02794
C    -0.50444  -2.29172  -0.13591
N     0.55280  -0.11182  -0.01850
C     1.84872  -0.47872  -0.09895
C     2.80880   0.57644  -0.05201
C     4.26963   0.20631  -0.14379
O     2.46786   1.77615   0.06071
H    -4.29854   0.90605  -0.73354
H    -4.24508   0.78434   1.04137
H    -5.05375  -0.49178   0.08597
H    -3.03328  -1.56505  -0.10785
H    -0.04595  -2.59394  -1.09473
H    -1.48834  -2.76894  -0.06288
H     0.13268  -2.70649   0.66531
H     0.41006   0.90879   0.06781
H     2.10462  -1.53058  -0.19725
H     4.72046   0.72030  -1.00866
H     4.79359   0.57101   0.75502
H     4.43118  -0.87603  -0.24218
