23
Generated by autodE on: 2022-07-27. E = -534.183772 Ha
C     3.97285   0.28382   1.06167
N     2.87313   0.62392   0.18466
C     1.60877   0.16856   0.36586
O     1.29705  -0.57725   1.31103
C     0.62426   0.62110  -0.63929
C     0.99926   1.52394  -1.77288
N    -0.63524   0.22552  -0.55046
C    -1.35776  -0.55701   0.28636
C    -2.73716  -0.68607  -0.05378
C    -3.60618  -1.54090   0.83540
O    -3.22841  -0.11374  -1.05615
H     4.41007   1.18669   1.51734
H     4.76895  -0.24418   0.51255
H     3.60204  -0.36958   1.85954
H     3.07243   1.22381  -0.60750
H     0.12438   1.74023  -2.40164
H     1.40091   2.48418  -1.40708
H     1.77370   1.06745  -2.41260
H    -1.25839   0.58447  -1.29230
H    -0.88010  -1.02703   1.13579
H    -3.04940  -1.98823   1.67025
H    -4.06557  -2.34248   0.23388
H    -4.43039  -0.92802   1.23625
