29
Generated by autodE on: 2022-06-16. E = -612.799434 Ha. Imaginary frequency = -418.8 cm-1
C     4.05181  -0.50413   0.61887
N     2.98373   0.19462  -0.06623
C     1.71126  -0.26404  -0.02680
O     1.43944  -1.33125   0.54959
C     0.68719   0.58063  -0.70257
C     1.12545   1.64632  -1.66928
C     0.08738   1.60003   1.23824
C    -1.02874   0.89528   1.66329
C    -1.27119  -0.64455  -0.01105
C    -2.70609  -0.66666  -0.23687
C    -3.52790  -1.51817   0.69433
O    -3.23101   0.00954  -1.13385
N    -0.53957   0.04615  -0.92291
H     4.16167  -1.53402   0.24386
H     4.99291   0.03346   0.44960
H     3.86690  -0.56121   1.70437
H     3.19240   1.07364  -0.52324
H     0.25060   2.16921  -2.08302
H     1.74790   2.40162  -1.16639
H     1.71136   1.23268  -2.50828
H    -0.03508   2.55292   0.71707
H     1.05002   1.45611   1.73369
H    -2.02949   1.29986   1.49565
H    -0.94432   0.15303   2.46043
H    -0.78136  -1.39531   0.59580
H    -3.12484  -1.50036   1.71783
H    -4.57418  -1.18340   0.69020
H    -3.49158  -2.56461   0.34487
H    -1.14261   0.59845  -1.53897
