69
Generated by autodE on: 2022-10-24. E = -2263.858748 Ha
C    -8.91894  23.19373  -9.09203
O    -7.80512  22.32801  -8.82209
C    -7.95475  21.04844  -9.13998
O    -8.99007  20.55870  -9.53156
C    -6.72580  20.17264  -8.75565
C    -5.48236  21.02014  -8.34942
C    -4.79930  20.70730  -7.05630
O    -5.06698  21.87033  -9.11377
C    -6.35489  19.21119  -9.88975
C    -6.68583  17.94162  -9.55277
C    -7.29110  17.91312  -8.13205
C    -6.44847  17.07978  -7.11679
O    -6.87079  16.31778  -6.27947
O    -5.16243  17.38445  -7.25079
C    -4.23204  16.72980  -6.37898
C    -8.79490  17.53412  -8.17121
O    -9.45834  17.58357  -9.18181
O    -9.30318  17.27390  -6.97532
C   -10.72468  17.07344  -6.90961
N    -7.14799  19.29513  -7.68780
C    -7.95874  19.81208  -6.60000
C    -6.54131  16.67490 -10.43021
C    -6.65276  15.34001  -9.62979
F    -6.66769  14.28647 -10.46080
F    -5.59875  15.16547  -8.81457
F    -7.74760  15.23548  -8.85573
C    -7.71170  16.62828 -11.51839
F    -8.66464  15.72985 -11.19565
F    -7.24163  16.24603 -12.71966
F    -8.33817  17.78534 -11.69219
C    -5.16261  16.55911 -11.17693
C    -3.85357  16.89020 -10.45248
C    -3.61890  18.33005  -9.98205
C    -4.05198  19.45637 -10.92318
C    -5.57856  19.70679 -11.12197
O    -6.13953  19.00516 -12.23627
C    -5.68608  19.25082 -13.55626
C    -5.87910  21.19930 -11.49562
C    -4.79109  22.04406 -12.09914
O    -7.03200  21.58933 -11.45939
H    -9.13295  23.20000 -10.17012
H    -8.61232  24.19142  -8.75836
H    -9.80783  22.85970  -8.53869
H    -4.61436  19.62763  -6.97776
H    -3.86351  21.27719  -6.99740
H    -5.44902  20.97807  -6.20929
H    -4.42648  17.00984  -5.33397
H    -3.23947  17.07526  -6.68881
H    -4.31042  15.63925  -6.49012
H   -11.01456  16.20737  -7.52097
H   -11.25203  17.96938  -7.26649
H   -10.95233  16.88971  -5.85371
H    -7.59833  20.81282  -6.32795
H    -9.03207  19.90141  -6.84882
H    -7.85945  19.16703  -5.71606
H    -5.22726  17.18347 -12.06401
H    -5.09170  15.52847 -11.54692
H    -3.68435  16.21202  -9.60435
H    -3.07348  16.64335 -11.19251
H    -4.07204  18.48138  -8.99654
H    -2.53423  18.44707  -9.82476
H    -3.60275  19.31527 -11.91746
H    -3.61872  20.38220 -10.52747
H    -6.12890  18.45650 -14.17296
H    -6.03515  20.22421 -13.94121
H    -4.58980  19.19573 -13.65290
H    -4.18765  21.47960 -12.82290
H    -4.11175  22.39262 -11.30898
H    -5.25265  22.91225 -12.58725
