34
Generated by autodE on: 2022-10-26. E = -1009.972349 Ha
C     0.24857   3.93940  -2.82282
O     0.02685   3.08118  -1.69123
C     0.12696   1.77302  -1.90406
O     0.35101   1.26924  -2.98615
C    -0.06824   1.00244  -0.64098
C     0.44836   1.58876   0.63444
C    -0.37522   1.43822   1.89218
O     1.47801   2.24677   0.62119
N    -0.63682  -0.19611  -0.65575
C    -1.48325  -0.62431  -1.79070
C    -0.36266  -1.08760   0.36318
C     0.99940  -1.20649   0.90048
O     1.28042  -1.66828   1.99419
O     1.93926  -0.77293   0.03824
C     3.27825  -0.67415   0.53419
C    -1.48309  -1.85661   0.91285
O    -2.65587  -1.52782   0.78621
O    -1.10831  -2.95605   1.57678
C    -2.15101  -3.70571   2.21269
H     0.13640   4.96277  -2.44840
H    -0.49316   3.73372  -3.60758
H     1.26108   3.78532  -3.22229
H     0.19349   0.88012   2.65121
H    -0.53535   2.45655   2.28054
H    -1.34302   0.94841   1.72997
H    -2.13076   0.20196  -2.10464
H    -2.08725  -1.47718  -1.47657
H    -0.82240  -0.92335  -2.61263
H     3.67428  -1.66805   0.78808
H     3.86657  -0.22959  -0.27687
H     3.31278  -0.02748   1.42300
H    -1.65192  -4.52880   2.73710
H    -2.85362  -4.10262   1.46543
H    -2.69941  -3.07625   2.92872
