34
Generated by autodE on: 2022-10-24. E = -1009.976709 Ha
C    -3.36825   0.05481  -2.95569
O    -2.30700  -0.05063  -2.00260
C    -2.63714   0.15229  -0.70514
O    -3.76380   0.50012  -0.37723
C    -1.49682  -0.02145   0.17997
C    -1.44875   0.46621   1.54232
C    -2.71765   0.94345   2.20717
O    -0.38887   0.47218   2.19277
N    -0.38068  -0.73067  -0.28115
C    -0.60198  -2.05591  -0.91030
C     0.84610  -0.35892   0.00648
C     1.18005   1.06069   0.35238
O     0.60596   2.02443  -0.10461
O     2.24522   1.11130   1.14226
C     2.69675   2.41828   1.53444
C     1.99451  -1.31628  -0.11867
O     2.03048  -2.40620   0.40966
O     2.96039  -0.79437  -0.86247
C     4.16397  -1.57156  -1.00676
H    -2.91985  -0.16579  -3.93181
H    -3.79126   1.07012  -2.95719
H    -4.16673  -0.66917  -2.73526
H    -3.53155   0.21207   2.12023
H    -3.06563   1.86898   1.72278
H    -2.49261   1.14623   3.26233
H     0.04180  -2.15928  -1.79181
H    -0.35924  -2.82822  -0.17144
H    -1.64981  -2.14458  -1.19815
H     1.90201   2.93714   2.08894
H     3.56801   2.25344   2.17765
H     2.97826   3.00622   0.64953
H     4.82868  -0.97640  -1.64205
H     3.93723  -2.53577  -1.48267
H     4.62140  -1.74066  -0.02175
