35
Generated by autodE on: 2022-10-24. E = -1253.820097 Ha
C    -0.65121   3.66727  -0.13320
O    -0.44726   3.20146  -1.45835
C    -0.71723   1.83402  -1.70992
C    -0.31763   1.57738  -3.19485
C     0.68240   2.51402  -3.79959
O    -0.78559   0.62946  -3.79251
C     0.10264   0.93720  -0.87916
C     0.40808   0.11136  -0.04987
C     0.22675  -0.89997   0.98905
C     1.02577  -0.49477   2.25066
F     0.77813  -1.31269   3.28074
F     2.34810  -0.49812   2.03577
F     0.68619   0.74723   2.62938
C     0.70874  -2.27284   0.46031
F     0.60275  -3.22844   1.39369
F     1.98560  -2.23756   0.05789
F    -0.03085  -2.65361  -0.59098
C    -1.30463  -0.96314   1.34035
C    -2.27895  -0.63362   0.19395
C    -2.56498   0.87387  -0.05960
C    -2.20217   1.42918  -1.45117
H    -0.25097   4.68986  -0.09710
H    -0.11471   3.04818   0.60635
H    -1.72080   3.69800   0.13268
H     0.98390   2.14478  -4.78808
H     0.23443   3.51567  -3.89067
H     1.55626   2.61769  -3.13841
H    -1.48229  -0.25884   2.16486
H    -1.50885  -1.96701   1.73876
H    -1.95027  -1.12521  -0.73332
H    -3.22770  -1.12162   0.46387
H    -2.09402   1.47747   0.73027
H    -3.64762   1.03695   0.05634
H    -2.46501   0.67973  -2.21071
H    -2.79593   2.33130  -1.66771
