69
Generated by autodE on: 2022-10-24. E = -2263.768290 Ha. Imaginary frequency = -268.6 cm-1
C    -7.26119  23.64006 -10.36191
O    -7.03919  22.48115  -9.55344
C    -7.85078  21.43028  -9.73841
O    -8.76113  21.43967 -10.54158
C    -7.45044  20.34745  -8.78602
C    -6.60035  20.94207  -7.64849
C    -7.37352  21.73930  -6.62960
O    -5.39555  20.81615  -7.60101
C    -6.05179  18.92539 -10.01768
C    -6.40561  17.76317  -9.71325
C    -7.82871  18.24984  -7.78932
C    -6.73292  18.43756  -6.73852
O    -6.99000  18.95391  -5.66804
O    -5.56025  17.93591  -7.05373
C    -4.52785  18.00536  -6.05963
C    -8.76813  17.20669  -7.24849
O    -9.97096  17.12608  -7.39469
O    -8.07173  16.35099  -6.49832
C    -8.77668  15.24200  -5.92968
N    -8.30487  19.32059  -8.49167
C    -9.43987  19.07829  -9.41118
C    -6.31408  16.33312 -10.14512
C    -5.43788  15.51119  -9.16215
F    -5.98228  15.34870  -7.95511
F    -4.24602  16.10847  -8.99229
F    -5.19658  14.27915  -9.64733
C    -7.71718  15.67431 -10.27584
F    -8.33342  15.46651  -9.10360
F    -7.64575  14.47470 -10.87397
F    -8.53167  16.44057 -11.01687
C    -5.62656  16.23139 -11.54926
C    -6.10442  17.24737 -12.60104
C    -5.02163  18.25406 -12.99704
C    -4.29853  18.94146 -11.83895
C    -5.17995  19.79410 -10.87925
O    -6.05692  20.64459 -11.59574
C    -5.53803  21.53022 -12.58177
C    -4.17019  20.58597  -9.99522
C    -3.17672  19.78274  -9.19927
O    -4.13073  21.79963 -10.04393
H    -6.41232  24.30598 -10.17011
H    -8.20256  24.12957 -10.07117
H    -7.30316  23.37177 -11.42491
H    -6.71017  22.02026  -5.80166
H    -7.77062  22.64617  -7.11060
H    -8.22817  21.16091  -6.25444
H    -4.85391  17.50022  -5.13949
H    -3.66373  17.49190  -6.49423
H    -4.28563  19.05511  -5.84391
H    -8.02282  14.65062  -5.39813
H    -9.24332  14.64076  -6.72265
H    -9.54919  15.59422  -5.23129
H   -10.16087  19.89609  -9.32240
H    -9.91591  18.13639  -9.15693
H    -9.05454  19.04293 -10.43519
H    -4.54951  16.34972 -11.37888
H    -5.75980  15.20529 -11.91000
H    -6.42394  16.70513 -13.50369
H    -6.99076  17.78878 -12.24855
H    -4.24554  17.73381 -13.58410
H    -5.46260  19.00397 -13.67070
H    -3.51875  19.60025 -12.25260
H    -3.76521  18.20055 -11.23050
H    -5.09543  22.43026 -12.13525
H    -6.39302  21.81817 -13.20974
H    -4.78477  21.05264 -13.22550
H    -2.31352  19.56291  -9.84953
H    -2.82410  20.37981  -8.34962
H    -3.59200  18.82791  -8.85510
