41
Generated by autodE on: 2022-05-30. E = -1160.829023 Ha
C     4.96765   2.21389   0.12297
N     3.99530   1.16215  -0.08793
C     2.70742   1.44470  -0.32446
O     2.26418   2.60137  -0.42353
C     1.76389   0.30589  -0.49299
C     1.74093  -0.99672  -0.10509
C     2.74474  -1.82009   0.60134
C     2.24672  -3.07756   1.25129
O     3.93386  -1.50687   0.64276
C     0.30894  -1.46445  -0.40558
O    -0.00192  -0.68545  -1.56455
C     0.35871   0.59026  -1.02119
C    -0.51716   0.68586   0.25692
C    -0.59246  -0.81145   0.67598
C    -2.12154  -1.08537   0.62077
C    -2.59472  -2.34356   1.29937
C    -2.55051  -0.95569  -0.85499
O    -2.89542  -1.79212  -1.64565
O    -2.50559   0.37719  -1.14953
C    -2.02160   1.00133   0.09172
C    -2.37890   2.41645   0.05207
N    -2.63884   3.54462   0.02553
N    -2.61419   0.22017   1.16074
C    -4.06447   0.34435   1.31603
H     4.75231   2.78936   1.03897
H     5.96429   1.76503   0.21344
H     4.96950   2.91971  -0.72188
H     4.23833   0.18051   0.08338
H     1.90313  -3.77899   0.47248
H     3.04935  -3.54221   1.83723
H     1.37685  -2.86237   1.89241
H     0.15205  -2.53145  -0.59069
H     0.25368   1.39562  -1.75324
H    -0.08503   1.35590   1.00709
H    -0.23939  -1.00801   1.69418
H    -2.31773  -2.33090   2.36299
H    -2.11338  -3.20996   0.82298
H    -3.68301  -2.46729   1.20997
H    -4.39063  -0.31218   2.13230
H    -4.30696   1.37767   1.60031
H    -4.63846   0.08746   0.40759
