41
Generated by autodE on: 2022-05-30. E = -1160.758760 Ha. Imaginary frequency = -310.1 cm-1
C     5.01767   2.37626   0.47138
N     4.07661   1.31647   0.17725
C     2.78584   1.58258  -0.06996
O     2.31933   2.73411  -0.11399
C     1.87753   0.43339  -0.31391
C     1.88706  -0.88985  -0.00964
C     2.88926  -1.72918   0.66908
C     2.40004  -3.03035   1.23693
O     4.07145  -1.39502   0.76504
C     0.45121  -1.37056  -0.37568
O     0.20188  -0.54354  -1.51444
C     0.45718   0.70304  -0.86029
C    -0.48589   0.61455   0.35710
C    -0.48431  -0.74085   0.67102
C    -2.87875  -1.18203   0.43303
C    -3.22189  -2.29719   1.34632
C    -2.56778  -1.29931  -0.97065
O    -2.39958  -2.25269  -1.70669
O    -2.49306   0.01634  -1.44203
C    -2.55597   0.84007  -0.35175
C    -2.76526   2.22732  -0.56716
N    -2.84745   3.37703  -0.73016
N    -3.13623   0.13477   0.67423
C    -3.36778   0.69327   1.99646
H     4.77116   2.89078   1.41557
H     6.02374   1.94742   0.55531
H     5.01810   3.13199  -0.32923
H     4.33859   0.33264   0.30309
H     2.09284  -3.69685   0.41368
H     3.19477  -3.50990   1.82186
H     1.50814  -2.86557   1.86301
H     0.32308  -2.43198  -0.60790
H     0.34846   1.56129  -1.52988
H    -0.55659   1.43175   1.07551
H    -0.62325  -1.17225   1.66075
H    -2.82108  -2.13102   2.35684
H    -2.79927  -3.22800   0.94459
H    -4.31516  -2.42142   1.42691
H    -2.45460   0.61786   2.60688
H    -3.65817   1.74622   1.89843
H    -4.17970   0.14098   2.48412
