45
Generated by autodE on: 2022-06-19. E = -943.487386 Ha
C     5.67316   1.83158   2.10624
C     4.87220   0.78571   1.81779
C     5.14827  -0.59528   2.35129
C     3.69370   0.98687   0.96725
C     2.80991   0.03588   0.61258
C     1.60359   0.30606  -0.23291
C     1.33267  -0.72250  -1.29959
N     0.11014  -1.00108  -1.54258
C    -0.74260  -0.14183  -0.67235
C    -1.11193   1.01150  -1.63080
O    -0.38936   1.95282  -1.88865
O    -2.27862   0.81328  -2.24164
C    -2.66438   1.77598  -3.23475
C    -1.97772  -0.87344  -0.17751
C    -2.07919  -2.26594  -0.26570
C    -3.18469  -2.93626   0.26917
C    -4.20333  -2.22044   0.90214
C    -4.11166  -0.82650   0.99131
C    -3.00933  -0.16015   0.45459
C     0.21908   0.31851   0.50694
C     0.21172  -0.74305   1.61899
C    -0.09359   1.67490   1.13595
H     5.46147   2.83119   1.71426
H     6.55724   1.71670   2.73975
H     5.27689  -1.31936   1.52958
H     4.30542  -0.95979   2.96192
H     6.05623  -0.60924   2.97059
H     3.53583   2.00934   0.60349
H     2.94580  -0.99202   0.96071
H     1.73830   1.27715  -0.73654
H     2.13847  -1.21364  -1.86011
H    -3.63771   1.44340  -3.61300
H    -2.75066   2.77565  -2.78580
H    -1.92578   1.80222  -4.04886
H    -1.28466  -2.82793  -0.75648
H    -3.24650  -4.02449   0.19036
H    -5.06651  -2.74289   1.32144
H    -4.90486  -0.25496   1.47933
H    -2.95398   0.92817   0.52385
H    -0.76568  -0.77881   2.11857
H     0.43735  -1.75030   1.23916
H     0.96552  -0.48778   2.37757
H    -1.06209   1.65354   1.65824
H    -0.10962   2.48694   0.39900
H     0.67862   1.91034   1.88550
