22
Generated by autodE on: 2022-06-19. E = -591.887724 Ha
C    -0.97548   2.47385   1.46785
N    -0.75450   1.51341   0.79674
C    -0.48089   0.38406   0.18984
C    -1.63970  -0.42479  -0.21254
O    -1.59484  -1.50458  -0.78254
O    -2.80560   0.16259   0.12348
C    -3.99924  -0.54979  -0.21641
C     0.93376   0.02080  -0.02004
C     1.95246   0.88229   0.44404
C     3.29819   0.56365   0.26940
C     3.66936  -0.62025  -0.37691
C     2.67101  -1.47950  -0.84352
C     1.32040  -1.16986  -0.67067
H    -1.14964   3.52890   1.22475
H    -4.02834  -1.52638   0.28918
H    -4.06592  -0.70324  -1.30367
H    -4.83186   0.07577   0.12669
H     1.69121   1.81443   0.94804
H     4.06334   1.24971   0.64079
H     4.72414  -0.86795  -0.51591
H     2.94212  -2.40834  -1.35166
H     0.55735  -1.85094  -1.03824
