45
Generated by autodE on: 2022-06-19. E = -943.406113 Ha. Imaginary frequency = -372.0 cm-1
C     5.09597  -1.78103   1.97233
C     3.79684  -1.41254   1.98690
C     2.78634  -2.12682   2.84795
C     3.33976  -0.30352   1.14923
C     2.06611   0.14971   1.09107
C     1.60775   1.22385   0.20751
C     1.42274  -0.02550  -1.52429
N     0.26295  -0.26425  -1.73622
C    -0.97309   0.01306  -1.25746
C    -1.68316   1.09834  -1.90019
O    -2.76531   1.56664  -1.54873
O    -0.99722   1.61546  -2.95104
C    -1.58892   2.73557  -3.61080
C    -1.52472  -0.89332  -0.24930
C    -0.72673  -1.94393   0.26291
C    -1.19354  -2.77701   1.27748
C    -2.47478  -2.59836   1.81224
C    -3.28133  -1.57552   1.30479
C    -2.82155  -0.73487   0.28946
C     0.38718   1.88433   0.36153
C    -0.58058   1.60795   1.47275
C     0.15202   3.15643  -0.40156
H     5.82492  -1.25987   1.34401
H     5.46141  -2.60996   2.58489
H     1.96932  -2.54707   2.23781
H     2.31549  -1.43438   3.56546
H     3.25310  -2.94526   3.41379
H     4.10185   0.17649   0.52347
H     1.30352  -0.33698   1.70211
H     2.39047   1.76678  -0.33545
H     2.38583  -0.33384  -1.94178
H    -2.57745   2.47496  -4.01774
H    -1.69491   3.58979  -2.92613
H    -0.90714   2.99843  -4.42889
H     0.27527  -2.10892  -0.13371
H    -0.54782  -3.57508   1.65266
H    -2.83965  -3.25067   2.60882
H    -4.28736  -1.42414   1.70458
H    -3.46018   0.05957  -0.08801
H    -0.41330   2.33409   2.29179
H    -0.49084   0.60143   1.89860
H    -1.61985   1.74766   1.13695
H     0.46795   4.02371   0.20947
H     0.71848   3.18515  -1.34342
H    -0.91573   3.30672  -0.62070
