34
Generated by autodE on: 2022-10-07. E = -1006.210191 Ha
C     4.88529   1.23706  -0.50149
N     3.68399   0.43753  -0.35735
C     2.47704   1.00880  -0.22763
O     2.31000   2.23912  -0.22675
C     1.28742   0.11363  -0.09698
N     0.16124   0.79253  -0.07089
C    -1.15416   0.49176   0.04154
C    -1.99919   1.66783  -0.17439
O    -1.52783   2.76064  -0.47885
O    -3.30701   1.46905   0.00480
C    -4.15812   2.60629  -0.18851
C    -1.56637  -0.81174   0.56204
O    -0.83940  -1.52359   1.24258
O    -2.81867  -1.15606   0.24541
C    -3.30369  -2.38477   0.80311
C     1.30042  -1.37079  -0.30055
O     0.61430  -1.86751  -1.19693
N     2.14719  -2.07763   0.46944
C     2.20321  -3.52647   0.38565
H     4.99808   1.93311   0.34399
H     4.86044   1.83055  -1.42924
H     5.75242   0.56701  -0.53101
H     3.76138  -0.57444  -0.35562
H     0.33252   1.81178  -0.18479
H    -4.06027   2.99395  -1.21296
H    -5.17969   2.24802  -0.01604
H    -3.90977   3.40309   0.52762
H    -4.33657  -2.48693   0.45059
H    -2.69682  -3.23245   0.45328
H    -3.27961  -2.34886   1.90203
H     2.54876  -1.62074   1.28408
H     3.03817  -3.88636   0.99894
H     2.35973  -3.84200  -0.65532
H     1.26648  -3.98137   0.74798
