34
Generated by autodE on: 2022-10-14. E = -1006.211050 Ha
C     4.68503  -1.54052  -0.53391
N     3.53706  -0.66722  -0.38222
C     2.28999  -1.15964  -0.31664
O     2.04477  -2.37611  -0.37864
C     1.16105  -0.20087  -0.13871
N     0.01217  -0.82412   0.03830
C    -1.26938  -0.46561   0.25057
C    -1.77212   0.89909   0.04169
O    -2.67868   1.42150   0.66303
O    -1.14261   1.50212  -0.98093
C    -1.45196   2.88345  -1.20741
C    -2.12503  -1.60315   0.57907
O    -1.69425  -2.74881   0.67031
O    -3.41320  -1.29043   0.74510
C    -4.29956  -2.37328   1.05557
C     1.29278   1.26636   0.12406
O     0.76033   1.76304   1.12162
N     2.06202   1.96395  -0.73174
C     2.26675   3.39355  -0.57969
H     4.78796  -2.21845   0.32840
H     4.59336  -2.15694  -1.44139
H     5.58821  -0.92402  -0.61124
H     3.68592   0.33276  -0.29805
H     0.14703  -1.85599   0.04326
H    -2.51588   3.00444  -1.45620
H    -0.82840   3.19746  -2.05197
H    -1.21239   3.47766  -0.31436
H    -4.31272  -3.10929   0.23842
H    -5.29204  -1.92346   1.17493
H    -3.99359  -2.86939   1.98810
H     2.33789   1.52153  -1.60418
H     3.10213   3.70341  -1.21958
H     2.50713   3.62956   0.46582
H     1.36691   3.96261  -0.86533
