10
Generated by autodE on: 2022-10-07. E = -455.051693 Ha
O     2.82747  -0.61650  -0.67480
C     1.97365  -0.00075   0.02280
O     2.22701   0.81076   0.95528
C     0.52278  -0.28035  -0.31184
C    -0.52250   0.28023   0.31176
C    -1.97357   0.00072  -0.02277
O    -2.82738   0.61670   0.67462
O    -2.22740  -0.81085  -0.95505
H     0.34038  -0.99218  -1.12437
H    -0.33997   0.99203   1.12429
