31
Generated by autodE on: 2022-05-29. E = -1541.606799 Ha
C     5.01484  -0.16554  -0.52545
O     3.58318  -0.21825  -0.63055
C     2.89316  -0.03028   0.49030
O     3.39865   0.14170   1.58037
C     1.38583  -0.12313   0.25425
O     0.98596   0.30135  -1.05287
N     0.66410   1.71267  -1.00161
C     1.88088   2.48840  -1.22782
C     0.10673   1.91381   0.33151
C    -1.44650   1.79824   0.46688
O    -1.55245   1.39271   1.83541
C    -0.80656   0.16974   1.70646
C    -1.51929  -0.49247   0.52718
C    -1.63787  -1.95258   0.26148
F    -2.90840  -2.38769   0.36635
F    -1.21895  -2.28913  -0.97450
F    -0.90135  -2.66522   1.13659
C    -1.89873   0.53308  -0.24992
Cl   -2.64505   0.51769  -1.78991
C     0.57286   0.72721   1.22454
H     5.39814  -0.34351  -1.53650
H     5.33283   0.82391  -0.16616
H     5.37862  -0.94098   0.16361
H     1.14777  -1.19724   0.31457
H     2.34472   2.16074  -2.16669
H     2.62191   2.41830  -0.41049
H     1.59169   3.54394  -1.33196
H     0.41567   2.88973   0.72214
H    -2.01206   2.71093   0.25502
H    -0.78656  -0.39270   2.64471
H     1.16400   1.04126   2.09015
