15
Generated by autodE on: 2022-05-29. E = -437.138885 Ha
C    -3.28734   0.27251  -0.43608
N    -2.37059  -0.77204  -0.04445
O    -1.16634  -0.27635  -0.04939
C    -0.10923  -0.97007   0.26016
C     1.17473  -0.30758   0.21383
O     2.22256  -0.88117   0.48368
O     1.10606   0.98657  -0.15079
C     2.34976   1.69366  -0.21440
H    -3.84198  -0.04363  -1.33699
H    -2.77662   1.22526  -0.63907
H    -4.03617   0.42171   0.36141
H    -0.21652  -2.01950   0.53944
H     2.84278   1.70508   0.76906
H     2.10064   2.71629  -0.52147
H     3.02347   1.23232  -0.95178
