15
Generated by autodE on: 2022-07-26. E = -437.124811 Ha
C    -0.56494   1.76204  -0.98244
N    -1.61116   0.86598  -1.35922
O    -1.77227  -0.15835  -0.55067
C    -1.09164  -0.59398   0.48640
C     0.33332  -0.52290   0.79012
O     0.76163  -0.74011   1.91515
O     1.12465  -0.34740  -0.27905
C     2.53814  -0.31858  -0.03070
H     0.44734   1.43721  -1.27408
H    -0.54381   1.89354   0.12237
H    -0.78384   2.71740  -1.47767
H    -1.69118  -1.26832   1.09994
H     3.01009  -0.14272  -1.00410
H     2.79106   0.49235   0.66732
H     2.87342  -1.27896   0.38641
