16
Generated by autodE on: 2022-05-29. E = -1104.339445 Ha
F    -2.26996  -0.89726  -1.06462
C    -1.40331  -0.88240  -0.02966
F    -1.07771  -2.17395   0.20910
F    -2.07165  -0.43354   1.04213
C    -0.19332  -0.08797  -0.33616
C     0.42134   0.90063   0.32386
Cl    0.02631   1.71453   1.77527
C     1.75597   1.13702  -0.43165
C     2.63366  -0.10512  -0.15635
C     2.03100  -1.09787  -0.81626
C     0.79688  -0.44386  -1.47762
O     1.31469   0.86565  -1.76835
H     2.20551   2.12863  -0.31980
H     3.50853  -0.11981   0.49194
H     2.27524  -2.15817  -0.86419
H     0.36481  -0.93143  -2.35751
