51
Generated by autodE on: 2022-10-22. E = -1374.945164 Ha
C    -3.30769   4.21427  -0.41689
N    -2.99723   2.79688  -0.40956
C    -1.74384   2.34478  -0.53840
O    -0.76075   3.07963  -0.67438
C    -1.58074   0.83520  -0.55457
C    -1.88535   0.21581  -1.92661
O    -1.91889   0.71713  -3.01692
O    -2.16442  -1.08871  -1.68262
C    -1.99412  -1.26569  -0.25729
C    -2.73983  -2.50325   0.23678
C    -3.75975  -3.10983  -0.66990
O    -2.47935  -2.92033   1.34921
C    -0.47874  -1.20441   0.06867
C     0.52268  -1.81508  -0.95283
O     0.56133  -0.82431  -1.98480
C     0.96246   0.27844  -1.15223
C     2.18915  -0.28736  -0.43549
C     3.24433   0.52437   0.15363
C     4.41295  -0.05211   0.70080
C     5.40685   0.74704   1.26428
C     5.26393   2.13938   1.30395
C     4.11045   2.72402   0.77182
C     3.11303   1.93053   0.20215
C     1.90275  -1.61113  -0.31591
O     2.57794  -2.53061   0.38725
C     2.12584  -3.88702   0.33095
C    -0.18365   0.31620  -0.11085
N    -2.54034   0.01427   0.23829
C    -2.54286   0.21842   1.68597
H    -4.37962   4.34288  -0.22567
H    -2.73929   4.74383   0.36303
H    -3.06067   4.67076  -1.38851
H    -3.74477   2.11824  -0.30268
H    -4.27892  -3.92871  -0.15670
H    -4.47421  -2.33808  -0.99760
H    -3.26207  -3.48489  -1.57916
H    -0.31504  -1.58558   1.08200
H     0.27326  -2.80294  -1.35193
H     1.09697   1.18526  -1.74977
H     4.53753  -1.13474   0.67529
H     6.30395   0.27837   1.67687
H     6.04452   2.76195   1.74732
H     3.98291   3.80903   0.80119
H     2.21384   2.40776  -0.19296
H     2.80352  -4.46279   0.97313
H     2.17686  -4.27641  -0.69759
H     1.09744  -3.97732   0.71387
H     0.11904   0.83203   0.80635
H    -1.56820   0.05801   2.17629
H    -2.86762   1.24670   1.89064
H    -3.27557  -0.45991   2.14214
