51
Generated by autodE on: 2022-10-22. E = -1374.883656 Ha. Imaginary frequency = -368.5 cm-1
C    -1.96423   4.53984  -1.51092
N    -2.09648   3.09883  -1.56811
C    -2.48642   2.38787  -0.49305
O    -2.77682   2.91209   0.59125
C    -2.47417   0.92031  -0.69408
C    -2.22013   0.25056  -1.94917
O    -1.89194   0.65790  -3.05016
O    -2.41946  -1.08920  -1.69090
C    -2.62114  -1.23009  -0.33763
C    -3.03368  -2.57611   0.13619
C    -2.96629  -3.67757  -0.87998
O    -3.35228  -2.76003   1.30206
C    -0.58361  -1.06053   0.32695
C     0.37346  -1.82989  -0.61284
O     0.35966  -0.99550  -1.77323
C     0.74428   0.21554  -1.09874
C     2.05809  -0.23100  -0.41128
C     3.15931   0.65043  -0.06177
C     4.35552   0.15765   0.51102
C     5.39797   1.02100   0.84411
C     5.28195   2.39882   0.62184
C     4.10499   2.90231   0.05908
C     3.05845   2.04303  -0.27983
C     1.80614  -1.53069  -0.10069
O     2.56735  -2.36651   0.61430
C     2.11746  -3.71351   0.79042
C    -0.31843   0.27966   0.00667
N    -3.04658  -0.01632   0.14428
C    -3.38280   0.22024   1.54440
H    -1.25703   4.84332  -0.72265
H    -1.59224   4.89942  -2.47778
H    -2.93063   5.02556  -1.30037
H    -1.88844   2.59483  -2.42936
H    -3.19401  -4.63416  -0.39374
H    -3.68931  -3.48098  -1.68829
H    -1.96938  -3.71399  -1.34534
H    -0.78569  -1.41408   1.33960
H     0.12795  -2.86901  -0.85085
H     0.80070   1.05813  -1.79506
H     4.46110  -0.91238   0.68914
H     6.31280   0.61401   1.28253
H     6.10113   3.07190   0.88515
H     3.99823   3.97550  -0.11814
H     2.14735   2.46029  -0.71267
H     2.06205  -4.23888  -0.17546
H     1.13552  -3.73977   1.28737
H     2.86167  -4.20331   1.43011
H    -0.37662   1.11501   0.70314
H    -3.92693  -0.64683   1.92461
H    -3.99781   1.12058   1.61250
H    -2.46659   0.36618   2.13830
