52
Generated by autodE on: 2022-06-24. E = -1151.623234 Ha
C    -1.47179  -3.83675  -3.65788
N    -1.51818  -3.00240  -2.47562
C    -0.50483  -2.94978  -1.59952
O     0.52742  -3.62352  -1.70692
C    -0.70955  -1.98955  -0.45252
N    -1.66359  -1.14006  -0.48696
C    -1.58862  -0.27787   0.70457
C    -2.98793  -0.12266   1.31110
O    -3.23033  -0.22280   2.49601
O    -3.90088   0.18542   0.39388
C    -5.23781   0.42111   0.86346
C    -1.10946   1.13092   0.32494
C    -0.60363   1.41918  -0.94677
C    -0.10494   2.69328  -1.23630
C    -0.11710   3.69447  -0.26231
C    -0.62840   3.41305   1.00903
C    -1.11853   2.13894   1.30129
C    -0.61846  -1.00316   1.66932
C     0.23098  -1.91382   0.75436
C     0.49111  -3.28231   1.40587
C     1.53230  -1.30871   0.25870
C     2.00648  -0.07608   0.52317
C     3.23438   0.44832  -0.04906
C     3.74695   1.68912   0.13658
C     3.12374   2.74510   1.00492
C     5.01914   2.10572  -0.54699
H    -2.46015  -3.83953  -4.13295
H    -1.20030  -4.86939  -3.39184
H    -0.72923  -3.46900  -4.38561
H    -2.29507  -2.36561  -2.32395
H    -5.83312   0.65324  -0.02692
H    -5.25193   1.26892   1.56357
H    -5.63277  -0.47463   1.36363
H    -0.58103   0.64210  -1.71048
H     0.29842   2.90024  -2.23035
H     0.27464   4.68846  -0.48958
H    -0.63945   4.18678   1.78024
H    -1.50374   1.92393   2.30073
H    -1.20464  -1.63292   2.35036
H    -0.02692  -0.31507   2.28240
H     1.10698  -3.92384   0.76243
H    -0.45779  -3.80227   1.61125
H     1.01929  -3.13633   2.36082
H     2.09869  -1.95794  -0.41711
H     1.44262   0.58535   1.18272
H     3.78071  -0.23458  -0.71060
H     3.84173   3.07519   1.77631
H     2.88347   3.64005   0.40511
H     2.20401   2.42115   1.50665
H     4.84723   2.99054  -1.18590
H     5.78147   2.40751   0.19352
H     5.43832   1.30266  -1.17089
