29
Generated by autodE on: 2022-06-24. E = -800.015567 Ha
C     3.87777   1.08029   0.75652
N     3.84493  -0.37091   0.83995
C     2.72251  -1.09285   0.97319
O     2.63944  -2.32319   0.94622
C     1.49388  -0.31401   1.23284
N     0.55675   0.03657   0.57729
C    -0.51371   0.42011  -0.05595
C    -0.51206   1.80809  -0.55614
O    -1.40892   2.32823  -1.19808
O     0.61997   2.45428  -0.22782
C     0.73954   3.81015  -0.67491
C    -1.59940  -0.55764  -0.25842
C    -1.34019  -1.92884  -0.04356
C    -2.34852  -2.87780  -0.20148
C    -3.63605  -2.48513  -0.58387
C    -3.90162  -1.13040  -0.80214
C    -2.89924  -0.17165  -0.64132
H     3.63170   1.44406  -0.25382
H     3.16082   1.51809   1.46697
H     4.88144   1.43229   1.02557
H     4.68705  -0.90038   0.62414
H    -0.06188   4.43090  -0.24826
H     1.71669   4.15791  -0.32027
H     0.69480   3.86140  -1.77258
H    -0.33695  -2.25419   0.23992
H    -2.12388  -3.93350  -0.03196
H    -4.42443  -3.23022  -0.71253
H    -4.90370  -0.81019  -1.09766
H    -3.12161   0.87973  -0.80876
