52
Generated by autodE on: 2022-06-24. E = -1151.529398 Ha. Imaginary frequency = -395.5 cm-1
C    -0.97743  -4.35762  -2.99945
N    -1.32269  -3.41499  -1.95001
C    -0.72601  -2.21936  -1.85848
O     0.15692  -1.80520  -2.61747
C    -1.11746  -1.37660  -0.71020
N    -1.79829  -0.38392  -0.56696
C    -2.08158   0.54023   0.35618
C    -3.30096   0.31876   1.15376
O    -3.72635   1.06724   2.01961
O    -3.89089  -0.85341   0.85457
C    -5.01953  -1.22155   1.65482
C    -1.37319   1.82976   0.24481
C    -0.47404   2.02870  -0.82569
C     0.26435   3.20480  -0.92998
C     0.12456   4.21551   0.02773
C    -0.76074   4.02880   1.09276
C    -1.50444   2.85170   1.20578
C    -0.78929  -0.66554   2.05021
C    -0.06266  -1.57409   1.29246
C    -0.33763  -3.05786   1.45443
C     1.23043  -1.20411   0.68092
C     1.83137   0.00752   0.74246
C     3.05446   0.33594   0.04123
C     3.71920   1.51896   0.07521
C     3.30009   2.70446   0.89792
C     4.97111   1.72230  -0.73107
H     0.09899  -4.58772  -2.97996
H    -1.54398  -5.28259  -2.84111
H    -1.22441  -3.95371  -3.99370
H    -2.00524  -3.67311  -1.24252
H    -5.35928  -2.18989   1.26901
H    -5.82280  -0.47590   1.56368
H    -4.73008  -1.31667   2.71194
H    -0.34663   1.24842  -1.57775
H     0.95869   3.33054  -1.76387
H     0.70481   5.13720  -0.05383
H    -0.87533   4.80671   1.85160
H    -2.18288   2.71468   2.04447
H    -1.61483  -1.02375   2.66939
H    -0.40396   0.32516   2.28593
H    -0.01995  -3.63579   0.57476
H    -1.40775  -3.24709   1.62614
H     0.21958  -3.45434   2.32146
H     1.70965  -1.99106   0.08677
H     1.36133   0.80006   1.32985
H     3.47060  -0.46067  -0.58759
H     3.17476   3.59399   0.25707
H     2.36495   2.55155   1.45069
H     4.09204   2.95904   1.62513
H     4.84822   2.56115  -1.43988
H     5.81967   1.99701  -0.07870
H     5.24847   0.82414  -1.30243
