40
Generated by autodE on: 2022-06-18. E = -952.581060 Ha
C     0.90869   3.60814   1.85464
N     0.54201   2.52164   0.97019
C     1.04387   1.29185   1.09823
O     1.92863   1.00670   1.92421
C     0.41710   0.21647   0.18966
C     1.45360  -0.74803  -0.44565
O     1.06839  -1.51065  -1.34402
N     2.71423  -0.72566  -0.00820
C     3.70629  -1.65619  -0.50919
N    -0.40943   0.82286  -0.84860
C     0.24292   1.37987  -2.02333
C    -1.59227   0.01170  -1.12595
C    -2.80496   0.84787  -1.08297
N    -3.74615   1.52716  -1.05939
C    -1.59180  -1.12300  -0.08207
C    -1.34178  -2.47044  -0.72809
O    -1.66332  -2.73712  -1.86743
C    -0.61521  -0.64295   1.02976
C    -1.40818   0.24541   2.00514
C     0.05306  -1.76091   1.83216
H     0.42104   3.51003   2.83946
H     1.99637   3.61757   2.01101
H     0.60261   4.55995   1.40260
H    -0.24070   2.61446   0.32640
H     2.89896  -0.15542   0.81861
H     3.75444  -1.61854  -1.60737
H     3.47286  -2.69351  -0.21599
H     4.68749  -1.38570  -0.10025
H     0.57751   0.60184  -2.73351
H     1.11680   1.97236  -1.71901
H    -0.45435   2.05184  -2.54677
H    -1.55990  -0.43838  -2.13399
H    -2.59149  -1.25713   0.36848
H    -0.94639  -3.25988  -0.05372
H    -0.76186   0.63841   2.80298
H    -2.19289  -0.36203   2.47972
H    -1.89484   1.09308   1.50331
H     0.63783  -2.45332   1.21284
H     0.72979  -1.32114   2.57851
H    -0.71031  -2.34679   2.36606
