26
Generated by autodE on: 2022-06-18. E = -681.833120 Ha
C    -0.78906   3.84505  -0.09120
N    -0.07857   2.59178   0.03233
C    -0.71091   1.41102  -0.16126
O    -1.91360   1.37968  -0.49241
C     0.10037   0.19444   0.05553
C     1.58280   0.31179   0.14852
O     2.13691   1.20576   0.81593
N     2.31001  -0.55092  -0.58910
C     3.75916  -0.56604  -0.52868
N    -0.49050  -1.03169   0.13425
C     0.25059  -2.14460   0.78796
C    -1.73660  -1.31793  -0.27433
C    -2.33994  -2.55683  -0.01170
N    -2.89827  -3.57111   0.15979
H    -0.06926   4.66993  -0.01501
H    -1.30170   3.91193  -1.06285
H    -1.55191   3.97212   0.69674
H     0.84747   2.56000   0.45615
H     1.84252  -1.21928  -1.19134
H     4.18465   0.38330  -0.89104
H     4.11026  -0.72289   0.50344
H     4.12920  -1.38394  -1.15862
H     1.09369  -1.75175   1.35853
H     0.59242  -2.86051   0.03052
H    -0.43538  -2.64688   1.47956
H    -2.29113  -0.54189  -0.79477
