40
Generated by autodE on: 2022-06-18. E = -952.501722 Ha. Imaginary frequency = -355.5 cm-1
C     0.56650   3.79354   1.07367
N     0.63524   2.61940   0.22712
C     0.76314   1.38496   0.75617
O     1.06074   1.22944   1.94922
C     0.65643   0.23481  -0.22350
C     1.93520  -0.53217  -0.39221
O     2.24805  -1.13704  -1.42694
N     2.72136  -0.57642   0.70504
C     3.89498  -1.42216   0.74361
N    -0.17466   0.45825  -1.32038
C     0.09625  -0.08812  -2.66395
C    -1.48406   0.73146  -1.09312
C    -1.96139   1.53031  -0.01040
N    -2.44973   2.16863   0.83238
C    -1.94820  -1.13926   0.08714
C    -2.47456  -1.84420  -1.07136
O    -3.66383  -1.85917  -1.38443
C    -0.70869  -1.44761   0.70929
C    -0.62611  -1.18626   2.19109
C     0.07818  -2.65776   0.25544
H    -0.33955   3.77591   1.70256
H     1.44392   3.84879   1.73398
H     0.54035   4.68717   0.43841
H     0.37733   2.71541  -0.74882
H     2.38561  -0.11913   1.55121
H     4.61525  -1.14265  -0.04111
H     3.63410  -2.48373   0.59625
H     4.37908  -1.31033   1.72174
H     0.04740  -1.18371  -2.65915
H     1.08761   0.22519  -2.99895
H    -0.66656   0.31087  -3.34133
H    -2.12601   0.77090  -1.97566
H    -2.72234  -0.67843   0.70580
H    -1.73328  -2.38842  -1.69854
H     0.41287  -1.14265   2.53968
H    -1.11836  -2.02320   2.72029
H    -1.13508  -0.25627   2.47671
H     0.22530  -2.70871  -0.82906
H     1.06280  -2.69060   0.73995
H    -0.46363  -3.56812   0.56678
