37
Generated by autodE on: 2022-06-18. E = -821.925006 Ha
C     4.19376  -1.71437   0.98311
N     2.81674  -1.35154   0.71857
C     2.45384  -0.09011   0.44593
O     3.23879   0.86489   0.44207
C     0.98587   0.09476   0.13934
N     0.29027  -0.90301  -0.25799
C    -1.08730  -0.44680  -0.50878
C    -1.26756  -0.32433  -1.96266
N    -1.40126  -0.26527  -3.11359
C    -2.15783  -1.46914  -0.03684
C    -1.71374  -2.58590   0.85046
O    -3.30299  -1.32121  -0.41455
C    -1.22417   0.94924   0.24762
C    -1.67841   0.69367   1.69463
C    -2.22240   1.89519  -0.41291
C     0.28091   1.43883   0.21094
C     0.68014   2.28362   1.42835
C     0.62953   2.22987  -1.06948
H     4.22550  -2.73550   1.38171
H     4.63385  -1.02772   1.72093
H     4.80950  -1.67030   0.06912
H     2.11019  -2.07441   0.61830
H    -1.11644  -3.28921   0.24647
H    -1.05773  -2.22504   1.65473
H    -2.59067  -3.10364   1.25957
H    -0.99314   0.03093   2.24144
H    -1.73624   1.64513   2.23862
H    -2.68447   0.25137   1.71688
H    -1.99069   2.09825  -1.46597
H    -3.23364   1.46427  -0.36659
H    -2.23686   2.85415   0.12710
H     0.68456   1.70385   2.36109
H     1.68561   2.69873   1.28564
H    -0.02296   3.12236   1.54435
H     1.71563   2.38830  -1.11474
H     0.13868   3.21376  -1.04943
H     0.32479   1.70827  -1.98670
