18
Generated by autodE on: 2022-06-18. E = -235.968071 Ha
C     1.25571  -1.48687  -0.31378
C     0.66356  -0.12144  -0.05955
C     1.73205   0.94007   0.04591
C    -0.66345   0.12140   0.05964
C    -1.25557   1.48644   0.31599
C    -1.73225  -0.93965  -0.04819
H     0.51705  -2.29375  -0.38887
H     1.84590  -1.48159  -1.24784
H     1.96505  -1.75268   0.49051
H     2.43079   0.70138   0.86791
H     1.34849   1.95315   0.21591
H     2.34344   0.96113  -0.87409
H    -1.85879   1.47476   1.24158
H    -0.51602   2.29067   0.40893
H    -1.95295   1.76108  -0.49583
H    -2.33435  -0.97347   0.87759
H    -2.43932  -0.69020  -0.85974
H    -1.34989  -1.94997  -0.23631
