37
Generated by autodE on: 2022-06-18. E = -821.838289 Ha. Imaginary frequency = -326.8 cm-1
C     4.35966  -1.00195   1.22646
N     2.93849  -0.87481   0.95060
C     2.49415  -0.26438  -0.15299
O     3.19266   0.23189  -1.03499
C     1.00959  -0.18051  -0.26842
N     0.16136  -0.84636  -0.80553
C    -1.17390  -1.01342  -0.89259
C    -1.82572  -0.71881  -2.11141
N    -2.37862  -0.45331  -3.10452
C    -1.91737  -1.65890   0.18114
C    -1.13682  -2.17688   1.36149
O    -3.14554  -1.76904   0.10339
C    -1.19125   1.55233   0.43222
C    -2.17412   1.16480   1.49834
C    -1.78786   2.17083  -0.79998
C     0.17630   1.65685   0.69015
C     0.69349   1.45002   2.10147
C     1.01332   2.60461  -0.15376
H     4.85706  -0.02534   1.13170
H     4.48645  -1.37360   2.24983
H     4.84060  -1.70473   0.52801
H     2.26044  -1.23688   1.61649
H    -1.83738  -2.54384   2.12182
H    -0.47718  -2.99983   1.04056
H    -0.49312  -1.39942   1.79798
H    -1.75503   0.50113   2.26375
H    -3.07235   0.69307   1.07505
H    -2.51086   2.08306   2.01894
H    -2.78692   1.76530  -1.01267
H    -1.90164   3.26193  -0.64802
H    -1.16184   2.04046  -1.69340
H     0.39668   2.30109   2.74019
H     1.79093   1.40092   2.11680
H     0.30478   0.53661   2.57249
H     2.08655   2.47402   0.04205
H     0.75731   3.64926   0.09974
H     0.84883   2.47967  -1.23255
