47
Generated by autodE on: 2022-06-21. E = -1073.173101 Ha
C    -5.54300   2.35250   0.70224
N    -4.25986   1.76702   0.38056
C    -3.08363   2.37184   0.60397
O    -2.94280   3.49508   1.10178
C    -1.87196   1.57392   0.19841
N    -1.96500   0.40230  -0.30189
C    -0.61387  -0.12551  -0.53358
C    -0.56825  -0.98143  -1.81458
C    -1.85773  -1.58758  -2.28102
O     0.48231  -1.17235  -2.39816
C    -0.29416  -1.02660   0.68344
O    -0.49730  -0.67910   1.82480
O     0.22746  -2.19673   0.33974
C     0.70086  -3.04300   1.40242
C     0.35991   1.14630  -0.49318
C     0.50279   1.77391  -1.89369
C     1.72315   0.90104   0.11761
C     2.51126  -0.16526  -0.11696
C     3.79462  -0.39203   0.52523
C     4.52086  -1.53457   0.46545
C     5.83319  -1.65623   1.18754
C     4.09333  -2.76752  -0.28200
C    -0.48804   2.10628   0.38342
H    -5.38968   3.38904   1.02548
H    -6.20420   2.34615  -0.17757
H    -6.04215   1.79931   1.51418
H    -4.22132   0.83310  -0.01876
H    -1.65789  -2.28545  -3.10421
H    -2.53751  -0.79080  -2.62121
H    -2.36391  -2.10203  -1.45035
H     1.50002  -2.53052   1.95616
H     1.08917  -3.94437   0.91639
H    -0.12308  -3.29613   2.08369
H     1.08716   1.13510  -2.56524
H     1.01938   2.74054  -1.79821
H    -0.48373   1.95760  -2.34970
H     2.07552   1.67991   0.80385
H     2.15702  -0.92443  -0.81518
H     4.18522   0.43367   1.13217
H     5.80796  -2.49301   1.90838
H     6.09574  -0.73650   1.73075
H     6.64906  -1.88793   0.47946
H     4.86536  -3.06204  -1.01432
H     3.99407  -3.61644   0.41744
H     3.13947  -2.65428  -0.81256
H    -0.39662   3.15923   0.08302
H    -0.21906   2.04320   1.44963
