24
Generated by autodE on: 2022-06-21. E = -721.577658 Ha
C     3.64523   0.12347   0.91553
N     3.73273  -0.05680  -0.52338
C     2.70235  -0.16180  -1.36915
O     2.75117  -0.30170  -2.59081
C     1.37194  -0.10062  -0.76210
N     0.24709  -0.05662  -0.46058
C    -1.01919  -0.00096  -0.04406
C    -2.07403  -0.06787  -1.05522
C    -1.61448  -0.21602  -2.48997
O    -3.27013  -0.00507  -0.77329
C    -1.14849   0.12938   1.40902
O    -0.18660   0.19277   2.16562
O    -2.41441   0.16879   1.83888
C    -2.60257   0.29902   3.25364
H     4.09500   1.08175   1.21468
H     2.59466   0.12073   1.23800
H     4.16553  -0.69263   1.43758
H     4.65449  -0.09582  -0.95619
H    -0.98438   0.63734  -2.78893
H    -2.49454  -0.26753  -3.14334
H    -1.00674  -1.12647  -2.61630
H    -2.15117   1.23188   3.62203
H    -2.15734  -0.55445   3.78566
H    -3.68747   0.31721   3.41081
