47
Generated by autodE on: 2022-06-21. E = -1073.105668 Ha. Imaginary frequency = -337.5 cm-1
C    -5.31731   2.82707   0.76150
N    -4.21210   2.03293   0.25385
C    -3.12928   1.77121   0.99524
O    -2.91106   2.16773   2.13779
C    -2.08967   0.97084   0.29783
N    -1.79111  -0.15713   0.05363
C    -0.96852  -1.03489  -0.55172
C    -1.19123  -1.30216  -1.96420
C    -2.40265  -0.65378  -2.59838
O    -0.41512  -1.98817  -2.63885
C     0.09285  -1.63828   0.24181
O     0.98819  -2.35227  -0.18689
O     0.00062  -1.29369   1.54405
C     0.97566  -1.85567   2.42887
C     0.53787   1.65603  -0.84764
C     0.71073   1.34856  -2.31213
C     1.54858   1.23768   0.09792
C     2.61330   0.43875  -0.18794
C     3.57576   0.01719   0.80137
C     4.49798  -0.97025   0.65721
C     5.40839  -1.34181   1.79088
C     4.64193  -1.80793  -0.57982
C    -0.53817   2.39645  -0.39535
H    -5.99610   2.22441   1.38644
H    -5.88246   3.23284  -0.08644
H    -4.93003   3.65624   1.36870
H    -4.29130   1.59546  -0.66143
H    -2.49925  -1.01378  -3.63047
H    -2.28454   0.44203  -2.61024
H    -3.32272  -0.87603  -2.03600
H     1.99277  -1.57012   2.12761
H     0.89582  -2.95307   2.44469
H     0.74913  -1.45030   3.42228
H     1.54589   1.94146  -2.72447
H    -0.19597   1.59845  -2.87978
H     0.95346   0.29174  -2.49437
H     1.41165   1.57426   1.13173
H     2.72912   0.06396  -1.20754
H     3.51502   0.51870   1.77413
H     5.27100  -2.40289   2.06685
H     5.23405  -0.72373   2.68366
H     6.46740  -1.23882   1.49351
H     4.04793  -1.44660  -1.42854
H     4.32317  -2.84383  -0.36435
H     5.69910  -1.86660  -0.88993
H    -1.22796   2.85953  -1.10572
H    -0.52279   2.80824   0.61783
