59
Generated by autodE on: 2022-06-25. E = -1400.672552 Ha
C     0.93806   3.11347  -0.12044
C     1.54011   2.17416   0.62261
C     2.72216   2.50513   1.49383
C     1.07020   0.72810   0.65482
C    -0.39697   0.49529   0.25970
C    -1.40093   0.91286   1.28689
C    -2.56813   1.53891   1.04505
C    -3.50545   1.88022   2.17221
C    -3.06259   1.93320  -0.32001
C    -0.43209  -0.99427  -0.18175
C    -0.31757  -1.98374   0.99030
O    -0.04365  -1.70260   2.14016
O    -0.42869  -3.24276   0.55779
C    -0.13207  -4.28345   1.50123
C    -1.66593  -1.25721  -1.02673
C    -1.65119  -0.99468  -2.40175
C    -2.82343  -1.09970  -3.15542
C    -4.02555  -1.46323  -2.54049
C    -4.04627  -1.72645  -1.16691
C    -2.87332  -1.62348  -0.41545
N     0.82024  -1.07999  -0.93944
C     1.85152  -0.28230  -0.29164
C     2.67720   0.50480  -1.32118
O     3.86707   0.72215  -1.21582
O     1.92785   0.95904  -2.31801
C     2.56366   1.84751  -3.25034
C     2.80162  -1.19692   0.50538
O     2.83511  -2.40032   0.34123
O     3.54476  -0.55190   1.38800
C     4.45265  -1.33600   2.18095
H     0.07609   2.90407  -0.75667
H     1.29944   4.14590  -0.10884
H     2.52549   2.21487   2.54000
H     2.95276   3.57974   1.46357
H     3.61538   1.94568   1.17843
H     1.21233   0.36327   1.67923
H    -0.58176   1.03164  -0.67723
H    -1.15840   0.65751   2.32258
H    -3.10990   1.56605   3.14938
H    -3.69974   2.96679   2.20579
H    -4.48656   1.39590   2.02152
H    -2.33560   1.75165  -1.12129
H    -3.33896   3.00156  -0.33372
H    -3.97894   1.36996  -0.56849
H    -0.28976  -5.22788   0.96808
H     0.91306  -4.20245   1.83352
H    -0.80241  -4.21969   2.36993
H    -0.71423  -0.69388  -2.87175
H    -2.79795  -0.89210  -4.22799
H    -4.94269  -1.54262  -3.12895
H    -4.98036  -2.01009  -0.67625
H    -2.90652  -1.81913   0.65861
H     1.13293  -2.03929  -1.08262
H     1.79253   2.11823  -3.98010
H     3.40351   1.34421  -3.74937
H     2.92669   2.74381  -2.72694
H     4.96433  -0.62541   2.83936
H     5.17651  -1.84924   1.53261
H     3.89461  -2.07500   2.77285
