23
Generated by autodE on: 2022-06-25. E = -351.521381 Ha
C     3.57220   1.22421   0.19918
C     2.56347   0.34166   0.02766
C     2.83474  -1.10468  -0.29897
C     1.17657   0.78448   0.15672
C     0.07897   0.00162   0.00452
C    -1.27679   0.49341   0.14252
C    -2.42327  -0.21798  -0.00282
C    -3.76333   0.43798   0.17558
C    -2.47820  -1.67987  -0.34486
H     4.61873   0.92038   0.10778
H     3.37163   2.27376   0.43564
H     2.40797  -1.77222   0.46800
H     2.36943  -1.38948  -1.25731
H     3.91385  -1.30211  -0.36685
H     1.03285   1.84497   0.39651
H     0.21451  -1.05661  -0.23481
H    -1.37061   1.55754   0.39104
H    -4.34051  -0.06201   0.97414
H    -3.67447   1.50514   0.42667
H    -4.37024   0.34437  -0.74297
H    -3.06052  -1.83316  -1.27061
H    -1.49103  -2.13929  -0.48265
H    -3.01007  -2.23779   0.44609
