36
Generated by autodE on: 2022-07-27. E = -1049.113552 Ha
C     1.71657   3.53663  -2.39944
O     1.20041   2.46157  -1.61109
C     2.07671   1.83811  -0.77469
O     3.23238   2.21864  -0.66164
C     1.44593   0.71750  -0.09807
N     0.14180   0.45579  -0.47614
C    -0.82039  -0.26029   0.06357
C    -0.71726  -0.66608   1.50435
O    -0.39784   0.11159   2.37899
O    -1.11395  -1.91488   1.70431
C    -1.08782  -2.38557   3.06222
C    -2.04408  -0.51109  -0.69542
C    -2.02800  -0.51099  -2.10697
C    -3.20610  -0.70250  -2.82627
C    -4.41595  -0.90815  -2.15524
C    -4.44140  -0.92207  -0.75612
C    -3.26950  -0.72878  -0.02888
C     2.14284  -0.24320   0.72988
O     1.66772  -1.32780   1.06668
O     3.38239   0.12642   1.09109
C     4.13007  -0.82315   1.85836
H     0.87527   3.90315  -2.99965
H     2.52499   3.18625  -3.05835
H     2.09838   4.34202  -1.75506
H    -0.10709   0.92831  -1.35245
H    -1.43803  -3.42295   3.02714
H    -1.75327  -1.77693   3.69063
H    -0.06189  -2.33876   3.45366
H    -1.08681  -0.39367  -2.64857
H    -3.17588  -0.70777  -3.91790
H    -5.33658  -1.06600  -2.72132
H    -5.38327  -1.08095  -0.22675
H    -3.30969  -0.72792   1.06117
H     5.09631  -0.34711   2.06380
H     4.28196  -1.75364   1.29168
H     3.61468  -1.05461   2.80218
