59
Generated by autodE on: 2022-06-25. E = -1400.606372 Ha. Imaginary frequency = -335.2 cm-1
C     1.32200   3.12964  -0.66395
C     1.67397   2.38838   0.40886
C     2.91090   2.71603   1.20738
C     0.88419   1.25779   0.91828
C    -0.43500   0.97153   0.50074
C    -1.53411   0.82415   1.45383
C    -2.83369   1.12460   1.22121
C    -3.86961   0.90000   2.28844
C    -3.36976   1.71291  -0.05382
C    -0.27710  -1.04235  -0.32738
C    -0.18847  -1.91673   0.92421
O     0.03997  -1.54849   2.05296
O    -0.41581  -3.18807   0.59529
C    -0.33575  -4.15139   1.65773
C    -1.53736  -1.14401  -1.09171
C    -1.64146  -0.67485  -2.41626
C    -2.86446  -0.68714  -3.08350
C    -4.01615  -1.15766  -2.44180
C    -3.93013  -1.61353  -1.12444
C    -2.70710  -1.60291  -0.45352
N     0.89053  -0.86276  -1.01188
C     2.07303  -0.43195  -0.44047
C     2.92549   0.39112  -1.30747
O     4.06482   0.75375  -1.06652
O     2.28519   0.74233  -2.44150
C     3.00836   1.56094  -3.36768
C     2.70396  -1.26857   0.59573
O     2.41798  -2.44250   0.78037
O     3.63077  -0.63481   1.32064
C     4.31301  -1.41536   2.31111
H     0.41736   2.93165  -1.24298
H     1.94938   3.96136  -0.99418
H     2.63331   3.02698   2.22960
H     3.48885   3.52812   0.74394
H     3.55661   1.83261   1.30816
H     1.18096   0.89734   1.90737
H    -0.71895   1.41156  -0.45765
H    -1.26781   0.44308   2.44185
H    -3.43144   0.50123   3.21548
H    -4.40671   1.83505   2.52888
H    -4.63657   0.18702   1.93474
H    -2.60981   1.84312  -0.83416
H    -3.82672   2.69832   0.14880
H    -4.17189   1.07894  -0.46668
H    -0.55290  -5.12280   1.19941
H     0.67367  -4.14762   2.09177
H    -1.07594  -3.92203   2.43751
H    -0.77126  -0.27987  -2.94482
H    -2.91903  -0.32204  -4.11140
H    -4.97391  -1.16469  -2.96673
H    -4.82221  -1.97451  -0.60806
H    -2.67108  -1.95531   0.57679
H     0.76820  -0.47975  -1.94768
H     2.31216   1.77654  -4.18634
H     3.88857   1.02369  -3.74989
H     3.32809   2.49449  -2.88505
H     5.03457  -0.73762   2.78161
H     4.83549  -2.26323   1.84525
H     3.60102  -1.79183   3.05958
