60
Generated by autodE on: 2022-06-14. E = -6610.980350 Ha
C     5.59606 -13.75113  -2.79313
O     5.15271 -12.53880  -2.16280
C     4.68168 -12.64395  -0.92065
O     4.55909 -13.69397  -0.33348
C     4.38209 -11.23861  -0.34311
C     3.29870 -11.30790   0.74547
O     2.43274 -12.15140   0.81503
O     3.36311 -10.24160   1.53610
C     2.37954 -10.12550   2.57169
N     3.90672 -10.30320  -1.34776
C     4.97733  -9.38689  -1.75511
C     4.47168  -7.95397  -1.80737
C     4.72598  -7.13779  -2.91330
C     4.27419  -5.81382  -2.93763
C     3.55704  -5.29956  -1.85499
C     3.28049  -6.11977  -0.75339
C     3.73128  -7.43858  -0.73324
C     6.08616  -9.64902  -0.72599
C     5.71051 -10.63194   0.12256
C     6.41943 -11.28856   1.29781
F     5.43900 -12.12273   1.93004
C     6.80539 -10.32090   2.41846
C     6.12605  -9.10327   2.57398
C     6.41530  -8.25577   3.64514
C     7.38090  -8.61642   4.58759
C     8.04793  -9.83787   4.45418
C     7.75923 -10.68437   3.38167
C     7.49625 -12.28711   0.80197
C     8.26478 -11.95001  -0.47566
C     9.20899 -10.75519  -0.38965
C     8.60159  -9.40577   0.00539
C     7.39304  -8.89797  -0.77740
Br    7.11186  -7.00927  -0.13775
Br    7.97561  -8.76336  -2.70221
H     6.41457 -14.20021  -2.21261
H     4.76462 -14.46519  -2.87396
H     5.94897 -13.45994  -3.78858
H     1.37238 -10.04419   2.13841
H     2.42634 -10.99828   3.23854
H     2.63185  -9.21290   3.12360
H     3.49882 -10.77990  -2.14642
H     5.36212  -9.65122  -2.75276
H     5.29030  -7.53621  -3.75885
H     4.48165  -5.18486  -3.80698
H     3.20461  -4.26520  -1.87127
H     2.71225  -5.72548   0.09289
H     3.51663  -8.08219   0.12185
H     5.37250  -8.80480   1.84919
H     5.88444  -7.30552   3.73650
H     7.61174  -7.95164   5.42327
H     8.79986 -10.13627   5.18827
H     8.29193 -11.63188   3.30442
H     8.20396 -12.49344   1.61514
H     6.94552 -13.22143   0.62977
H     8.86622 -12.83808  -0.72710
H     7.56490 -11.82319  -1.31476
H     9.72615 -10.64628  -1.35522
H     9.99063 -10.96509   0.35960
H     8.31892  -9.40813   1.06366
H     9.38298  -8.63971  -0.08717
