30
Generated by autodE on: 2022-07-27. E = -821.134366 Ha
C     1.82805  -4.24754  -1.23571
O     1.31469  -2.91719  -1.16579
C     0.41681  -2.66165  -0.16720
O     0.11638  -3.52436   0.65128
C    -0.08811  -1.31308  -0.24129
N     0.35999  -0.54778  -1.32645
C     0.54223   0.73521  -1.51620
C     0.50591   1.83234  -0.57365
C     0.59656   1.68905   0.82932
C     0.63280   2.81461   1.64635
C     0.55620   4.09854   1.09062
C     0.47324   4.25485  -0.29662
C     0.46367   3.13279  -1.12225
C    -1.15944  -0.87186   0.61889
O    -1.51440  -1.40318   1.66724
O    -1.79286   0.22471   0.13474
C    -2.77554   0.82569   0.97746
H     2.36565  -4.50942  -0.31211
H     1.01937  -4.97620  -1.39824
H     2.51998  -4.26263  -2.08680
H     0.62815  -1.12505  -2.12821
H     0.80121   0.98918  -2.54689
H     0.66485   0.70113   1.28296
H     0.71351   2.69141   2.72842
H     0.56659   4.97620   1.74090
H     0.42329   5.25367  -0.73520
H     0.41627   3.25035  -2.20733
H    -3.10962   1.73076   0.45554
H    -2.34366   1.09559   1.95263
H    -3.62795   0.14817   1.13531
