60
Generated by autodE on: 2022-06-14. E = -6610.890155 Ha. Imaginary frequency = -296.5 cm-1
C     5.55519 -14.33299  -1.96368
O     5.13827 -12.98225  -1.73950
C     4.36805 -12.75620  -0.65406
O     4.01238 -13.64743   0.09549
C     4.03526 -11.32746  -0.52831
C     3.14526 -10.94800   0.57815
O     3.21266 -11.38820   1.71312
O     2.20156 -10.07309   0.19496
C     1.34229  -9.56086   1.22074
N     4.10331 -10.59903  -1.69152
C     4.43159  -9.30883  -1.85714
C     4.07531  -8.13523  -1.04060
C     3.66259  -6.99474  -1.75577
C     3.32904  -5.81273  -1.09406
C     3.42591  -5.74081   0.29807
C     3.85674  -6.86062   1.01967
C     4.17527  -8.04425   0.36052
C     6.51559  -9.72650  -0.97974
C     6.29654 -10.49284  -0.02181
C     6.83108 -11.15384   1.18689
F     6.28922 -12.44942   1.28284
C     6.45306 -10.37339   2.44001
C     6.72803  -8.99994   2.51199
C     6.37631  -8.26901   3.64788
C     5.74963  -8.90506   4.72545
C     5.48166 -10.27470   4.65837
C     5.83106 -11.00819   3.51981
C     8.35657 -11.33967   1.04788
C     8.79472 -11.82190  -0.34707
C     9.51272 -10.76850  -1.20968
C     8.97045  -9.33295  -1.26382
C     7.54876  -9.10854  -1.79008
Br    7.27029  -7.12418  -1.88408
Br    7.41655  -9.81746  -3.67112
H     6.15085 -14.69064  -1.11137
H     4.68617 -14.99169  -2.10581
H     6.16866 -14.31265  -2.87186
H     0.69592 -10.35997   1.61220
H     1.93118  -9.13210   2.04347
H     0.73544  -8.78213   0.74470
H     4.38936 -11.17425  -2.48514
H     4.60619  -9.07100  -2.90878
H     3.60557  -7.04100  -2.84553
H     3.00270  -4.94326  -1.66911
H     3.17549  -4.81429   0.82006
H     3.95452  -6.81281   2.10657
H     4.53535  -8.88381   0.94779
H     7.20168  -8.49557   1.66745
H     6.58749  -7.19802   3.68850
H     5.46991  -8.33311   5.61325
H     4.99153 -10.77867   5.49478
H     5.60473 -12.07223   3.46121
H     8.63877 -12.05752   1.83297
H     8.84227 -10.38862   1.30768
H     9.48750 -12.66993  -0.23517
H     7.92386 -12.22639  -0.88606
H     9.60818 -11.15705  -2.23575
H    10.54296 -10.65929  -0.83102
H     9.65492  -8.73270  -1.88041
H     8.98453  -8.88699  -0.25671
