34
Generated by autodE on: 2022-05-31. E = -1751.141794 Ha
C    -3.46757  -1.54487  -0.71340
C    -2.45465  -1.75465   0.35837
O    -2.42271  -2.68424   1.13454
C    -1.36608  -0.68139   0.50697
O    -1.37226  -0.20502   1.86459
C    -0.74585   1.00294   1.81322
O    -0.58465   1.72991   2.74539
C    -0.45864   1.21965   0.29572
C    -0.42309   2.70650  -0.05255
C    -1.48687   3.22682  -0.95859
O     0.44712   3.37310   0.46711
O    -1.56687   0.48634  -0.24672
C     0.75716   0.30645  -0.13062
C     1.18348   0.64374  -1.56517
F     1.78577   1.84780  -1.59152
F     2.05213  -0.23404  -2.07396
F     0.13784   0.70541  -2.40430
C     1.94675   0.25284   0.89682
C     2.94217  -0.80621   0.43918
C     2.35408  -1.98327   0.68147
C     0.99773  -1.64378   1.28383
O     1.28843  -0.42016   1.97524
C     0.09521  -1.10087   0.12734
Cl    0.01171  -2.24368  -1.25729
H    -2.96594  -1.37298  -1.67841
H    -4.03957  -0.62953  -0.48557
H    -4.13953  -2.40986  -0.77050
H    -1.45927   2.68591  -1.91745
H    -2.47293   3.02505  -0.50863
H    -1.34972   4.30341  -1.11758
H     2.32060   1.23597   1.19828
H     3.89608  -0.60029  -0.04303
H     2.70400  -2.98717   0.44782
H     0.50193  -2.37547   1.92869
