18
Generated by autodE on: 2022-05-31. E = -646.741364 Ha
C     2.71209   1.94367  -0.21683
C     2.55944   0.46100  -0.15268
O     3.45528  -0.35672  -0.16812
C     1.15192  -0.06092  -0.05640
O     0.85102  -1.30633   0.02598
C    -0.66605  -1.40593   0.10681
O    -1.17501  -2.48668   0.19261
C    -1.02594  -0.04826   0.04751
C    -2.33015   0.57240   0.08521
C    -2.38012   2.07556   0.00929
O    -3.33900  -0.12848   0.17764
O     0.12538   0.72220  -0.04960
H     2.15701   2.33976  -1.08292
H     3.77584   2.19807  -0.29566
H     2.27459   2.40212   0.68536
H    -1.91151   2.42748  -0.92388
H    -1.81534   2.52006   0.84458
H    -3.42604   2.40508   0.04923
