25
Generated by autodE on: 2022-06-24. E = -610.379011 Ha
C     3.01767  -0.73134   0.48357
C     1.64780  -1.05688  -0.05890
O     1.38653  -2.22189  -0.40800
C     0.64154  -0.01943  -0.16153
C     0.79766   1.36786   0.21733
C    -0.21740   2.40499  -0.24388
O     1.77979   1.77085   0.86166
N    -0.57776  -0.43570  -0.75543
C    -0.57265  -0.98151  -2.12286
C    -1.72874  -0.23152  -0.15884
C    -3.04366  -0.37640  -0.84205
C    -1.71430   0.13995   1.22372
N    -1.80886   0.39447   2.35505
H     3.64302  -1.63061   0.39723
H     3.47854   0.10731  -0.05811
H     2.95340  -0.42315   1.53763
H     0.35475   3.29079  -0.55568
H    -0.85001   2.71211   0.60425
H    -0.86530   2.08873  -1.07190
H     0.46172  -1.09405  -2.45144
H    -1.09212  -0.26742  -2.77943
H    -1.09241  -1.94744  -2.15179
H    -3.17028  -1.40876  -1.20641
H    -3.08750   0.29378  -1.71679
H    -3.86244  -0.13390  -0.15592
