26
Generated by autodE on: 2022-06-24. E = -689.460841 Ha
C    -2.40770  -2.38773   0.16057
O    -1.05365  -2.18088  -0.25522
C    -0.42311  -1.01711  -0.09909
C    -0.85281   0.12071   0.51631
O    -2.05994   0.21691   1.14709
C    -3.04513   1.02599   0.49587
C     0.03118   1.30328   0.59907
O    -0.35118   2.30324   1.20422
C     1.38144   1.26858  -0.04012
C     2.21825   2.50619   0.03755
C     1.82271   0.13904  -0.64722
C     3.17618   0.05055  -1.28194
C     0.95772  -1.06749  -0.69781
O     1.33330  -2.10468  -1.22673
H    -2.64496  -3.41834  -0.13231
H    -3.08738  -1.69416  -0.35487
H    -2.50965  -2.27620   1.24763
H    -3.94345   0.99332   1.12653
H    -2.70678   2.06781   0.39632
H    -3.28390   0.61961  -0.50105
H     3.16588   2.30262   0.56366
H     1.68944   3.31058   0.56189
H     2.48998   2.85577  -0.97220
H     3.34502  -0.93987  -1.72070
H     3.28627   0.81149  -2.07207
H     3.96826   0.24898  -0.54116
