51
Generated by autodE on: 2022-06-24. E = -1299.811085 Ha. Imaginary frequency = -411.1 cm-1
C     1.79392   3.26262   0.61967
O     0.70984   2.63150  -0.06883
C     0.80283   1.26151  -0.21889
C     1.92098   0.79744  -1.10606
O     2.42591   1.58405  -1.89965
C     2.33806  -0.62451  -1.03984
C     3.18021  -1.15113  -2.16009
C     1.97251  -1.39926   0.01412
C     2.39716  -2.83014   0.11551
C     1.19774  -0.83712   1.16083
O     1.13324  -1.44952   2.22746
C     0.57526   0.48831   0.98672
O     0.12487   1.22448   2.00225
C     0.36174   0.93610   3.38799
C    -1.63344  -0.47004   0.24475
C    -2.10041  -0.55522   1.63929
C    -2.09699  -1.90233   2.32206
O    -2.43831   0.45093   2.26694
C    -1.49487  -1.77618  -0.49130
C    -2.51160  -2.04238  -1.57725
O    -0.71970  -2.64838  -0.13174
N    -1.81336   0.68278  -0.50527
C    -2.73350   1.75606  -0.09894
C    -0.82339   1.00426  -1.43022
C    -0.94371   2.27988  -2.23095
C    -0.37231  -0.07480  -2.29478
N     0.01234  -0.84331  -3.07553
H     1.97053   2.80305   1.60410
H     1.50120   4.31171   0.75973
H     2.71790   3.22113   0.02295
H     4.16009  -1.49199  -1.78669
H     3.34595  -0.38228  -2.92398
H     2.69705  -2.02225  -2.62968
H     2.03259  -3.39805  -0.75513
H     3.49673  -2.91242   0.11053
H     2.01494  -3.29464   1.03106
H    -0.17677   0.04321   3.71997
H    -0.01041   1.81914   3.92227
H     1.43824   0.81644   3.57360
H    -2.53497  -1.77578   3.32034
H    -2.67345  -2.65002   1.75690
H    -1.06995  -2.28255   2.42059
H    -3.39515  -2.47022  -1.07073
H    -2.11800  -2.78453  -2.28418
H    -2.84202  -1.13994  -2.10482
H    -3.57938   1.31608   0.43181
H    -3.10887   2.24996  -1.00260
H    -2.24169   2.49419   0.54800
H    -1.08964   3.14629  -1.57944
H    -1.78231   2.20272  -2.94139
H    -0.01738   2.42545  -2.80132
