16
Generated by autodE on: 2022-05-29. E = -380.198692 Ha
C    -2.25590  -0.76025   1.74560
N    -1.63214  -0.24356   0.83615
C    -0.85222   0.34502  -0.00008
C    -1.33777   1.49166  -0.84157
C     0.53845  -0.18354  -0.05303
O     0.91549  -1.11424   0.67521
N     1.36165   0.41587  -0.94078
C     2.74366   0.00471  -1.08222
H    -2.87535  -1.65428   1.55735
H    -2.38713   1.71836  -0.61198
H    -1.26232   1.25685  -1.91665
H    -0.73794   2.39854  -0.65591
H     1.02065   1.18276  -1.50863
H     3.30794   0.15720  -0.14768
H     3.21156   0.59897  -1.87647
H     2.81735  -1.06189  -1.34791
