23
Generated by autodE on: 2022-05-29. E = -517.871724 Ha
C     2.45746  -1.65388   0.59040
C     1.81348  -0.30526   0.44343
O     2.35480   0.72589   0.82773
C     0.47647  -0.26213  -0.19503
C    -0.36260   0.81068  -0.20771
C    -0.15184   2.08930   0.36726
N    -0.05580   3.16453   0.80624
C    -1.69007   0.35407  -0.79743
C    -2.32053  -0.57619   0.29077
C    -1.36702  -1.80239   0.29826
C    -0.29999  -1.42472  -0.78391
C    -1.18039  -0.68729  -1.81466
H     1.77955  -2.34251   1.12046
H     2.63557  -2.08966  -0.40666
H     3.40725  -1.56334   1.13256
H    -2.34421   1.15693  -1.15518
H    -2.38853  -0.07226   1.26473
H    -3.33753  -0.85704  -0.01873
H    -0.90439  -1.98507   1.27803
H    -1.88872  -2.72066  -0.00757
H     0.30436  -2.26538  -1.14068
H    -1.98584  -1.31518  -2.22292
H    -0.60060  -0.24008  -2.63509
