39
Generated by autodE on: 2022-05-29. E = -898.071196 Ha. Imaginary frequency = -282.8 cm-1
C     3.90896   2.06836   0.13417
N     3.21816   0.79924   0.24562
C     2.38621   0.36872  -0.72609
O     2.22693   0.97808  -1.79353
C     1.66800  -0.90224  -0.42904
C     2.17478  -1.89967   0.56114
N     0.70451  -1.22824  -1.24664
C    -0.46452  -1.28163  -1.56341
C    -1.56944  -0.38991   0.03886
C    -1.97504  -1.76835   0.43333
C    -3.25185  -2.31571  -0.14566
O    -1.28805  -2.42919   1.20715
C    -2.49144   0.63217  -0.65285
C    -1.68944   1.43231  -1.71441
C    -0.69384   2.26528  -0.85911
C    -1.06241   1.85643   0.59042
C    -2.59953   1.69939   0.46485
C    -0.69459   0.38476   0.83050
C     0.04687  -0.01129   1.95137
N     0.67539  -0.25098   2.91316
H     3.21880   2.92250   0.24395
H     4.39774   2.15113  -0.84671
H     4.67231   2.12986   0.91984
H     3.19970   0.33782   1.14944
H     3.20793  -2.20193   0.32499
H     2.17052  -1.45946   1.57443
H     1.52688  -2.78462   0.58321
H    -0.93216  -1.72576  -2.44901
H    -3.26613  -2.20844  -1.24102
H    -3.36400  -3.37126   0.13326
H    -4.10703  -1.73984   0.24512
H    -3.42906   0.21004  -1.03016
H    -1.18344   0.78479  -2.44427
H    -2.37855   2.08031  -2.27564
H    -0.85984   3.34513  -0.99146
H     0.35204   2.05358  -1.10357
H    -0.68720   2.53549   1.36579
H    -3.10865   2.61944   0.13499
H    -3.07132   1.32041   1.38297
