12
Generated by autodE on: 2022-06-17. E = -157.300302 Ha
C     1.95657   0.15503  -0.07445
C     0.49310   0.44977   0.05713
C    -0.49309  -0.44978  -0.05706
C    -1.95658  -0.15502   0.07440
H     2.14156  -0.91134  -0.27871
H     2.50444   0.42880   0.84476
H     2.41206   0.74487  -0.88975
H     0.22569   1.49557   0.26384
H    -0.22568  -1.49559  -0.26374
H    -2.41231  -0.74539   0.88918
H    -2.14153   0.91123   0.27931
H    -2.50424  -0.42811  -0.84513
