27
Generated by autodE on: 2022-07-27. E = -649.494728 Ha
C    -4.31643   0.37895  -1.14939
C    -3.17735   0.07947  -0.19163
O    -3.41047  -0.08546   1.02077
C    -1.86187   0.02457  -0.76069
C    -1.63768   0.37301  -2.10331
N    -1.45920   0.65859  -3.22601
N    -0.71633  -0.24420   0.04571
C    -0.86723  -1.26258   1.10273
C     0.44417   0.30020  -0.22897
C     1.73961   0.10346   0.39224
C     2.85265   0.43643  -0.41687
C     4.15135   0.29925   0.06272
C     4.36863  -0.14349   1.37241
C     3.27850  -0.43887   2.19772
C     1.97448  -0.32132   1.72063
H    -4.28469  -0.26313  -2.04264
H    -5.26840   0.23008  -0.62269
H    -4.26249   1.42439  -1.49473
H     0.03588  -1.88333   1.11931
H    -1.73393  -1.88314   0.86801
H    -1.01636  -0.78803   2.07899
H     0.43666   0.98081  -1.08402
H     2.68082   0.79436  -1.43452
H     4.99751   0.54595  -0.58190
H     5.38687  -0.24436   1.75467
H     3.44424  -0.75811   3.22880
H     1.14872  -0.52090   2.39874
