39
Generated by autodE on: 2022-06-17. E = -806.777213 Ha. Imaginary frequency = -465.8 cm-1
C    -4.12563  -0.21859  -1.17072
C    -2.97888  -0.70426  -0.30939
O    -3.20339  -1.26763   0.76792
C    -1.63805  -0.41045  -0.79194
C    -1.50772   0.13133  -2.10083
N    -1.39919   0.59018  -3.16980
C    -1.36522   1.82292   0.24472
C    -2.22174   1.61888   1.45298
C     0.03650   1.78975   0.32333
C     0.85382   2.68221  -0.58691
C     0.62157  -0.04239  -0.33718
C     1.93874  -0.34456   0.26696
C     3.06980  -0.36601  -0.56867
C     4.34316  -0.59562  -0.04266
C     4.50683  -0.79293   1.33129
C     3.39147  -0.75253   2.17609
C     2.11900  -0.52658   1.65143
N    -0.46692  -0.86345  -0.17966
C    -0.50469  -1.93192   0.81995
H    -4.14344  -0.75452  -2.13325
H    -5.06839  -0.39796  -0.63825
H    -4.02959   0.85466  -1.39608
H    -1.82336   2.31530  -0.61855
H    -3.28604   1.50592   1.20681
H    -2.12991   2.49415   2.12367
H    -1.90263   0.73847   2.03293
H     0.43314   1.67061   1.33884
H     0.85453   3.72252  -0.22072
H     1.90366   2.35410  -0.64617
H     0.43897   2.68659  -1.60724
H     0.71034   0.34038  -1.35641
H     2.94246  -0.20557  -1.64186
H     5.20945  -0.61671  -0.70787
H     5.50217  -0.96876   1.74600
H     3.51538  -0.89090   3.25263
H     1.26219  -0.47087   2.32402
H     0.48373  -2.40416   0.85979
H    -1.23853  -2.68203   0.51268
H    -0.77184  -1.56883   1.82138
