33
Generated by autodE on: 2022-06-17. E = -744.398263 Ha
C     1.48046   3.41203  -0.84598
C     0.28850   2.85664  -0.59610
C    -0.95937   3.19509  -1.36277
C     0.08862   1.80871   0.47280
N     1.26856   1.60454   1.33993
N     1.58714   0.40700   1.40520
N     0.76362  -0.38354   0.64690
C     1.02952  -1.71391   0.40070
O     0.40490  -2.35969  -0.42075
O     2.02007  -2.18613   1.15757
C     2.36378  -3.56524   0.95457
C    -0.24949   0.40010  -0.09270
C    -1.65138  -0.04670   0.18191
C    -2.51489  -0.57228  -0.70533
C    -2.19995  -0.83949  -2.15085
C    -3.90886  -0.95060  -0.28490
H     2.37165   3.14287  -0.27516
H     1.59269   4.16150  -1.63483
H    -0.76504   3.95838  -2.12950
H    -1.37436   2.30134  -1.85992
H    -1.74598   3.56615  -0.68367
H    -0.72423   2.14604   1.13878
H     1.50678  -4.21408   1.18541
H     3.18986  -3.77009   1.64514
H     2.68582  -3.73436  -0.08291
H    -0.00996   0.34535  -1.16213
H    -1.97798   0.09342   1.21876
H    -2.89704  -0.28477  -2.80217
H    -2.35106  -1.90981  -2.37356
H    -1.17470  -0.57641  -2.43787
H    -4.65755  -0.40486  -0.88544
H    -4.08970  -2.02454  -0.46643
H    -4.09347  -0.73971   0.77855
