23
Generated by autodE on: 2022-06-17. E = -351.519934 Ha
C     3.73622  -0.40583   0.33984
C     2.56055   0.21596   0.09830
C     2.51012   1.66797  -0.30285
C     1.30544  -0.52167   0.22597
C     0.06486  -0.01440   0.01276
C    -1.15513  -0.78168   0.15097
C    -2.40899  -0.30890  -0.05994
C    -2.68053   1.11624  -0.48077
C    -3.61017  -1.19381   0.10218
H     4.68955   0.12231   0.25195
H     3.76890  -1.45996   0.63142
H     3.51877   2.10036  -0.36204
H     1.92138   2.25952   0.41789
H     2.02167   1.79349  -1.28346
H     1.39617  -1.57416   0.52016
H    -0.03382   1.03426  -0.28218
H    -1.03994  -1.83051   0.44861
H    -2.31055   1.31309  -1.50151
H    -3.75835   1.33381  -0.47420
H    -2.18675   1.84454   0.18247
H    -4.29821  -0.78434   0.86381
H    -3.33772  -2.21901   0.39293
H    -4.19244  -1.23897  -0.83610
