33
Generated by autodE on: 2022-06-17. E = -744.338932 Ha. Imaginary frequency = -429.1 cm-1
C     0.99405   2.81559  -1.84250
C     0.24516   3.08356  -0.75668
C     0.16943   4.46474  -0.16172
C    -0.53204   2.05246  -0.02914
N     0.87123   1.62107   1.44043
N     1.29179   0.56838   1.13584
N     1.04921  -0.21084   0.14028
C     1.25881  -1.56963   0.25383
O     0.94056  -2.33280  -0.64091
O     1.81009  -1.95607   1.41340
C     2.03519  -3.36482   1.56574
C    -0.85246   0.79414  -0.57347
C    -1.86332  -0.04858   0.01979
C    -2.40296  -1.16372  -0.53891
C    -2.03147  -1.70091  -1.88908
C    -3.45315  -1.94763   0.19037
H     1.07152   1.81165  -2.26713
H     1.56172   3.60817  -2.33751
H     0.77761   5.18690  -0.72465
H    -0.87338   4.82477  -0.13950
H     0.51910   4.45219   0.88460
H    -1.20613   2.42592   0.74590
H     1.08430  -3.91501   1.51819
H     2.49447  -3.48898   2.55344
H     2.71352  -3.73540   0.78365
H    -0.52620   0.56920  -1.58778
H    -2.21304   0.25057   1.01377
H    -1.21760  -1.15162  -2.37717
H    -2.91325  -1.68390  -2.55355
H    -1.72939  -2.75780  -1.80169
H    -4.37260  -2.02327  -0.41651
H    -3.11027  -2.98429   0.35672
H    -3.70732  -1.50153   1.16250
