12
Generated by autodE on: 2022-06-16. E = -157.300302 Ha
C     1.96090  -0.06913   0.08849
C     0.52316  -0.35204  -0.22595
C    -0.52316   0.35205   0.22594
C    -1.96090   0.06912  -0.08849
H     2.06945   0.80071   0.75535
H     2.54018   0.12889  -0.83095
H     2.44302  -0.93635   0.57375
H     0.33053  -1.21075  -0.88433
H    -0.33053   1.21074   0.88434
H    -2.06946  -0.80080  -0.75523
H    -2.44298   0.93629  -0.57388
H    -2.54021  -0.12875   0.83097
