28
Generated by autodE on: 2022-06-16. E = -703.797377 Ha. Imaginary frequency = -141.2 cm-1
C     3.06551   1.32693  -1.43204
N     2.32140   0.56181  -0.44882
C     1.59658  -0.51313  -0.79551
O     1.62890  -1.03627  -1.91217
C     0.79883  -1.16210   0.29919
O     0.22872  -0.58139   1.30394
C    -0.40943   0.61509   1.40315
C    -0.20539   1.70599   0.54709
N    -0.06644   2.63697  -0.14896
C    -1.30191   0.69658   2.48730
N    -2.05824   0.77284   3.37548
C    -1.73877  -0.52499  -1.10415
C    -1.36950   0.27099  -2.30775
C    -1.29014  -1.77685  -0.81349
C    -1.85205  -2.60494   0.30595
H     3.74959   2.00652  -0.91019
H     2.38456   1.92038  -2.06460
H     3.64605   0.65573  -2.08010
H     2.27182   0.92429   0.49803
H     1.00585  -2.21954   0.48207
H    -2.48016  -0.07822  -0.43093
H    -0.97476   1.26127  -2.01983
H    -0.62593  -0.24037  -2.93310
H    -2.27032   0.47009  -2.91538
H    -0.64610  -2.28133  -1.54185
H    -1.08485  -3.22787   0.79052
H    -2.61768  -3.29640  -0.08786
H    -2.32999  -1.97589   1.07262
