33
Generated by autodE on: 2022-10-06. E = -1192.797471 Ha
C    -4.69871   0.28427   1.53400
N    -3.41973  -0.02338   0.92775
C    -2.36721   0.77075   1.10513
O    -2.35864   1.79262   1.80471
C    -1.08928   0.37282   0.36887
N     0.09317   0.75075   1.08329
C     1.01645   0.53165  -0.03961
C     2.37760   1.17747   0.17350
O     2.40275   2.35422   0.56473
N     3.45982   0.46305  -0.13390
C     4.78848   1.01623   0.03790
C     0.27849   1.25680  -1.19138
O     0.72098   1.76750  -2.19128
O    -1.03266   1.19728  -0.89185
C     0.75519  -0.98386  -0.34013
C     1.58171  -1.98323   0.51389
O     1.02457  -2.58852   1.45285
O     2.78851  -2.14044   0.15469
C    -0.77219  -1.06650  -0.09257
C    -1.60907  -1.53684  -1.30569
O    -2.84159  -1.74035  -1.08290
O    -1.04135  -1.69087  -2.40722
H    -4.60230   0.38875   2.62586
H    -5.11723   1.22693   1.14339
H    -5.40171  -0.52971   1.31739
H    -3.32557  -0.79216   0.22738
H     0.04521   1.74055   1.33785
H     3.33696  -0.56516  -0.22431
H     4.88262   1.97523  -0.49310
H     5.52420   0.31169  -0.37012
H     5.02403   1.19641   1.10057
H     0.98298  -1.19505  -1.39107
H    -0.96070  -1.74398   0.74919
