23
Generated by autodE on: 2022-10-06. E = -737.711902 Ha
C     4.90781   0.26351  -0.31782
N     3.48285   0.52639  -0.38554
C     2.58869  -0.37239   0.04708
O     2.86188  -1.47588   0.52871
C     1.16946   0.02885  -0.07716
N     0.15450  -0.71387   0.29750
C    -1.03434  -0.05816   0.06362
C    -2.32091  -0.66001   0.39568
O    -2.38646  -1.79024   0.90815
N    -3.40690   0.08857   0.10925
C    -4.74771  -0.37748   0.39588
C    -0.71360   1.19509  -0.50348
O    -1.33992   2.16136  -0.90001
O     0.73514   1.18472  -0.56726
H     5.44395   1.11067  -0.76039
H     5.16422  -0.65302  -0.87114
H     5.23739   0.13600   0.72532
H     3.15218   1.40884  -0.76571
H     0.24048  -1.64567   0.70895
H    -3.26834   1.00819  -0.30092
H    -4.95441  -1.33536  -0.10740
H    -4.90394  -0.52528   1.47712
H    -5.46610   0.36950   0.03712
