33
Generated by autodE on: 2022-10-06. E = -1192.750104 Ha. Imaginary frequency = -461.0 cm-1
C    -4.81564   0.77323   0.49972
N    -3.42851   0.99767   0.14005
C    -2.42452   0.60786   0.93915
O    -2.54365   0.24215   2.11143
C    -1.07194   0.58719   0.30728
N     0.05376   0.88823   1.02892
C     1.06618   0.95102   0.10293
C     2.48295   1.06342   0.48002
O     2.83549   1.00176   1.66556
N     3.34253   1.19695  -0.55032
C     4.77169   1.06702  -0.35447
C     0.46155   1.24297  -1.17137
O     0.91358   1.52927  -2.26441
O    -0.91080   1.13780  -0.94324
C     0.62411  -1.38922  -0.37754
C     1.60436  -1.73408   0.71368
O     1.19115  -1.62962   1.90717
O     2.76590  -2.07725   0.36368
C    -0.75162  -1.36298  -0.11121
C    -1.77721  -1.59966  -1.21589
O    -2.90970  -2.00114  -0.83309
O    -1.43061  -1.36220  -2.40124
H    -5.10304  -0.27448   0.30856
H    -4.96582   0.99025   1.56493
H    -5.45873   1.43442  -0.09464
H    -3.20936   1.16454  -0.83793
H     0.23015   0.37172   1.89818
H     2.96043   1.19146  -1.49305
H     5.12570   1.75712   0.42537
H     5.28498   1.30273  -1.29474
H     5.03704   0.04036  -0.05008
H     0.97828  -1.41679  -1.40981
H    -1.04950  -1.71800   0.87902
