34
Generated by autodE on: 2022-10-21. E = -3451.969795 Ha
C    -1.14490   2.91191  -0.08678
O    -2.03443   1.81053   0.07839
C    -1.56477   0.72662   0.81711
C    -0.75663   1.07089   2.03772
N     0.35274   0.46980   2.21078
C     0.64044  -0.40852   1.05222
C     0.82263  -1.76162   1.60739
N     0.98152  -2.81721   2.05952
C     1.94925   0.03115   0.38891
C     2.76314  -0.89738  -0.27232
C     3.92166  -0.47697  -0.92816
C     4.27881   0.87467  -0.92632
C     3.47209   1.80195  -0.26128
C     2.31256   1.38329   0.39623
C    -0.64291  -0.35679   0.10649
Br   -0.23648   0.02328  -1.76570
C    -1.56996  -1.61895   0.20334
C    -2.78584  -1.39883  -0.68446
C    -3.54322  -0.50306  -0.04128
C    -2.78225  -0.18099   1.23047
O    -2.10711  -1.41187   1.51681
H    -0.18182   2.60228  -0.51952
H    -1.63647   3.60721  -0.78033
H    -0.96203   3.43211   0.86815
H    -1.13359   1.78342   2.78051
H     2.49262  -1.95491  -0.28556
H     4.54733  -1.21065  -1.44142
H     5.18599   1.20343  -1.43854
H     3.74486   2.85964  -0.25040
H     1.69012   2.11505   0.91028
H    -1.05255  -2.57970   0.12111
H    -2.93400  -1.84577  -1.66590
H    -4.46496  -0.02218  -0.36484
H    -3.34057   0.18931   2.09679
