17
Generated by autodE on: 2022-10-21. E = -2995.673360 Ha
C     2.60896  -1.11678   0.06655
O     1.44320  -1.78301  -0.42573
C     0.29980  -1.10169  -0.50993
C    -0.14202   0.13874  -0.22489
Br    0.63883   1.64241   0.59710
C    -1.66582   0.07358  -0.49684
C    -2.29625  -0.84358   0.57836
C    -1.85097  -2.06862   0.28397
C    -0.96591  -1.86947  -0.96730
O    -1.67817  -0.81261  -1.63189
H     3.42421  -1.84936   0.01744
H     2.85640  -0.24818  -0.56221
H     2.46568  -0.79433   1.10848
H    -2.16021   1.02855  -0.70630
H    -2.91270  -0.50456   1.41035
H    -1.99632  -3.01323   0.80651
H    -0.78060  -2.73488  -1.61309
