31
Generated by autodE on: 2022-06-27. E = -801.227664 Ha
C     5.08244   0.63065   1.58074
N     3.75358   0.95429   1.11121
C     2.79415   0.01630   0.88132
O     2.96629  -1.21102   1.08888
C     1.53776   0.55459   0.37444
O     0.60817  -0.34216   0.19065
C    -0.65210  -0.37287  -0.16300
C    -1.22408  -1.74192  -0.10457
O    -2.40080  -1.98758  -0.49119
N    -0.40542  -2.70898   0.39019
C    -0.82705  -4.09207   0.44491
C    -1.39326   0.80813  -0.58639
C    -2.76301   0.94413  -0.26408
C    -3.47885   2.06721  -0.67287
C    -2.85372   3.07621  -1.41463
C    -1.50134   2.95079  -1.74715
C    -0.77458   1.83383  -1.33551
H     5.40214   1.34868   2.35034
H     5.82537   0.64815   0.76423
H     5.07388  -0.37593   2.01599
H     3.54725   1.91996   0.87552
H     1.33633   1.61013   0.19581
H     0.54474  -2.46561   0.65017
H    -0.03445  -4.68548   0.91680
H    -1.75041  -4.20375   1.03509
H    -1.02213  -4.50096  -0.56081
H    -3.25571   0.16439   0.31447
H    -4.53417   2.15897  -0.40556
H    -3.41836   3.95602  -1.73146
H    -1.00652   3.72707  -2.33526
H     0.27065   1.74629  -1.63335
