26
Generated by autodE on: 2022-06-27. E = -689.456661 Ha
C     2.60570  -0.76276  -2.16218
O     1.22470  -0.38555  -2.07860
C     0.64101  -0.15629  -0.88507
C    -0.66323  -0.52110  -0.71327
O    -1.28147  -1.20401  -1.69917
C    -2.65752  -0.94593  -2.00968
C    -1.32906  -0.31889   0.59669
O    -2.43538  -0.80832   0.80676
C    -0.61905   0.45174   1.65951
C    -1.35450   0.70328   2.93882
C     0.66198   0.85394   1.47356
C     1.42763   1.58459   2.53244
C     1.34026   0.62826   0.16334
O     2.44659   1.10912  -0.06407
H     2.69511  -1.37986  -3.06718
H     3.25351   0.11913  -2.25246
H     2.91078  -1.35738  -1.28853
H    -2.77183  -1.16108  -3.08139
H    -2.91711   0.10680  -1.82367
H    -3.32465  -1.59806  -1.43062
H    -2.38296   0.32742   2.88601
H    -0.84431   0.21264   3.78477
H    -1.37802   1.78096   3.16856
H     2.45108   1.80223   2.20555
H     0.93032   2.53592   2.78588
H     1.46720   0.99350   3.46180
