57
Generated by autodE on: 2022-06-27. E = -1490.703601 Ha. Imaginary frequency = -181.9 cm-1
C    -1.20558   4.73901   1.31181
N    -0.44673   3.52217   1.11204
C    -0.64048   2.44129   1.89318
O    -1.37355   2.44215   2.89484
C     0.04760   1.19982   1.51994
O     0.86458   1.22891   0.48588
C     1.52584   0.23700  -0.11215
C     2.10445  -0.88414   0.69385
O     2.37579  -1.97545   0.17986
N     2.35446  -0.63841   1.99714
C     2.91105  -1.66800   2.85511
C     1.87307   0.49158  -1.49245
C     1.34689   1.63395  -2.14848
C     1.62625   1.87690  -3.48864
C     2.42003   0.98589  -4.22003
C     2.94383  -0.14767  -3.58820
C     2.68298  -0.39634  -2.24351
C    -1.14606  -0.42957  -0.81580
O    -1.15852   0.28830  -1.94829
C    -1.11680  -0.29965  -3.25433
C    -0.56242  -1.77807  -0.71931
O    -0.03180  -2.32352  -1.69175
C    -0.67379  -2.48836   0.59238
C    -0.05523  -3.84952   0.68661
C    -1.31994  -1.93286   1.65137
C    -1.41420  -2.62462   2.97660
C    -2.03328  -0.63533   1.49789
O    -2.83556  -0.23223   2.34080
C    -1.76846   0.15568   0.28317
O    -2.48352   1.31074   0.11320
C    -3.78646   1.12707  -0.45059
H    -0.81107   5.51904   0.64933
H    -2.27510   4.58898   1.08624
H    -1.12466   5.08369   2.35366
H     0.14385   3.43430   0.29249
H     0.14917   0.42561   2.27752
H     2.26920   0.30146   2.36978
H     2.25861  -2.55427   2.86818
H     3.91034  -1.98396   2.51478
H     2.98966  -1.26991   3.87375
H     0.70050   2.31739  -1.60254
H     1.20824   2.76266  -3.97209
H     2.62786   1.17319  -5.27589
H     3.56568  -0.84819  -4.15024
H     3.09215  -1.28181  -1.76468
H    -0.10713  -0.63277  -3.51813
H    -1.81959  -1.14217  -3.32307
H    -1.43389   0.49946  -3.93680
H    -0.82891  -4.60967   0.88803
H     0.46365  -4.11429  -0.24093
H     0.66176  -3.89750   1.52055
H    -0.40664  -2.82176   3.37901
H    -1.91357  -3.60332   2.88253
H    -1.97281  -2.01740   3.69915
H    -4.23335   2.12612  -0.54082
H    -3.72420   0.66360  -1.44816
H    -4.41431   0.50473   0.20643
