57
Generated by autodE on: 2022-06-08. E = -1623.023825 Ha
C     4.33819  -2.38704   1.85823
O     3.37186  -1.75490   1.00507
C     3.82236  -0.81106   0.16974
O     4.98834  -0.47943   0.09338
C     2.70324  -0.27885  -0.63506
C     2.46119   0.94212  -1.16700
C     3.14456   2.25790  -1.11576
C     4.61180   2.35685  -0.83616
O     2.45113   3.25161  -1.31072
C     1.02533   0.85648  -1.68624
O     0.93552  -0.51584  -2.07144
C     1.40509  -1.06152  -0.84113
C     0.41256  -0.47217   0.21474
C     0.13099   0.92535  -0.40705
C    -1.41196   0.98290  -0.60775
C    -1.76467   1.68334  -1.94662
C    -1.78980   0.86222  -3.20192
O    -1.99727   2.87791  -1.94148
C    -2.08410   1.83396   0.50397
O    -3.21849   1.63793   0.88774
O    -1.31016   2.80007   0.98476
C    -1.86750   3.61700   2.02745
N    -1.82586  -0.41158  -0.58074
C    -3.23649  -0.76178  -0.70288
C    -0.97312  -1.15758   0.34009
C    -0.81557  -2.65916   0.03651
C    -1.05784  -3.15946  -1.35479
O    -0.42633  -3.38174   0.93664
C    -1.48845  -0.96985   1.78532
O    -1.07055  -0.12508   2.55236
O    -2.53397  -1.74740   2.04526
C    -3.22640  -1.51442   3.28423
H     5.10753  -2.88982   1.25495
H     3.77987  -3.11864   2.45287
H     4.81334  -1.64329   2.51382
H     5.18030   1.68450  -1.49466
H     4.93624   3.39728  -0.96659
H     4.81266   2.02844   0.19560
H     0.78006   1.53593  -2.50650
H     1.50778  -2.14868  -0.88481
H     0.88688  -0.43002   1.19786
H     0.45002   1.75916   0.21899
H    -2.81840   0.49149  -3.34685
H    -1.54072   1.50686  -4.05584
H    -1.12871  -0.00929  -3.15000
H    -2.77038   4.13073   1.66859
H    -2.11652   2.99440   2.89848
H    -1.09035   4.34446   2.28687
H    -3.33304  -1.78238  -1.09840
H    -3.80043  -0.69946   0.23886
H    -3.71749  -0.08451  -1.41918
H    -0.93065  -2.37283  -2.10764
H    -0.39720  -4.01453  -1.55258
H    -2.09931  -3.51870  -1.41344
H    -2.55167  -1.68166   4.13533
H    -3.60942  -0.48447   3.31020
H    -4.05412  -2.23196   3.30531
