33
Generated by autodE on: 2022-07-27. E = -934.710183 Ha
C    -1.32807   3.48184   1.12548
O    -0.64063   2.68564   0.14381
C    -0.89756   1.38265   0.14067
O    -1.68788   0.83005   0.87168
C    -0.16219   0.72523  -0.98720
C     0.09527   1.59896  -2.20688
C     1.44450   2.23672  -2.29069
O    -0.80757   1.76597  -3.00121
N     0.10691  -0.55309  -1.00333
C     0.49805  -1.16562  -2.29746
C     0.17626  -1.33422   0.16823
C    -0.39978  -2.66041   0.09519
C    -0.23456  -3.65084   1.22501
O    -1.06570  -2.99435  -0.90102
C     0.84329  -0.69644   1.29014
O     1.22175   0.47649   1.31360
O     1.06233  -1.51395   2.33310
C     1.73990  -0.95110   3.46112
H    -0.98521   4.51020   0.96921
H    -2.41449   3.40990   0.97717
H    -1.06581   3.13675   2.13542
H     1.55780   2.76358  -3.24737
H     2.23794   1.48444  -2.15785
H     1.53660   2.94542  -1.45105
H     0.91682  -2.15606  -2.11412
H    -0.37768  -1.23123  -2.95219
H     1.26535  -0.53589  -2.76635
H     0.82528  -3.82960   1.45408
H    -0.71811  -4.58878   0.92110
H    -0.70329  -3.27838   2.14734
H     2.75980  -0.64137   3.18998
H     1.18975  -0.08335   3.85316
H     1.77768  -1.74694   4.21455
