24
Generated by autodE on: 2022-06-08. E = -688.223167 Ha
C     3.83230   0.38300  -0.36044
O     2.53404  -0.19032  -0.14570
C     1.54983   0.65092   0.19786
O     1.70929   1.84677   0.34755
C     0.29109  -0.09558   0.37592
C    -1.00357   0.22616   0.16146
C    -1.71606   1.39472  -0.40138
C    -1.05787   2.73902  -0.47084
O    -2.85826   1.21078  -0.81352
C    -1.76630  -1.10694   0.38143
C    -1.39363  -2.03142  -0.79762
C    -0.11248  -2.34778  -0.59083
C     0.26675  -1.61200   0.71349
O    -0.97049  -1.67449   1.43233
H     4.48901  -0.45157  -0.63067
H     3.79535   1.11980  -1.17580
H     4.19097   0.87053   0.55753
H    -1.77946   3.47780  -0.84278
H    -0.18700   2.69390  -1.14323
H    -0.67454   3.03326   0.51688
H    -2.82294  -1.01768   0.64875
H    -2.05584  -2.28422  -1.62453
H     0.57616  -2.93263  -1.19885
H     1.11347  -1.99402   1.29116
