57
Generated by autodE on: 2022-06-08. E = -1622.921106 Ha. Imaginary frequency = -219.0 cm-1
C     4.57171  -2.75602   0.97728
O     3.50472  -1.95084   0.45440
C     3.83578  -1.01714  -0.44777
O     4.97113  -0.83609  -0.84172
C     2.62681  -0.29133  -0.87918
C     2.40717   0.98401  -1.27187
C     3.23488   2.20563  -1.37986
C     4.72988   2.12051  -1.42856
O     2.64535   3.28256  -1.41828
C     0.86541   1.09130  -1.38310
O     0.55248  -0.23493  -1.83216
C     1.21293  -0.91328  -0.75857
C     0.56464  -0.24169   0.46533
C     0.31511   1.04451   0.05125
C    -2.20213   0.96738  -0.34275
C    -2.37613   1.86607  -1.50911
C    -2.00749   1.48771  -2.92293
O    -2.78034   3.01100  -1.29039
C    -2.65987   1.63374   0.93088
O    -3.67875   1.28324   1.49745
O    -1.90510   2.64319   1.33859
C    -2.34937   3.34785   2.50843
N    -2.20140  -0.40197  -0.40083
C    -2.66239  -1.07766  -1.63754
C    -1.66580  -1.15542   0.60499
C    -1.24145  -2.55838   0.41707
C    -0.81019  -3.30497   1.65743
O    -1.14300  -3.08683  -0.68926
C    -1.88397  -0.73277   2.05072
O    -1.21514   0.03772   2.70430
O    -2.94569  -1.37637   2.52941
C    -3.31190  -1.10124   3.89310
H     5.06050  -3.31464   0.16615
H     4.10638  -3.44643   1.68969
H     5.31413  -2.12437   1.48595
H     5.11032   1.68620  -0.49111
H     5.14679   3.12555  -1.57294
H     5.05118   1.44835  -2.23749
H     0.49955   1.86883  -2.05661
H     1.15012  -2.00029  -0.85167
H     0.71923  -0.58223   1.48399
H     0.15741   1.92231   0.66965
H    -1.29218   0.66563  -3.00344
H    -2.92375   1.21002  -3.46838
H    -1.60301   2.39010  -3.40253
H    -1.63016   4.16069   2.65867
H    -3.35914   3.75262   2.35236
H    -2.34888   2.67250   3.37577
H    -1.83593  -1.27229  -2.32592
H    -3.12438  -2.02748  -1.35960
H    -3.42452  -0.44973  -2.10257
H    -0.21083  -4.17255   1.35434
H    -0.22693  -2.67342   2.34349
H    -1.70014  -3.65370   2.20420
H    -4.17381  -1.74289   4.10673
H    -3.58547  -0.04185   3.99608
H    -2.47739  -1.33982   4.56716
