23
Generated by autodE on: 2022-06-17. E = -351.521385 Ha
C    -3.73739   0.51652  -0.25721
C    -2.58000  -0.15727  -0.07796
C    -2.57146  -1.63756   0.20629
C    -1.30326   0.54955  -0.15875
C    -0.07791  -0.01113  -0.00060
C     1.15959   0.73666  -0.09046
C     2.41912   0.25237   0.05352
C     2.74862  -1.18532   0.33924
C     3.61045   1.15965  -0.07011
H    -3.74069   1.59129  -0.46353
H    -4.70616   0.01228  -0.20146
H    -2.07823  -1.85469   1.16836
H    -2.00854  -2.18729  -0.56635
H    -3.59284  -2.04192   0.24273
H    -1.36309   1.62491  -0.36564
H    -0.01032  -1.08288   0.20507
H     1.05107   1.80816  -0.29796
H     1.86613  -1.83116   0.43256
H     3.39194  -1.59538  -0.45937
H     3.33315  -1.26470   1.27284
H     3.32121   2.19966  -0.28095
H     4.21187   1.14500   0.85666
H     4.28356   0.81397  -0.87529
