15
Generated by autodE on: 2022-06-17. E = -495.114623 Ha
C     1.82559   0.26846  -1.49263
C     1.28971  -0.13490  -0.16447
O     1.93349  -0.43353   0.81791
C    -0.22493  -0.12260  -0.01535
O    -0.89980  -1.12497  -0.38320
O    -0.25164  -2.16632  -0.94234
C    -0.94552   1.03554   0.60228
C    -2.42359   0.93295   0.78636
O    -0.26156   1.99738   0.90823
H     1.30720  -0.29392  -2.28508
H     2.91054   0.10312  -1.53355
H     1.59671   1.33847  -1.64012
H    -2.91136   0.75475  -0.18555
H    -2.79987   1.85971   1.23658
H    -2.66048   0.07082   1.43070
