38
Generated by autodE on: 2022-06-17. E = -846.637608 Ha. Imaginary frequency = -108.4 cm-1
C    -2.37675   2.13172  -0.54040
C    -1.24545   1.76158  -1.17509
C    -1.11948   1.81708  -2.67601
C    -0.07780   1.22138  -0.46278
C     0.20033   1.51721   0.86488
C     1.39532   1.19861   1.61325
C     2.66962   1.00643   1.17723
C     3.73740   0.62022   2.15806
C     3.14517   1.17798  -0.23630
O    -1.35233  -0.12554   1.92580
O    -1.77579  -0.67176   0.76402
C    -0.82796  -1.03806  -0.05189
C     0.49071  -1.57439   0.43924
C     0.53938  -2.22708   1.79395
O     1.46251  -1.56172  -0.29544
C    -1.33231  -1.43265  -1.41494
C    -2.80922  -1.32207  -1.64915
O    -0.54653  -1.80658  -2.26964
H    -2.49179   2.04061   0.54174
H    -3.22862   2.52325  -1.10257
H    -2.02734   2.22241  -3.14434
H    -0.25991   2.44107  -2.97358
H    -0.93310   0.81174  -3.08832
H     0.69311   0.75919  -1.07941
H    -0.52872   2.12772   1.40013
H     1.23742   1.14845   2.69580
H     4.21310  -0.32279   1.83456
H     3.34375   0.48311   3.17509
H     4.54137   1.37657   2.18295
H     4.15410   1.62051  -0.23942
H     2.48125   1.81037  -0.83959
H     3.22428   0.19844  -0.73579
H    -0.44968  -2.42245   2.22353
H     1.11456  -3.15927   1.69030
H     1.09110  -1.56225   2.47758
H    -3.36139  -1.91698  -0.90519
H    -3.12832  -0.27501  -1.52395
H    -3.03814  -1.67047  -2.66377
