27
Generated by autodE on: 2022-06-16. E = -462.316648 Ha
C    -2.38493   1.59176   0.60069
C    -1.24567   0.79001  -0.00216
N     0.06813   1.28340   0.42427
C     1.04021   0.27138   0.01011
C     2.40479   0.48824   0.66507
C     1.23412   0.32530  -1.46543
N     1.36447   0.41480  -2.61698
C     0.30948  -1.08126   0.34671
C     0.79790  -1.76383   1.61968
C    -1.19364  -0.68669   0.42641
C    -2.11178  -1.59704  -0.37772
H    -3.35669   1.17353   0.29519
H    -2.35297   2.64101   0.26517
H    -2.33078   1.57951   1.70127
H    -1.34120   0.82573  -1.10848
H     0.28525   2.19639   0.02306
H     2.82077   1.46023   0.35917
H     2.29704   0.48514   1.75719
H     3.11382  -0.29921   0.37136
H     0.46515  -1.77482  -0.49322
H     0.70967  -1.09937   2.49299
H     0.17966  -2.65467   1.81494
H     1.84395  -2.09579   1.54037
H    -1.49392  -0.72583   1.48742
H    -3.16439  -1.28208  -0.29219
H    -1.83945  -1.58378  -1.44605
H    -2.04607  -2.63882  -0.02490
