15
Generated by autodE on: 2022-06-16. E = -304.943826 Ha
C     2.99151   0.30768  -0.60583
C     1.53052   0.43358  -0.84076
N     0.64907  -0.01238   0.02446
C    -0.72476   0.01913  -0.03211
C    -1.37858   0.63526  -1.22522
C    -1.43071  -0.53266   1.03380
N    -2.04997  -0.99382   1.92473
H     3.47778   1.29939  -0.59080
H     3.47529  -0.26480  -1.41707
H     3.20615  -0.19709   0.34909
H     1.15136   0.90598  -1.74789
H     1.03832  -0.44923   0.86480
H    -1.09210   1.69803  -1.34833
H    -2.47171   0.58641  -1.13246
H    -1.09059   0.12051  -2.16272
