15
Generated by autodE on: 2022-07-27. E = -304.938750 Ha
C    -2.71855   0.41701   1.17549
C    -1.51901   0.36266   0.30281
N    -0.36664  -0.09763   0.72717
C     0.84561  -0.28014   0.09395
C     2.02742  -0.71625   0.91542
C     0.94264   0.04547  -1.25508
N     1.01809   0.31082  -2.40126
H    -2.49148   0.07471   2.19731
H    -3.53248  -0.21324   0.77343
H    -3.11934   1.44444   1.23317
H    -1.56737   0.69586  -0.73716
H    -0.35062  -0.38808   1.70988
H     2.54094   0.11957   1.42860
H     1.72185  -1.43901   1.69141
H     2.77304  -1.21620   0.27947
