12
Generated by autodE on: 2022-06-17. E = -393.949722 Ha
C    -2.67708   0.55679  -0.58794
N    -1.65764  -0.30797  -0.03098
C    -0.35583   0.02855  -0.06438
O     0.05605   1.09245  -0.56350
N     0.43064  -0.97419   0.52792
O     1.73706  -0.75400   0.58495
N     2.42841   0.24454   0.18504
H    -3.65862   0.09997  -0.41593
H    -2.53494   0.69733  -1.67169
H    -2.65823   1.55025  -0.11247
H    -1.91600  -1.19404   0.39161
H     1.75008   0.91828  -0.23594
