61
Generated by autodE on: 2022-06-07. E = -1622.439048 Ha
C     4.99110  -2.50075   0.03179
N     3.85528  -1.60558   0.13020
C     2.92051  -1.75072   1.08917
O     2.91303  -2.71877   1.86482
C     1.84143  -0.73385   1.15192
C     1.77225   0.58950   0.86894
C     2.76059   1.58476   0.45443
C     4.10731   1.51276   0.86455
C     5.02671   2.47647   0.45241
C     4.62198   3.53110  -0.37397
C     3.28502   3.62400  -0.77248
C     2.35816   2.66731  -0.35585
C     0.27479   0.90418   0.95588
O    -0.16428   0.02527   1.99280
C     0.40736  -1.16429   1.43803
C    -0.29392  -1.24353   0.04447
C    -0.34772   0.26884  -0.32791
C    -1.83591   0.58504  -0.57315
C    -2.18428   1.98928  -0.06430
O    -1.77534   2.97822  -0.68652
N    -2.88995   2.02724   1.06737
C    -3.20674   3.25558   1.76598
C    -2.14525   0.54676  -2.08133
O    -1.36904   0.21065  -2.94976
O    -3.42071   0.85856  -2.30263
C    -3.90504   0.70634  -3.64685
N    -2.55926  -0.47618   0.12336
C    -1.78285  -1.70651   0.05387
C    -2.16064  -2.51293  -1.22682
C    -1.22019  -3.55233  -1.75188
O    -3.21896  -2.25831  -1.77328
C    -2.06674  -2.63450   1.26339
C    -2.88638  -2.07233   2.38326
O    -1.60190  -3.75995   1.28829
H     4.65953  -3.54469  -0.07638
H     5.63199  -2.44032   0.92705
H     5.58512  -2.22450  -0.84783
H     3.83145  -0.77808  -0.45599
H     4.42763   0.70869   1.52837
H     6.06501   2.40896   0.78530
H     5.34480   4.28380  -0.69690
H     2.95862   4.44970  -1.40890
H     1.31649   2.75844  -0.67032
H     0.01013   1.94295   1.17182
H     0.29015  -2.02730   2.09904
H     0.30277  -1.84464  -0.64633
H     0.23791   0.52200  -1.21520
H    -3.08173   1.12177   1.49352
H    -2.41348   3.53111   2.48103
H    -4.14880   3.13480   2.31708
H    -3.31678   4.07238   1.04067
H    -3.33567   1.34730  -4.33442
H    -3.81672  -0.34423  -3.95836
H    -4.95738   1.01068  -3.62461
H    -3.49198  -0.62012  -0.26658
H    -0.48907  -3.03816  -2.39972
H    -1.77308  -4.27684  -2.36450
H    -0.66953  -4.05019  -0.94498
H    -2.97056  -2.81674   3.18530
H    -2.41209  -1.15039   2.75229
H    -3.88545  -1.78806   2.01814
