31
Generated by autodE on: 2022-07-27. E = -875.548352 Ha
C     0.84733   4.45872   1.11931
N     0.47554   3.26302   0.38907
C     0.45726   2.06328   0.97816
O     0.73020   1.87153   2.17388
C     0.08916   0.88654   0.12767
N     0.20232  -0.25420   0.77423
C     0.17176  -1.56610   0.40091
C     0.49821  -1.90153  -0.98544
C     0.60524  -3.34133  -1.41113
O     0.75124  -1.00686  -1.80310
C     0.03340  -2.53829   1.49082
C    -0.08189  -2.01430   2.90920
O    -0.01370  -3.75136   1.28145
C    -0.53814   1.03977  -1.20729
O    -0.21798   1.90392  -2.00449
O    -1.58428   0.23497  -1.35665
C    -2.24748   0.26665  -2.63047
H     0.73441   5.32581   0.45823
H     1.89209   4.40715   1.46629
H     0.20302   4.59390   2.00113
H     0.30803   3.30357  -0.61471
H     0.42713  -0.05512   1.76654
H     1.32471  -3.89312  -0.79011
H     0.91447  -3.36314  -2.46447
H    -0.36444  -3.84711  -1.29252
H     0.80248  -1.41815   3.19272
H    -0.15809  -2.87145   3.58921
H    -0.97091  -1.37557   3.03153
H    -2.66734   1.26457  -2.81990
H    -1.53956   0.00317  -3.42871
H    -3.04795  -0.47898  -2.56921
