30
Generated by autodE on: 2022-06-07. E = -746.810060 Ha
C     2.72448   2.47449   1.25860
N     1.92529   1.59594   0.42821
C     2.02822   0.25314   0.51049
O     2.91007  -0.30811   1.18162
C     1.07659  -0.56043  -0.26842
C    -0.24446  -0.46446  -0.53766
C    -1.27101   0.50236  -0.14351
C    -2.35327   0.77746  -1.00297
C    -3.33677   1.69760  -0.63676
C    -3.26702   2.34812   0.59913
C    -2.20818   2.06870   1.47046
C    -1.22031   1.15456   1.10570
C    -0.56850  -1.80205  -1.26753
C    -0.48962  -2.90824  -0.19210
C     0.81135  -3.00593   0.09801
C     1.49451  -1.95418  -0.80206
O     0.66222  -2.02456  -1.97190
H     2.42925   2.41628   2.32046
H     3.78899   2.20788   1.18803
H     2.59487   3.50791   0.91383
H     1.14077   1.98975  -0.08030
H    -2.41383   0.27812  -1.97186
H    -4.16344   1.90631  -1.31978
H    -4.04015   3.06419   0.88712
H    -2.15692   2.55912   2.44534
H    -0.41390   0.92255   1.80270
H    -1.43822  -1.80372  -1.93220
H    -1.34678  -3.41613   0.24825
H     1.31966  -3.61697   0.84295
H     2.55611  -2.09064  -1.03103
