61
Generated by autodE on: 2022-06-07. E = -1622.354544 Ha. Imaginary frequency = -255.4 cm-1
C     5.39040  -1.98086   0.38111
N     4.14560  -1.23900   0.40611
C     3.05502  -1.70992   1.04331
O     3.02998  -2.84131   1.55401
C     1.84911  -0.85200   1.06883
C     1.62569   0.48267   1.01441
C     2.48922   1.65969   0.99387
C     3.73092   1.69307   1.66090
C     4.52651   2.83728   1.61920
C     4.10067   3.96940   0.91475
C     2.86355   3.95497   0.26289
C     2.05891   2.81604   0.30989
C     0.07789   0.60035   0.92032
O    -0.32296  -0.50619   1.73455
C     0.44348  -1.49274   1.02387
C    -0.06925  -1.26709  -0.40255
C    -0.33025   0.09041  -0.48185
C    -2.56694   0.33175  -0.50053
C    -2.69989   1.55189   0.37710
O    -2.98011   1.41063   1.57456
N    -2.45103   2.73573  -0.20231
C    -2.34730   3.96081   0.56787
C    -2.87485   0.55299  -1.95677
O    -2.13941   1.12642  -2.73828
O    -4.15619   0.27798  -2.20547
C    -4.60059   0.48054  -3.55538
N    -2.88959  -0.79198   0.16860
C    -2.48765  -2.07344  -0.07316
C    -2.25944  -2.53365  -1.44488
C    -1.81781  -3.94816  -1.71821
O    -2.43292  -1.76539  -2.39943
C    -2.46051  -2.96510   1.10615
C    -2.98660  -2.43570   2.42156
O    -1.98441  -4.09669   1.04661
H     6.12781  -1.41558  -0.20168
H     5.25290  -2.96957  -0.08386
H     5.78618  -2.13840   1.39788
H     4.12539  -0.30190   0.01904
H     4.06044   0.82530   2.23358
H     5.48243   2.84913   2.14782
H     4.72718   4.86372   0.88382
H     2.52019   4.83729  -0.28198
H     1.09404   2.81625  -0.20127
H    -0.34193   1.54223   1.28126
H     0.35193  -2.49374   1.45480
H     0.15435  -1.93302  -1.23209
H    -0.25955   0.69525  -1.38401
H    -2.11567   2.73664  -1.16251
H    -1.36091   4.04793   1.05449
H    -2.48624   4.81888  -0.10172
H    -3.12210   3.98137   1.34503
H    -4.48075   1.53332  -3.84816
H    -4.02794  -0.16117  -4.24040
H    -5.65993   0.20005  -3.56879
H    -3.02609  -0.55426   1.15894
H    -0.86641  -4.17540  -1.21874
H    -1.70925  -4.06089  -2.80505
H    -2.55577  -4.66874  -1.33676
H    -2.96776  -3.25049   3.15535
H    -4.01277  -2.04710   2.33026
H    -2.34192  -1.61817   2.78304
