39
Generated by autodE on: 2022-05-31. E = -1300.119041 Ha
C     3.91892  -1.37940   0.66341
N     2.70308  -0.89800   0.03653
C     2.20707   0.31792   0.28293
O     2.75506   1.17416   0.98205
C     0.81117   0.60941  -0.29508
C     0.77407   2.09507  -0.72695
O    -0.10728   2.87318  -0.43217
O     1.78711   2.39038  -1.53154
C     1.80481   3.70993  -2.10255
C    -0.26795   0.35608   0.78865
C     0.08021  -0.73515   1.85103
O    -0.16859  -1.94909   1.12558
C    -1.54736  -1.68490   0.83627
C    -2.08246  -1.33837   2.21660
F    -3.35060  -1.49244   2.57454
C    -1.06792  -0.74479   2.84771
F    -1.02354  -0.13298   4.02355
C    -1.46252  -0.33145   0.06306
C    -1.00409  -0.44372  -1.42571
C    -1.35987  -1.74149  -2.03920
N    -1.62469  -2.76528  -2.51187
C    -1.67091   0.62467  -2.22902
N    -2.12151   1.49376  -2.84972
N     0.44254  -0.28377  -1.39782
C     1.10498  -0.18055  -2.69448
H     4.68116  -0.58835   0.65800
H     4.29526  -2.24470   0.10339
H     3.74180  -1.68226   1.70928
H     2.09728  -1.54880  -0.45646
H     1.88286   4.46501  -1.30780
H     2.68680   3.74437  -2.75145
H     0.88980   3.87998  -2.68713
H    -0.53939   1.29910   1.26976
H     1.08324  -0.70346   2.28706
H    -2.03513  -2.51880   0.32149
H    -2.40709   0.21751   0.12398
H     0.78690   0.70198  -3.27652
H     2.18920  -0.12815  -2.54696
H     0.88205  -1.08587  -3.27818
