26
Generated by autodE on: 2022-07-27. E = -793.966053 Ha
C     3.68413  -0.67094   2.18324
N     2.38203  -0.26404   1.69240
C     1.87334  -0.78995   0.56703
O     2.44894  -1.66649  -0.08477
C     0.54293  -0.21838   0.14419
C     0.34481   1.25593   0.33049
O     0.59208   1.84308   1.36577
O    -0.03730   1.84921  -0.79286
C    -0.28053   3.26789  -0.73159
N    -0.37950  -0.97169  -0.44268
C    -0.06631  -2.36860  -0.85043
C    -1.68872  -0.57167  -0.65214
C    -2.51741  -1.24708  -1.57376
N    -3.24941  -1.76099  -2.32507
C    -2.26969   0.49431   0.06470
N    -2.79229   1.34645   0.66822
H     3.90600  -0.11036   3.09883
H     3.70172  -1.74817   2.41050
H     4.47086  -0.46963   1.43874
H     1.87510   0.49044   2.15000
H    -0.62243   3.55243  -1.73242
H    -1.05581   3.48284   0.01611
H     0.64726   3.79751  -0.47493
H    -0.99123  -2.85443  -1.16739
H     0.66584  -2.34968  -1.66223
H     0.35125  -2.90399   0.00770
