39
Generated by autodE on: 2022-05-31. E = -1300.022764 Ha. Imaginary frequency = -256.4 cm-1
C     4.26699  -0.19518   1.29773
N     3.17332   0.45266   0.60068
C     2.34274  -0.26266  -0.18401
O     2.52637  -1.46554  -0.39648
C     1.14063   0.47982  -0.71322
C     1.22502   1.98384  -0.65440
O     1.39702   2.63638   0.35769
O     1.20339   2.51038  -1.87496
C     1.25976   3.94520  -1.96465
C    -0.24412   0.15116   1.14248
C     0.00627  -1.33333   1.50876
O    -0.69820  -1.97766   0.43096
C    -1.96172  -1.33165   0.67023
C    -2.15816  -1.68968   2.15351
F    -3.34733  -1.82933   2.72638
C    -0.93066  -1.68365   2.67597
F    -0.51863  -1.81848   3.93055
C    -1.52239   0.14284   0.62523
C    -0.96236   0.37128  -1.80889
C    -1.90587  -0.43687  -2.49720
N    -2.73467  -1.08259  -3.00231
C    -1.37447   1.72048  -1.63104
N    -1.80213   2.79721  -1.50099
N     0.33424  -0.08063  -1.65741
C     0.64889  -1.36542  -2.32311
H     4.90023  -0.75302   0.59291
H     3.90086  -0.90368   2.05971
H     4.87338   0.57361   1.79159
H     2.91353   1.39727   0.86891
H     0.40580   4.38708  -1.43274
H     1.20819   4.17844  -3.03359
H     2.20087   4.31247  -1.53281
H     0.24680   0.98760   1.63474
H     1.03743  -1.68434   1.60491
H    -2.74713  -1.66045  -0.01852
H    -2.21741   0.97706   0.57086
H     0.09024  -1.39575  -3.26418
H     1.71652  -1.40085  -2.54142
H     0.36492  -2.20886  -1.68564
