26
Generated by autodE on: 2022-05-30. E = -490.101594 Ha
C     1.16976  -2.60499  -0.48003
C     1.42170  -1.08590  -0.44560
C     2.93324  -0.81041  -0.41947
C     0.73104  -0.49095   0.70407
C    -0.10398   0.10026   1.35757
C    -1.31243   0.89646   1.55991
F    -0.95649   2.24677   1.74826
C    -2.16876   0.77936   0.29373
C    -1.42030   0.97568  -1.04103
C    -0.76331  -0.26566  -1.71236
C     0.77562  -0.38665  -1.68557
H     1.57902  -3.08978   0.41942
H     1.66188  -3.04172  -1.36321
H     0.09511  -2.83394  -0.53265
H     3.13833   0.26875  -0.35035
H     3.40982  -1.31003   0.43801
H     3.39839  -1.19184  -1.34201
H    -1.88929   0.60071   2.44991
H    -2.66031  -0.20732   0.31301
H    -2.96831   1.53246   0.38982
H    -2.16186   1.37456  -1.75047
H    -0.67399   1.77900  -0.91762
H    -1.04777  -0.24233  -2.77612
H    -1.21951  -1.18784  -1.31396
H     1.21229   0.62208  -1.77532
H     1.10990  -0.95089  -2.57251
