43
Generated by autodE on: 2022-05-30. E = -1078.584069 Ha. Imaginary frequency = -400.7 cm-1
C     1.91512   0.37155   1.81747
C     1.88975  -0.01477   0.32965
C     2.14479  -1.52529   0.17233
C     3.00815   0.73055  -0.45189
C     3.13291   2.25485  -0.32637
C     1.99129   3.15991  -0.82588
C     1.44622   2.83117  -2.23022
C     0.07975   2.13883  -2.19082
F    -0.26780   1.71217  -3.47450
C     0.11970   1.01641  -1.25437
C     0.56877   0.33347  -0.30765
C    -1.23137  -0.75158   0.28087
C    -1.12905  -1.25851   1.64547
C    -0.82897  -2.60806   1.88610
C    -0.72923  -3.06521   3.19977
C    -0.93192  -2.18420   4.26716
C    -1.24206  -0.84051   4.02370
C    -1.33807  -0.37228   2.71605
O    -1.23660  -1.57269  -0.78468
C    -1.70482  -0.78182  -1.85815
O    -1.68988  -1.18133  -2.99690
N    -2.09193   0.42805  -1.34964
O    -2.06690   0.25543   0.03508
H     1.27077  -0.28513   2.41501
H     1.58849   1.40972   1.97530
H     2.94389   0.27333   2.19832
H     2.14189  -1.81646  -0.88910
H     3.13060  -1.77324   0.59541
H     1.39244  -2.12456   0.69919
H     3.96437   0.30273  -0.10638
H     2.91750   0.44828  -1.51341
H     3.34439   2.51991   0.72262
H     4.04286   2.52783  -0.88850
H     2.37428   4.19211  -0.82602
H     1.16066   3.15843  -0.10143
H     1.31905   3.74537  -2.82910
H     2.13901   2.17702  -2.78283
H    -0.69560   2.85191  -1.86762
H    -0.67967  -3.29038   1.04865
H    -0.49532  -4.11437   3.39090
H    -0.85000  -2.54609   5.29446
H    -1.40154  -0.15466   4.85804
H    -1.55886   0.67723   2.51646
