38
Generated by autodE on: 2022-05-29. E = -802.010456 Ha
C     4.26873   1.02343   0.14820
N     3.11840   0.28686   0.63708
C     2.14755  -0.12996  -0.19046
O     2.24058   0.02872  -1.41880
C     0.91211  -0.83067   0.42780
C     1.26506  -1.54040   1.73468
N     0.39658  -1.83088  -0.53204
N    -0.34538  -1.13136  -1.55520
C    -1.08771  -0.09143  -0.81862
C    -1.18447   1.07556  -1.69445
N    -1.25554   2.00022  -2.39273
C    -2.48235  -0.55832  -0.31064
C    -3.22399   0.64242   0.31728
C    -2.48432   0.84184   1.67233
C    -1.35032  -0.20586   1.61026
C    -2.10617  -1.37102   0.94212
C    -0.28429   0.19943   0.54195
C     0.21402   1.63423   0.70844
H     3.97104   1.99351  -0.28358
H     4.79598   0.45364  -0.63152
H     4.95676   1.20343   0.98321
H     2.99432   0.19204   1.63794
H     2.14169  -2.18992   1.59282
H     0.42924  -2.17049   2.05997
H     1.48577  -0.83075   2.54582
H     1.16530  -2.31301  -0.99884
H     0.35224  -0.62709  -2.11232
H    -3.03628  -1.08007  -1.10120
H    -3.19703   1.53725  -0.32133
H    -4.28181   0.38475   0.46959
H    -3.14342   0.59340   2.51714
H    -2.13637   1.86979   1.82998
H    -0.90540  -0.40853   2.59148
H    -1.48837  -2.24655   0.72591
H    -2.99572  -1.67323   1.51569
H     0.74255   1.74519   1.66735
H    -0.61272   2.35412   0.69418
H     0.89940   1.92564  -0.09843
