21
Generated by autodE on: 2022-05-29. E = -404.490444 Ha
C     2.21142  -0.65902   0.79992
C     0.86452  -0.54555   0.18893
C     0.29291   0.51284  -0.44585
C     0.87700   1.78485  -0.64897
N     1.34495   2.83800  -0.83514
C    -1.17107   0.16462  -0.72020
C    -1.87634   0.16602   0.67088
C    -1.21197  -1.04181   1.39196
C    -0.22070  -1.59782   0.31359
C    -1.03009  -1.34942  -0.97611
H     2.74827  -1.53143   0.39027
H     2.81962   0.24288   0.64003
H     2.11784  -0.83429   1.88599
H    -1.66277   0.77067  -1.49041
H    -1.72770   1.11838   1.19907
H    -2.95869   0.01323   0.54613
H    -0.68852  -0.75912   2.31648
H    -1.95059  -1.81594   1.64673
H     0.13928  -2.61557   0.50950
H    -1.99570  -1.87750  -0.98891
H    -0.46523  -1.58108  -1.89099
