17
Generated by autodE on: 2022-05-29. E = -397.487930 Ha
C     3.01485  -0.59418  -0.05796
N     1.59594  -0.82902  -0.22839
C     0.68481   0.12191   0.07299
O     1.03861   1.24364   0.50111
C    -0.73521  -0.19574  -0.11782
C    -1.34095  -1.45682  -0.62864
N    -1.54121   0.80645   0.23257
N    -2.82713   0.93187   0.22724
H     3.27035  -0.39412   0.99574
H     3.35272   0.26918  -0.65319
H     3.56360  -1.48460  -0.38833
H     1.28816  -1.73995  -0.54595
H    -0.58810  -2.18485  -0.95341
H    -1.99908  -1.25285  -1.49356
H    -1.96879  -1.94199   0.14176
H    -1.00965   1.62573   0.56626
H    -3.21504   0.04645  -0.12356
