38
Generated by autodE on: 2022-05-29. E = -801.957681 Ha. Imaginary frequency = -319.3 cm-1
C     4.11250   1.23824   0.17501
N     3.15228   0.23653   0.59483
C     2.16207  -0.17107  -0.22101
O     2.11230   0.20434  -1.40855
C     1.13891  -1.08714   0.37009
C     1.39387  -1.70291   1.71890
N     0.50743  -1.90651  -0.53450
N    -0.04553  -1.50428  -1.64656
C    -1.21275   0.18869  -0.66340
C    -1.10009   1.07293  -1.76330
N    -1.00794   1.77921  -2.69010
C    -2.56426  -0.43463  -0.29790
C    -3.37672   0.69360   0.40295
C    -2.61796   0.87466   1.75191
C    -1.44197  -0.14686   1.63842
C    -2.17131  -1.29441   0.91726
C    -0.49570   0.39483   0.55552
C     0.26920   1.66216   0.83861
H     3.62408   2.20885  -0.01541
H     4.62555   0.92945  -0.74773
H     4.85841   1.36788   0.96867
H     3.14151  -0.04179   1.56880
H     2.34808  -2.25501   1.75646
H     0.58334  -2.39831   1.97832
H     1.42039  -0.92718   2.49872
H     0.09064  -2.74838  -0.13301
H     0.53424  -0.72386  -1.97522
H    -3.08343  -0.93569  -1.12415
H    -3.39924   1.61153  -0.20312
H    -4.41738   0.37332   0.56479
H    -3.25480   0.60079   2.60623
H    -2.27137   1.90370   1.91638
H    -0.96086  -0.37779   2.59719
H    -1.54926  -2.16157   0.68048
H    -3.05171  -1.64727   1.47482
H     0.94918   1.54400   1.69433
H    -0.43114   2.47664   1.08610
H     0.85198   1.99391  -0.03053
