31
Generated by autodE on: 2022-06-23. E = -817.531979 Ha
C     4.22015   1.47463  -0.35148
N     2.90198   0.89222  -0.20306
C     2.71900  -0.25786   0.47168
O     3.64147  -0.90127   0.98806
C     1.31213  -0.74646   0.57900
C     0.97652  -1.98279   1.29000
O     0.43075   0.08792   0.13839
C    -0.91326  -0.03390   0.02339
C    -1.60737   1.25263   0.00534
O    -2.84808   1.33040  -0.14658
N    -0.85853   2.36473   0.19387
C    -1.45661   3.68319   0.20923
C    -1.46825  -1.29129  -0.47587
O    -0.73167  -2.19203  -0.92598
N    -2.82125  -1.39606  -0.46536
C    -3.48192  -2.45616  -1.19782
H     4.12838   2.42613  -0.88828
H     4.88963   0.80810  -0.91914
H     4.68276   1.66072   0.63039
H     2.10449   1.34209  -0.64084
H     1.81842  -2.27196   1.93021
H     0.73220  -2.80399   0.59528
H     0.05881  -1.80830   1.88265
H     0.13619   2.27157   0.36310
H    -0.66288   4.42827   0.34328
H    -2.18275   3.79072   1.03198
H    -1.98504   3.89800  -0.73332
H    -3.31422  -0.51778  -0.28892
H    -3.33273  -2.37398  -2.28949
H    -4.55890  -2.41599  -0.99001
H    -3.10249  -3.43927  -0.88317
