57
Generated by autodE on: 2022-12-30. E = -1510.865259 Ha
C    -2.67835   2.19906   2.84281
N    -1.75391   1.74571   1.82345
C    -2.08001   0.76999   0.97443
O    -3.18902   0.21505   0.99778
C    -1.08871   0.34778  -0.12188
C    -1.52239   0.99803  -1.48080
C    -1.56273   2.52984  -1.34774
C    -0.06206   2.90770  -1.22799
C     0.66281   1.54504  -1.36183
C    -0.26513   0.81217  -2.34393
C     0.46639   0.75096  -0.03379
O     0.76416   1.51500   1.10271
C     2.01378   2.20362   1.15012
C     1.21111  -0.66129  -0.03469
C     2.44073  -0.66366  -0.96478
O     3.49876  -0.17147  -0.63200
O     2.21882  -1.24865  -2.12665
C     3.30612  -1.24978  -3.07100
C     1.76734  -1.26914   1.29237
O     1.89329  -2.47205   1.37598
O     2.15181  -0.41914   2.22112
C     2.69969  -0.98470   3.42420
O     0.27182  -1.58163  -0.52815
C    -1.06882  -1.22186  -0.20600
C    -1.95993  -1.88163  -1.28268
C    -1.31553  -2.89677  -2.18029
O    -3.14479  -1.61814  -1.34681
C    -1.36235  -1.83972   1.20700
C    -2.31298  -2.98302   1.34498
O    -0.73049  -1.39010   2.14482
H    -3.61450   2.56472   2.39304
H    -2.21239   3.01772   3.40502
H    -2.93506   1.38709   3.54292
H    -0.78563   2.06669   1.80182
H    -2.45631   0.57419  -1.85744
H    -2.01002   2.95115  -2.25952
H    -2.16433   2.87759  -0.49877
H     0.25733   3.56607  -2.04782
H     0.16036   3.41987  -0.28572
H     1.71442   1.64099  -1.65691
H    -0.34226   1.33994  -3.30561
H     0.01334  -0.22677  -2.54105
H     2.13285   2.54442   2.18689
H     2.84914   1.54370   0.89077
H     2.01890   3.07888   0.48327
H     2.93223  -1.77946  -3.95375
H     3.58032  -0.21713  -3.32814
H     4.17507  -1.77096  -2.64649
H     1.95003  -1.62286   3.91260
H     2.95388  -0.13261   4.06425
H     3.59759  -1.57533   3.19446
H    -0.55744  -2.41487  -2.81618
H    -2.08702  -3.36775  -2.80238
H    -0.78440  -3.65323  -1.58294
H    -3.32018  -2.66239   1.04236
H    -2.32050  -3.33449   2.38411
H    -2.01496  -3.80224   0.67053
