28
Generated by autodE on: 2022-12-30. E = -595.568185 Ha
C     3.68722   0.91460  -0.13479
N     2.24524   0.81885  -0.19816
C     1.61809  -0.36963  -0.37962
O     2.26605  -1.42492  -0.53407
C     0.15364  -0.36079  -0.39598
C    -0.71597   0.63502  -0.06287
O    -0.36363   1.87966   0.29664
C    -1.38692   2.84099   0.57045
C    -2.10951   0.04090   0.02040
C    -2.09665  -0.85208   1.30865
C    -1.13244  -2.01233   0.92373
C    -0.68907  -1.62341  -0.52096
C    -2.00299  -1.03812  -1.07640
H     4.15634   0.50390  -1.04319
H     3.97118   1.97059  -0.04273
H     4.10075   0.36509   0.72830
H     1.67670   1.63968  -0.01588
H    -0.86799   3.77334   0.82482
H    -2.00771   2.52406   1.42184
H    -2.02047   3.00371  -0.31466
H    -2.94509   0.74667  -0.03682
H    -1.76537  -0.28535   2.19042
H    -3.11378  -1.22033   1.50777
H    -0.26804  -2.09563   1.59776
H    -1.65622  -2.98047   0.92281
H    -0.21592  -2.43464  -1.08718
H    -1.89531  -0.61534  -2.08594
H    -2.84465  -1.74735  -1.05478
