29
Generated by autodE on: 2023-01-01. E = -915.224749 Ha
C     2.37912   0.97360  -3.32566
O     1.40737   0.64612  -2.31778
C     1.84442   0.60995  -1.06326
O     2.98207   0.85433  -0.71019
C     0.77842   0.23343  -0.10302
O    -0.31314  -0.18911  -0.63370
C    -1.51105  -0.53060  -0.15340
C    -2.34177  -1.18384  -1.17380
C    -1.72539  -1.38328  -2.53707
O    -3.47754  -1.57494  -0.91409
C    -1.93914   0.00622   1.13224
C    -3.32829  -0.26949   1.62981
O    -1.17116   0.74232   1.76367
C     1.10708   0.01386   1.33952
O     0.91861  -1.06831   1.85567
O     1.70679   1.04691   1.89982
C     2.10781   0.88746   3.27387
H     1.84014   0.94947  -4.27895
H     2.79197   1.97587  -3.14256
H     3.19215   0.23360  -3.32435
H    -1.35546  -0.43089  -2.94603
H    -2.48013  -1.81594  -3.20551
H    -0.85928  -2.06079  -2.46949
H    -3.47248  -1.35180   1.76717
H    -4.08277   0.06112   0.90168
H    -3.46386   0.25455   2.58482
H     2.82909   0.06345   3.36607
H     1.22621   0.68363   3.89771
H     2.57142   1.83722   3.56155
