57
Generated by autodE on: 2022-12-30. E = -1510.793703 Ha. Imaginary frequency = -237.3 cm-1
C    -3.12663   1.01266   2.99186
N    -2.07951   0.95396   1.99605
C    -2.30418   0.73511   0.68364
O    -3.44613   0.68496   0.19213
C    -1.11694   0.57160  -0.19622
C    -1.29854   0.88205  -1.67684
C    -1.40299   2.44084  -1.74375
C     0.03320   2.90148  -1.36497
C     0.80012   1.54880  -1.17378
C     0.11535   0.68285  -2.24192
C     0.21289   0.97019   0.10792
O     0.55167   1.40717   1.32523
C     1.82897   2.03360   1.50823
C     1.29958  -1.29572   0.14767
C     2.46716  -1.10899  -0.74599
O     3.47751  -0.52503  -0.38762
O     2.29928  -1.61993  -1.96502
C     3.33522  -1.35682  -2.92394
C     1.70120  -1.71741   1.54123
O     1.78615  -2.89776   1.81979
O     2.09311  -0.73062   2.32507
C     2.56231  -1.09339   3.63233
O     0.27435  -1.92866  -0.42731
C    -1.01165  -1.93297  -0.09033
C    -1.88326  -2.32539  -1.22611
C    -1.21792  -2.76020  -2.50534
O    -3.10321  -2.27357  -1.12279
C    -1.43429  -1.94494   1.32624
C    -2.85334  -2.27978   1.68568
O    -0.61617  -1.67190   2.20403
H    -3.04841   0.16820   3.69535
H    -3.06642   1.94845   3.56973
H    -4.10113   0.96969   2.49207
H    -1.11214   0.97294   2.30507
H    -2.12498   0.35322  -2.16333
H    -1.66467   2.74446  -2.76806
H    -2.17578   2.83280  -1.06906
H     0.50830   3.47055  -2.17652
H     0.05874   3.52112  -0.45816
H     1.89138   1.63061  -1.20368
H     0.22663   1.11067  -3.24832
H     0.44721  -0.35489  -2.26098
H     1.95661   2.15046   2.59049
H     2.62980   1.40338   1.10647
H     1.83792   3.02201   1.02607
H     3.02324  -1.85956  -3.84615
H     3.42933  -0.27430  -3.09227
H     4.29517  -1.76132  -2.57376
H     2.84606  -0.15412   4.12024
H     1.75828  -1.58887   4.19492
H     3.42998  -1.76412   3.55828
H    -0.77128  -1.88755  -3.00603
H    -0.40705  -3.47816  -2.31922
H    -1.97908  -3.19723  -3.16376
H    -3.55288  -1.54974   1.25839
H    -2.93404  -2.29086   2.77999
H    -3.13102  -3.26146   1.27367
