35
Generated by autodE on: 2022-06-08. E = -6008.829277 Ha
C    -1.60244   3.61349   1.62554
C    -1.87208   2.26072   1.04951
O    -2.96847   1.72894   1.03484
C    -0.71813   1.52313   0.42344
N     0.32318   2.11332  -0.01160
C     1.17802   1.18744  -0.74756
C     1.04567   1.51493  -2.24803
C     2.67844   1.38804  -0.44736
C     3.11957   2.72050   0.06833
O     3.44508   0.48071  -0.70911
C     0.67309  -0.25011  -0.31424
Br    0.74128  -1.59056  -1.75953
C     1.50712  -0.71844   0.92852
C     1.89667  -2.15112   1.10136
O     1.82699   0.14476   1.71884
C    -0.80328   0.03431   0.13161
Br   -1.30481  -0.96038   1.78819
C    -1.87692  -0.22311  -0.97487
C    -2.66787  -1.49372  -0.99136
O    -2.04165   0.65985  -1.78966
H    -2.53474   4.04905   2.00572
H    -0.86427   3.52387   2.43961
H    -1.15695   4.26749   0.86069
H     1.71632   0.87559  -2.83424
H     1.33334   2.56418  -2.40528
H     0.01068   1.38128  -2.58304
H     2.69297   3.53671  -0.53314
H     4.21581   2.77311   0.06976
H     2.73642   2.84180   1.09398
H     2.75279  -2.34769   0.43368
H     2.21422  -2.30495   2.14045
H     1.09559  -2.84874   0.82859
H    -3.05815  -1.64756  -2.00576
H    -3.52055  -1.37382  -0.30227
H    -2.08882  -2.36338  -0.65815
