19
Generated by autodE on: 2022-06-08. E = -477.529324 Ha
C    -3.04553   0.89540   0.26019
C    -2.50171  -0.50891   0.18043
O    -3.20250  -1.52395   0.19398
C    -1.08733  -0.57063   0.09084
N     0.09141  -0.61076  -0.01613
C     1.37833  -0.42463  -0.12046
C     2.32158  -1.58445  -0.23811
C     1.78914   0.98602  -0.11007
C     3.26641   1.25574  -0.22351
O     0.96145   1.89709  -0.01382
H    -2.25014   1.65301   0.21850
H    -3.60815   1.00127   1.20170
H    -3.74806   1.04752  -0.57474
H     2.90379  -1.52845  -1.17224
H     3.04187  -1.59637   0.59620
H     1.76896  -2.53342  -0.23146
H     3.81178   0.77033   0.60185
H     3.66404   0.83368  -1.16067
H     3.44611   2.33824  -0.20001
