50
Generated by autodE on: 2022-06-10. E = -2097.331801 Ha
C     3.30624   2.89400  -0.60904
N     2.01464   2.25944  -0.42878
C     1.29830   2.43929   0.68952
O     1.60220   3.23405   1.57489
C    -0.05039   1.64302   0.74040
C    -0.60725   1.68188   2.18696
F    -1.64495   0.83205   2.31454
F     0.29600   1.31062   3.11274
F    -1.04408   2.89592   2.53176
C    -0.99071   2.49575  -0.16088
C    -2.49061   2.20549  -0.15710
C    -2.86300   0.80654  -0.64326
C    -2.14489   0.46933  -1.95773
C    -1.06400  -0.64417  -1.87427
C    -0.10209  -0.45889  -3.08551
F    -0.77637  -0.39875  -4.24036
F     0.80057  -1.43687  -3.19587
F     0.57880   0.69670  -2.96312
C    -1.83272  -2.00092  -2.03535
F    -1.05757  -3.07759  -2.16983
F    -2.62608  -1.97951  -3.11792
F    -2.62311  -2.19236  -0.96620
C    -0.19318  -0.66457  -0.61646
C     0.19940   0.19155   0.36174
C     1.19026  -0.70690   1.20350
C     2.22940  -0.17549   2.18476
O     3.10990   0.57081   1.82624
O     2.09591  -0.68526   3.39133
C     3.04041  -0.23688   4.38315
N     1.79181  -1.44688   0.12868
N     0.53432  -1.94772  -0.39935
C    -0.09715  -2.47879   0.83303
O    -0.84041  -3.40834   0.91749
O     0.32548  -1.70973   1.85816
H     3.23474   3.97445  -0.41907
H     3.63848   2.73392  -1.64193
H     4.05426   2.46858   0.07941
H     1.73322   1.54276  -1.08950
H    -0.83838   3.53702   0.15450
H    -0.58812   2.43411  -1.17824
H    -2.94220   2.94857  -0.83547
H    -2.92749   2.39381   0.83390
H    -3.95014   0.75813  -0.80037
H    -2.63952   0.06114   0.13135
H    -2.86515   0.16020  -2.72110
H    -1.67362   1.36916  -2.36807
H     4.06263  -0.50180   4.08011
H     2.95740   0.85194   4.50691
H     2.76593  -0.75329   5.30906
H     2.34449  -2.23940   0.47571
