14
Generated by autodE on: 2022-06-10. E = -565.475153 Ha
C     3.50956  -0.04379  -0.23949
O     2.10745   0.29019  -0.20426
C     1.27265  -0.69643   0.06386
O     1.55821  -1.85297   0.28713
C    -0.13373  -0.23443   0.06697
N    -1.16860  -0.99837   0.31384
N    -2.33974  -0.33895   0.24715
C    -2.01281   0.93008  -0.06656
O    -2.67181   1.92717  -0.24844
O    -0.55810   0.98691  -0.18048
H     3.69795  -0.78360  -1.02995
H     3.82361  -0.44836   0.73270
H     4.03276   0.89367  -0.45530
H    -1.12474  -1.99619   0.53772
