11
Generated by autodE on: 2022-05-26. E = -397.625309 Ha
C    -3.27045   0.12202   0.03465
O    -1.89470  -0.20210   0.31972
C    -0.97821   0.41896  -0.40753
O    -1.18986   1.22852  -1.28385
C     0.36839   0.01056  -0.02875
C     1.51892  -0.28311   0.23163
C     2.81406  -0.62218   0.53510
N     3.91400  -0.91063   0.79365
H    -3.86651  -0.48478   0.72455
H    -3.50818  -0.13089  -1.00808
H    -3.44803   1.19266   0.20810
