25
Generated by autodE on: 2022-05-26. E = -611.140490 Ha
N     0.12941  -3.17089  -0.50873
N     0.08360  -2.04438  -0.32783
C     0.03145  -0.75367  -0.12049
C    -1.31405  -0.15127  -0.02646
C    -1.53358   1.00344   0.75073
C    -2.81037   1.55809   0.85234
C    -3.89618   0.97039   0.19514
C    -3.69066  -0.18300  -0.56914
C    -2.41500  -0.73588  -0.68392
C     1.32288  -0.04625  -0.00500
C     2.47913  -0.71851   0.43948
C     3.70390  -0.05552   0.51968
C     3.80252   1.29482   0.16821
C     2.66149   1.97101  -0.27554
C     1.43537   1.31061  -0.36850
H    -0.70427   1.46250   1.28989
H    -2.95793   2.45358   1.46095
H    -4.89419   1.40629   0.27921
H    -4.52877  -0.65324  -1.08910
H    -2.26954  -1.62877  -1.29614
H     2.41805  -1.76939   0.73104
H     4.58622  -0.59752   0.86856
H     4.76044   1.81498   0.23804
H     2.72560   3.02326  -0.56315
H     0.56246   1.84900  -0.73914
