36
Generated by autodE on: 2022-05-26. E = -1008.761347 Ha. Imaginary frequency = -316.7 cm-1
C    -1.21364   2.66461  -2.03233
O    -0.72207   2.13998  -0.78674
C    -1.52961   1.31632  -0.12284
O    -2.64146   0.99260  -0.49032
C    -0.91221   0.80192   1.09447
C    -0.91994   0.75597   2.34704
C    -1.25607   1.05684   3.64338
N    -1.52195   1.29564   4.75744
N     0.58591  -0.89597   2.70859
N     0.81138  -1.06914   1.59428
C     0.56735  -0.67331   0.31769
C    -0.28202  -1.59350  -0.48120
C    -0.74770  -2.81042   0.04781
C    -1.61628  -3.61445  -0.68993
C    -2.03472  -3.21916  -1.96446
C    -1.57624  -2.01073  -2.49637
C    -0.70579  -1.20231  -1.76535
C     1.68698   0.11204  -0.29506
C     2.18770   1.24876   0.36377
C     3.23381   1.98225  -0.19249
C     3.79705   1.59035  -1.41233
C     3.31516   0.45281  -2.06448
C     2.26989  -0.28821  -1.50804
H    -2.11853   3.26505  -1.86326
H    -0.40688   3.29061  -2.42921
H    -1.43861   1.84283  -2.72661
H    -0.42237  -3.13903   1.03658
H    -1.96295  -4.55976  -0.26663
H    -2.71318  -3.85174  -2.54104
H    -1.89909  -1.68880  -3.48886
H    -0.36644  -0.25773  -2.18985
H     1.74798   1.56730   1.30997
H     3.60782   2.86789   0.32575
H     4.61327   2.16934  -1.85029
H     3.75800   0.13220  -3.01001
H     1.91665  -1.18486  -2.01700
