59
Generated by autodE on: 2022-10-24. E = -1554.840472 Ha
C     8.49340  -4.76459   5.27301
O     7.31282  -5.53848   5.04816
C     7.16471  -6.08083   3.78775
F     8.33065  -6.85974   3.54145
C     6.01785  -7.09173   3.78340
C     4.73564  -6.71880   4.52236
C     3.95162  -5.53232   3.96402
C     4.58220  -4.15463   4.24849
C     5.12294  -3.37169   3.01794
C     5.65117  -1.98629   3.47846
C     5.41161  -0.80407   2.76137
C     5.99741   0.40463   3.14950
C     6.83551   0.45927   4.26436
C     7.07588  -0.70881   4.99361
C     6.49074  -1.91376   4.60320
C     3.95324  -3.26914   2.02440
C     2.85406  -2.44959   2.32844
C     1.74238  -2.39733   1.48680
C     1.70020  -3.17521   0.32418
C     2.77395  -4.01473   0.02507
C     3.88512  -4.06506   0.87323
C     6.32791  -4.02457   2.35909
C     7.14103  -5.05996   2.65355
C     8.29644  -4.98419   1.61545
C     9.13623  -6.22315   1.30999
C    10.57063  -6.22013   1.71976
O     8.59080  -7.10594   0.67848
N     7.67559  -4.45139   0.41240
C     7.04265  -3.33459   1.13497
C     6.35136  -2.39423   0.26905
N     5.88584  -1.64746  -0.48424
C     8.35769  -2.74987   1.74664
O     8.67874  -1.61419   1.94170
O     9.11447  -3.83434   2.02255
H     9.38678  -5.40651   5.26450
H     8.38135  -4.31042   6.26521
H     8.60907  -3.97069   4.52084
H     5.80711  -7.34181   2.73246
H     6.44296  -7.99248   4.25185
H     4.09074  -7.61179   4.49063
H     4.96761  -6.54641   5.58584
H     2.94498  -5.55133   4.40872
H     3.79714  -5.68084   2.88445
H     3.83346  -3.49373   4.70620
H     5.38268  -4.26725   4.98580
H     4.76799  -0.81359   1.88489
H     5.79538   1.30760   2.56856
H     7.29703   1.40311   4.56372
H     7.72768  -0.68706   5.87015
H     6.70732  -2.80967   5.17999
H     2.86548  -1.84262   3.23528
H     0.90268  -1.74655   1.74201
H     0.83161  -3.13229  -0.33700
H     2.75161  -4.64107  -0.86968
H     4.69836  -4.74956   0.62731
H    10.68066  -5.88651   2.76127
H    11.00346  -7.21822   1.57673
H    11.10621  -5.49025   1.08856
H     6.96172  -5.11021   0.08807
