15
Generated by autodE on: 2022-10-24. E = -566.459439 Ha
C    -3.36316   0.05404   0.33521
C    -2.25410   0.37751  -0.61081
O    -2.39112   0.84045  -1.73207
C    -0.87522   0.10895  -0.13936
N     0.21488   0.32848  -0.84066
C     1.32836  -0.03137  -0.10932
C     2.65231   0.06927  -0.55462
N     3.76353   0.14348  -0.90337
C     0.86791  -0.51484   1.15252
O     1.38070  -0.95080   2.15542
O    -0.56546  -0.38944   1.05102
H    -4.32693   0.30062  -0.12631
H    -3.32739  -1.01609   0.59793
H    -3.23077   0.61938   1.27230
H     0.20289   0.71356  -1.78845
