44
Generated by autodE on: 2022-10-24. E = -988.329527 Ha
C    -2.70170  -4.42005   0.72451
O    -1.79783  -3.35573   1.02182
C    -0.80876  -3.08737   0.07935
F     0.09310  -4.16463   0.07916
C    -0.14129  -1.84344   0.47688
C     0.04562  -0.64825   0.40106
C    -0.00608   0.74154  -0.05900
C    -0.14730   1.75851   1.08284
C    -0.38163   1.35519   2.40286
C    -0.54517   2.30266   3.41938
C    -0.47901   3.66687   3.12670
C    -0.24614   4.07759   1.80922
C    -0.07893   3.13085   0.79682
C     1.27245   1.04868  -0.86024
C     1.25085   1.66550  -2.11696
C     2.44611   1.96519  -2.78215
C     3.67642   1.65358  -2.20066
C     3.70649   1.03795  -0.94391
C     2.51459   0.73960  -0.28323
C    -1.31776   0.76822  -0.91944
C    -1.47679  -0.32884  -1.99444
C    -2.17831  -1.65918  -1.59932
C    -1.29966  -2.90349  -1.36426
H    -3.22447  -4.64944   1.66276
H    -3.44458  -4.12479  -0.03355
H    -2.16572  -5.32014   0.38594
H    -0.43693   0.29094   2.64027
H    -0.72338   1.96899   4.44457
H    -0.60497   4.40742   3.92004
H    -0.18966   5.14202   1.56875
H     0.11347   3.46254  -0.22544
H     0.30458   1.92288  -2.59226
H     2.40885   2.44523  -3.76300
H     4.60759   1.88721  -2.72218
H     4.66246   0.78945  -0.47666
H     2.54457   0.26229   0.69944
H    -1.38120   1.76164  -1.38656
H    -2.16051   0.71150  -0.21358
H    -2.08018   0.12381  -2.79643
H    -0.50029  -0.55006  -2.45518
H    -2.82418  -1.49833  -0.71965
H    -2.86235  -1.91962  -2.42103
H    -1.84610  -3.81501  -1.64861
H    -0.40164  -2.86472  -1.99917
