59
Generated by autodE on: 2022-10-24. E = -1554.784104 Ha. Imaginary frequency = -366.2 cm-1
C     8.65839  -5.02165   5.15572
O     7.50255  -5.84908   5.03157
C     7.15914  -6.26391   3.75743
F     8.20271  -7.09203   3.28077
C     5.92367  -7.15869   3.84336
C     4.74242  -6.65557   4.67731
C     3.90356  -5.48283   4.14556
C     4.46007  -4.06661   4.39027
C     5.04519  -3.33157   3.12944
C     5.59689  -1.94554   3.53388
C     5.36249  -0.79418   2.77011
C     5.93647   0.43077   3.12473
C     6.75945   0.52718   4.24811
C     7.01017  -0.61744   5.01110
C     6.43819  -1.83953   4.65446
C     3.93113  -3.26379   2.07924
C     2.79672  -2.47398   2.32759
C     1.73714  -2.43652   1.42058
C     1.78606  -3.19903   0.24785
C     2.89915  -4.00413   0.00155
C     3.95905  -4.03867   0.91404
C     6.19767  -4.14713   2.68356
C     6.98326  -5.11447   2.81232
C     8.49480  -4.85154   1.34459
C     9.26107  -6.12606   1.14317
C    10.58049  -6.24772   1.83235
O     8.78810  -6.94870   0.38098
N     7.70023  -4.38622   0.35357
C     7.28824  -3.13552   0.74556
C     6.45117  -2.30185  -0.02932
N     5.77457  -1.59841  -0.66273
C     8.31404  -2.64379   1.66389
O     8.56455  -1.56035   2.12671
O     9.09041  -3.77201   1.94254
H     9.57214  -5.58101   4.90263
H     8.70463  -4.70969   6.20680
H     8.58582  -4.12917   4.51626
H     5.60925  -7.38565   2.81340
H     6.28610  -8.09891   4.28826
H     4.06741  -7.52043   4.78071
H     5.09389  -6.42614   5.69623
H     2.92533  -5.54037   4.64716
H     3.69045  -5.63898   3.07618
H     3.66821  -3.40993   4.77899
H     5.23764  -4.11051   5.16315
H     4.73743  -0.84548   1.88069
H     5.73971   1.31267   2.51028
H     7.20896   1.48412   4.52360
H     7.66284  -0.56327   5.88572
H     6.67412  -2.72302   5.24833
H     2.74215  -1.87609   3.23917
H     0.86750  -1.80956   1.63151
H     0.95777  -3.16871  -0.46394
H     2.94783  -4.61359  -0.90389
H     4.81242  -4.68650   0.71208
H    10.55267  -5.82069   2.84293
H    10.89111  -7.29973   1.85678
H    11.31779  -5.66735   1.24983
H     7.14116  -5.02850  -0.20975
