43
Generated by autodE on: 2022-06-19. E = -991.914748 Ha
C     3.57413  -1.94197   0.34795
N     2.32611  -1.23076   0.53290
C     2.02729  -0.12116  -0.14612
O     2.83340   0.43304  -0.91416
C     0.58267   0.39736   0.02343
C     0.49047   1.94577   0.17651
O    -0.55348   2.44558   0.61743
N     1.54569   2.68286  -0.18196
C     1.50799   4.13067  -0.14707
N    -0.08537  -0.25487   1.13809
C     0.24866   0.14411   2.49370
C    -1.46938  -0.64497   0.83332
C    -2.54064  -0.06918   1.77354
C    -1.52564  -2.13051   0.94444
N    -1.50428  -3.27757   1.12391
C    -1.67138  -0.13829  -0.61311
C    -2.70791  -0.83208  -1.44542
O    -3.49113  -1.66212  -1.02995
C    -0.25820  -0.05566  -1.24621
C    -0.18706   0.94958  -2.39660
C     0.18272  -1.43640  -1.76355
H     3.59096  -2.48521  -0.61220
H     4.41807  -1.23794   0.35763
H     3.70060  -2.66397   1.16437
H     1.56115  -1.65236   1.05511
H     2.32418   2.18286  -0.61554
H     1.19681   4.48930   0.84547
H     0.79948   4.53570  -0.88926
H     2.50983   4.51925  -0.36791
H    -0.01954  -0.65762   3.19834
H     1.33449   0.29521   2.56733
H    -0.24357   1.07731   2.81594
H    -2.48037   1.02621   1.76243
H    -2.41275  -0.43125   2.80230
H    -3.53277  -0.37932   1.41768
H    -2.03930   0.89785  -0.52369
H    -2.74871  -0.49779  -2.50782
H    -0.75138   0.57081  -3.26147
H    -0.60963   1.92602  -2.12036
H     0.85660   1.09249  -2.71116
H    -0.50832  -1.76649  -2.55424
H     0.18914  -2.20564  -0.98121
H     1.18644  -1.38690  -2.20886
