29
Generated by autodE on: 2022-07-27. E = -721.168140 Ha
C     2.37873  -2.56716  -0.07305
N     1.47670  -1.55178   0.43424
C     1.18764  -0.44512  -0.29982
O     1.90096  -0.16752  -1.28882
C     0.10122   0.43914   0.15226
C     0.03057   1.86430  -0.20182
O    -0.93177   2.58358   0.14077
N     1.05562   2.37083  -0.93178
C     0.98305   3.70767  -1.47770
N    -0.92534  -0.05357   0.95141
C    -1.33936   0.68085   2.16569
C    -1.52366  -1.22118   0.71768
C    -2.40270  -1.90263   1.71543
C    -1.29886  -1.85356  -0.53486
N    -1.18379  -2.40458  -1.55616
H     2.04163  -2.95478  -1.04888
H     2.40933  -3.39814   0.64270
H     3.39971  -2.17475  -0.19831
H     0.91220  -1.78948   1.24067
H     1.69513   1.68396  -1.33249
H     1.92492   3.93270  -1.99460
H     0.83542   4.45326  -0.68160
H     0.15318   3.82436  -2.19774
H    -1.18490   0.01919   3.02914
H    -0.72114   1.57190   2.27036
H    -2.39939   0.95637   2.10212
H    -3.26798  -1.27190   1.97446
H    -1.85013  -2.11269   2.64706
H    -2.77065  -2.84998   1.30419
