39
Generated by autodE on: 2022-06-17. E = -677.621859 Ha
C    -3.84486   1.53054   0.45553
C    -2.44710   1.45882  -0.08845
O    -1.77991   2.47273  -0.25001
C    -1.85463   0.09085  -0.45581
C    -1.25986   0.19874  -1.86845
N    -2.84922  -0.99641  -0.38851
C    -2.26787  -2.16373   0.30191
C    -0.78178  -1.85339   0.47152
C    -0.75523  -0.32227   0.62130
C    -1.19317   0.06587   2.05182
C     0.57270   0.33083   0.35482
C     1.74748  -0.29382   0.14398
C     3.00044   0.41348  -0.07392
C     4.21973  -0.13174  -0.29902
C     4.49158  -1.60912  -0.36127
C     5.42714   0.73935  -0.50972
H    -4.06831   2.55984   0.76670
H    -3.97638   0.83214   1.29360
H    -4.55586   1.21459  -0.32436
H    -0.70758  -0.71638  -2.12466
H    -0.58181   1.05631  -1.96103
H    -2.07403   0.32665  -2.60079
H    -3.11535  -1.25219  -1.33544
H    -2.44092  -3.08397  -0.27519
H    -2.74548  -2.31198   1.28653
H    -0.22601  -2.15401  -0.42857
H    -0.32765  -2.36153   1.33487
H    -1.21521   1.15752   2.18757
H    -2.18879  -0.32863   2.30164
H    -0.47319  -0.34368   2.77613
H     0.55829   1.42691   0.37204
H     1.77414  -1.38685   0.13375
H     2.93188   1.50807  -0.05272
H     5.23806  -1.89391   0.40134
H     4.93498  -1.87612  -1.33694
H     3.59816  -2.22915  -0.21196
H     6.20525   0.52133   0.24393
H     5.18167   1.81027  -0.45495
H     5.89011   0.53795  -1.49260
