23
Generated by autodE on: 2022-06-17. E = -351.521383 Ha
C     3.49760   0.57502  -1.31698
C     2.53983   0.23985  -0.42472
C     2.89116  -0.20687   0.97139
C     1.13070   0.30833  -0.80645
C     0.07841   0.00267  -0.00636
C    -1.30231   0.08925  -0.43655
C    -2.40689  -0.19394   0.29925
C    -3.78129  -0.05312  -0.29150
C    -2.37912  -0.65836   1.72774
H     3.23882   0.89904  -2.32979
H     4.55929   0.53342  -1.05820
H     2.43867   0.45706   1.72668
H     2.50622  -1.22034   1.17302
H     3.97940  -0.21376   1.12550
H     0.92825   0.63779  -1.83273
H     0.27202  -0.32615   1.01831
H    -1.45569   0.42120  -1.47058
H    -3.75198   0.28901  -1.33640
H    -4.32431  -1.01462  -0.25339
H    -4.38723   0.66203   0.29355
H    -2.94193   0.04366   2.36821
H    -2.88894  -1.63340   1.82249
H    -1.36693  -0.76022   2.13953
