16
Generated by autodE on: 2022-06-17. E = -326.046169 Ha
C    -2.00261   1.16662   0.22829
N    -1.53375  -0.03955   0.00469
C    -0.26103  -0.55256  -0.09913
C    -0.15128  -2.02859  -0.36537
C     0.86501   0.29697   0.04621
C     2.23293  -0.35001  -0.07848
O     0.78502   1.53500   0.26898
H    -1.30974   1.98844   0.37304
H    -3.08590   1.27959   0.25727
H    -2.25738  -0.75254  -0.11894
H    -1.14983  -2.48276  -0.46454
H     0.39878  -2.24754  -1.29664
H     0.37186  -2.56586   0.44481
H     3.00699   0.41814   0.05442
H     2.36409  -0.82704  -1.06368
H     2.37473  -1.13893   0.67853
