39
Generated by autodE on: 2022-06-17. E = -677.567923 Ha. Imaginary frequency = -283.4 cm-1
C    -2.80336   2.43656  -0.33341
C    -2.60906   0.93471  -0.44894
O    -3.53140   0.17217  -0.04260
C    -1.38248   0.49732  -1.01550
C    -0.38680   1.45726  -1.60209
N    -1.07188  -0.83624  -1.13086
C    -1.63374  -1.87470  -0.51022
C    -0.97927  -1.69345   1.62154
C    -0.68141  -0.35696   1.81938
C    -1.65774   0.52449   2.55617
C     0.55906   0.22060   1.35256
C     1.54060  -0.41841   0.64996
C     2.71523   0.25105   0.14391
C     3.71272  -0.28881  -0.60594
C     3.75809  -1.72586  -1.04261
C     4.87157   0.54919  -1.06687
H    -2.79305   2.92488  -1.32172
H    -2.00104   2.90267   0.26142
H    -3.76958   2.63333   0.15057
H    -0.03426   2.18691  -0.85541
H     0.50063   0.92351  -1.97300
H    -0.80353   2.03530  -2.44463
H    -0.16010  -1.01485  -1.55061
H    -1.20883  -2.85168  -0.73922
H    -2.67378  -1.77708  -0.22239
H    -0.18714  -2.41001   1.40066
H    -1.88315  -2.11217   2.07113
H    -1.45804   1.59193   2.38129
H    -2.69116   0.31413   2.23766
H    -1.60733   0.35040   3.64572
H     0.69263   1.29121   1.54683
H     1.43298  -1.48590   0.44002
H     2.79208   1.31797   0.38782
H     4.67494  -2.21472  -0.66700
H     3.80810  -1.79148  -2.14432
H     2.89565  -2.31604  -0.70626
H     5.82892   0.13343  -0.70281
H     4.79372   1.59115  -0.72261
H     4.94246   0.55190  -2.16999
