28
Generated by autodE on: 2022-06-12. E = -782.033654 Ha
C    -3.73978  -2.14908   0.13265
O    -2.91227  -1.05973   0.55632
C    -1.76092  -0.88258  -0.11409
O    -1.37860  -1.66505  -0.97521
C    -1.06132   0.34394   0.25524
N     0.28100   0.46534   0.02563
C     1.28711  -0.37488  -0.05226
C     1.19356  -1.82344   0.24274
C     2.57024   0.30768  -0.36385
O     2.66029   1.51467  -0.52655
O     3.59596  -0.53461  -0.43952
C     4.88154   0.03607  -0.72863
C    -1.67041   1.62488   0.59830
C    -3.15385   1.74697   0.82469
O    -0.94320   2.62969   0.68168
H    -3.22593  -3.10903   0.28715
H    -4.00500  -2.04672  -0.92993
H    -4.64236  -2.10134   0.75320
H     0.55395   1.46514  -0.01334
H     0.78570  -2.38856  -0.61063
H     2.18418  -2.21805   0.49414
H     0.50516  -1.98770   1.08748
H     5.58251  -0.80529  -0.76422
H     5.17141   0.74234   0.06255
H     4.85860   0.55736  -1.69629
H    -3.72622   1.30891  -0.00545
H    -3.44622   1.20533   1.73687
H    -3.40205   2.81061   0.93510
