19
Generated by autodE on: 2022-07-26. E = -585.877078 Ha
C     2.60883  -2.23992  -0.18401
O     1.37261  -1.82895   0.41193
C     0.90760  -0.61695   0.05612
O     1.46352   0.10162  -0.76299
C    -0.28481  -0.26228   0.80365
C    -0.66570  -0.99877   1.94401
N    -0.99080  -1.60672   2.88757
N    -0.96293   0.91171   0.56816
C    -1.09784   1.66018  -0.51015
C    -1.74178   3.00532  -0.42110
C    -0.71891   1.18878  -1.79646
N    -0.55020   0.87139  -2.90425
H     2.81492  -3.24141   0.21141
H     3.42129  -1.55112   0.09084
H     2.51741  -2.27690  -1.27937
H    -1.45692   1.28159   1.38823
H    -2.20055   3.15480   0.56665
H    -0.98544   3.79306  -0.57759
H    -2.50605   3.11711  -1.20489
