17
Generated by autodE on: 2022-05-29. E = -831.765986 Ha
F     0.17026   2.21587  -0.06847
C     0.04794   0.94971   0.33537
C     0.62032  -0.13783  -0.20031
Cl    1.64488  -0.21019  -1.59333
C    -0.03277  -1.34461   0.45482
C    -1.49111  -1.40393  -0.10396
C    -2.14851  -0.12990   0.50497
C    -0.98494   0.50251   1.34179
C    -0.28993  -0.77250   1.86663
H     0.53663  -2.27882   0.38011
H    -1.49857  -1.40929  -1.20319
H    -1.99266  -2.31941   0.24307
H    -2.98624  -0.38786   1.16938
H    -2.52345   0.56868  -0.25628
H    -1.28991   1.26390   2.07026
H     0.63551  -0.56258   2.42130
H    -0.95816  -1.40533   2.46986
