37
Generated by autodE on: 2022-06-17. E = -842.796102 Ha
C     1.14439   3.56057   0.32541
N     0.75094   2.22013  -0.05480
C     0.35138   1.27881   0.81219
O     0.30695   1.42869   2.03746
C    -0.02590  -0.07882   0.15962
C     1.17696  -1.00498   0.24466
C     1.70474  -1.61132  -0.90180
C     2.79448  -2.48266  -0.80210
C     3.36625  -2.75859   0.44209
C     2.84050  -2.15628   1.59039
C     1.75433  -1.28480   1.49364
O    -0.36319   0.13138  -1.22286
C    -1.77068   0.33330  -1.35155
C    -2.03303   1.62535  -2.00161
N    -2.24411   2.64914  -2.50535
C    -2.37333   0.24910   0.07144
C    -3.82150  -0.21382   0.08861
C    -1.32810  -0.63071   0.79068
C    -1.51334  -2.12899   0.57154
H     1.14859   3.63428   1.41939
H     2.15240   3.79276  -0.05124
H     0.44182   4.30641  -0.07905
H     0.69270   1.98198  -1.04062
H     1.25980  -1.40223  -1.87390
H     3.19648  -2.94771  -1.70554
H     4.21686  -3.43999   0.51850
H     3.27831  -2.36626   2.56920
H     1.35115  -0.81504   2.39134
H    -2.18447  -0.45522  -2.00251
H    -2.31875   1.25397   0.51867
H    -4.18800  -0.29746   1.12298
H    -3.94311  -1.19036  -0.40284
H    -4.46087   0.51176  -0.43843
H    -1.32877  -0.40762   1.86539
H    -2.48262  -2.45817   0.97271
H    -1.47583  -2.39776  -0.49592
H    -0.72859  -2.69881   1.08844
