25
Generated by autodE on: 2022-06-17. E = -685.382194 Ha
C    -2.30961  -3.19095  -0.59022
N    -1.32599  -2.12761  -0.55641
C    -1.48118  -0.99539   0.16136
O    -2.50855  -0.73030   0.80475
C    -0.36060  -0.01998   0.11134
O    -0.62392   1.24001   0.32700
C    -1.72384   1.92975   0.57505
C    -1.55752   3.31407   0.68026
N    -1.45637   4.47828   0.77755
C     1.04665  -0.30261  -0.15230
C     1.88220   0.71650  -0.66480
C     3.23285   0.47524  -0.89867
C     3.78550  -0.78274  -0.62777
C     2.97270  -1.79583  -0.11056
C     1.61894  -1.56305   0.13026
H    -2.61131  -3.40529  -1.62686
H    -1.90623  -4.11578  -0.14749
H    -3.19197  -2.87992  -0.01968
H    -0.47142  -2.25456  -1.08824
H    -2.68009   1.42457   0.67740
H     1.45657   1.69586  -0.88798
H     3.86027   1.27299  -1.30277
H     4.84504  -0.96972  -0.81571
H     3.39727  -2.77520   0.12102
H     1.01247  -2.35565   0.56876
