25
Generated by autodE on: 2022-07-27. E = -685.377683 Ha
C     1.07098   3.13158   1.34974
N     0.91157   1.85985   0.67244
C    -0.30789   1.33957   0.41580
O    -1.36121   1.97194   0.58111
C    -0.35037  -0.06069  -0.06713
O    -1.40422  -0.49371  -0.70662
C    -2.45903   0.03007  -1.30836
C    -2.62531   1.37203  -1.65489
N    -2.83386   2.43582  -2.05049
C     0.65470  -1.08938   0.19150
C     0.86071  -2.11040  -0.76184
C     1.79875  -3.11437  -0.53212
C     2.55013  -3.12144   0.64870
C     2.34907  -2.11963   1.60434
C     1.40889  -1.11382   1.38520
H     0.29298   3.82912   1.01341
H     0.99081   3.02574   2.44536
H     2.05660   3.55011   1.10850
H     1.72271   1.25476   0.59847
H    -3.13015  -0.72696  -1.71291
H     0.28580  -2.09931  -1.68940
H     1.95111  -3.89303  -1.28294
H     3.28830  -3.90707   0.82452
H     2.91904  -2.12875   2.53604
H     1.24011  -0.36080   2.15618
