37
Generated by autodE on: 2022-06-17. E = -842.683527 Ha. Imaginary frequency = -258.0 cm-1
C     1.01757   3.79703   0.27347
N     0.94397   2.43899  -0.23070
C     0.52498   1.42356   0.54708
O     0.38422   1.53162   1.76926
C     0.32291   0.12326  -0.19649
C     1.24515  -0.98368   0.00105
C     1.29179  -2.05323  -0.92101
C     2.14675  -3.13135  -0.70901
C     2.96657  -3.17493   0.42541
C     2.92621  -2.12179   1.34561
C     2.07923  -1.03420   1.13962
O    -0.33279   0.11690  -1.34252
C    -1.42334   0.79764  -1.70797
C    -1.72663   2.10694  -1.30355
N    -2.07525   3.18135  -0.99013
C    -2.73638  -0.11840   0.30284
C    -3.69517  -0.89550  -0.55590
C    -1.73369  -0.69354   1.03667
C    -1.45316  -2.16864   1.01901
H     1.63073   3.83777   1.18488
H     1.47197   4.43647  -0.49269
H     0.01176   4.18187   0.51079
H     1.01754   2.29318  -1.23322
H     0.65432  -2.02835  -1.80509
H     2.17279  -3.94825  -1.43401
H     3.63279  -4.02461   0.59031
H     3.56128  -2.14648   2.23413
H     2.04708  -0.22674   1.87082
H    -1.87343   0.40717  -2.61957
H    -3.00527   0.91511   0.53532
H    -4.45554  -1.39710   0.07234
H    -3.18824  -1.68487  -1.13164
H    -4.22992  -0.24373  -1.26174
H    -1.26175  -0.09829   1.81931
H    -2.28581  -2.72853   1.48281
H    -1.34527  -2.55778  -0.00661
H    -0.53713  -2.41681   1.57184
