47
Generated by autodE on: 2022-06-04. E = -1574.465761 Ha
C     3.65167  -2.56057  -0.37888
N     2.42815  -1.97191   0.13134
C     2.13888  -0.68387  -0.06861
O     2.92175   0.08991  -0.63226
C     0.81103  -0.14821   0.51448
C     0.79798  -0.56820   2.05569
C    -0.33267   0.09748   2.81235
C    -1.44553  -0.53975   2.43166
C    -0.98822  -1.54779   1.39593
O     0.30613  -1.90612   1.89624
C    -0.57034  -0.76231   0.06459
C    -0.49856  -1.76076  -1.10789
F    -0.13527  -2.99139  -0.69581
F    -1.68578  -1.89987  -1.71519
F     0.37812  -1.39799  -2.05802
C    -1.44537   0.47509  -0.29678
C    -2.88659   0.41215   0.21981
O    -3.48412   1.33953   0.72057
O    -3.43014  -0.78239   0.00702
C    -4.78904  -0.96760   0.43341
N    -0.74709   1.63819   0.24195
C    -1.14973   2.93792  -0.28834
C     0.68735   1.37707   0.22598
C     1.35921   2.14696   1.29297
N     1.86489   2.72116   2.16341
C     1.26314   1.77995  -1.16360
O     0.81401   1.33255  -2.19439
O     2.11771   2.79235  -1.08657
C     2.64749   3.28446  -2.32775
H     3.70816  -2.45971  -1.47421
H     4.53907  -2.07448   0.05546
H     3.66444  -3.62545  -0.11774
H     1.75517  -2.54331   0.63537
H     1.78916  -0.54776   2.51799
H    -0.22000   0.93850   3.49361
H    -2.47353  -0.35638   2.73683
H    -1.61274  -2.42736   1.22571
H    -1.53943   0.54261  -1.39763
H    -5.05143  -1.99525   0.15858
H    -5.45023  -0.25283  -0.07612
H    -4.86778  -0.83101   1.52162
H    -1.05763   2.99725  -1.38898
H    -0.52167   3.72158   0.15883
H    -2.19019   3.13769  -0.01372
H     3.30847   4.11752  -2.06406
H     3.21517   2.48946  -2.83242
H     1.83412   3.63142  -2.98042
