23
Generated by autodE on: 2022-06-04. E = -852.835645 Ha
C     4.17184   0.00760   0.07842
N     2.84521  -0.53480  -0.13787
C     1.76214   0.26571  -0.19389
O     1.83770   1.49570  -0.08160
C     0.46507  -0.42379  -0.39181
C    -0.77209   0.04244  -0.16144
C    -1.23460   1.35340   0.38393
F    -2.55057   1.29954   0.67949
F    -1.07267   2.36310  -0.48986
F    -0.59969   1.70173   1.51716
C    -1.71825  -1.15062  -0.44812
C    -1.47773  -2.18734   0.67304
C    -0.25094  -2.66114   0.44128
C     0.23297  -1.90459  -0.81552
O    -1.00162  -1.75974  -1.53250
H     4.44910   0.70789  -0.72531
H     4.89406  -0.81712   0.09612
H     4.22771   0.55251   1.03417
H     2.73862  -1.53944  -0.22725
H    -2.75266  -0.90796  -0.70872
H    -2.17180  -2.39911   1.48512
H     0.34594  -3.37332   1.00936
H     1.01420  -2.37107  -1.42446
