24
Generated by autodE on: 2022-06-04. E = -721.566335 Ha
C     4.66471   0.63825   0.28213
O     3.24592   0.80826   0.18052
C     2.50618  -0.31546   0.17319
O     2.99227  -1.43135   0.24864
C     1.09511   0.06165   0.06851
N     0.08242  -0.78485   0.01266
C     0.35369  -2.24567   0.03913
C    -1.24196  -0.39053  -0.07127
C    -2.25920  -1.37047  -0.10375
N    -3.13117  -2.14751  -0.13062
C    -1.65301   1.00854  -0.12689
O    -0.91899   1.98823  -0.10455
O    -2.99184   1.11412  -0.21370
C    -3.52788   2.44028  -0.28653
H     5.09141   1.64777   0.27126
H     5.04580   0.05508  -0.56919
H     4.92603   0.12498   1.21936
H     0.85643   1.11970   0.03923
H    -0.58253  -2.79204  -0.08264
H     1.04099  -2.49150  -0.77530
H     0.81875  -2.50154   0.99679
H    -3.26416   3.01595   0.61275
H    -4.61551   2.32014  -0.35226
H    -3.15060   2.96291  -1.17776
