47
Generated by autodE on: 2022-06-04. E = -1574.394351 Ha. Imaginary frequency = -235.8 cm-1
C     4.48768  -0.76201  -0.54042
N     3.26824  -0.71100   0.23838
C     2.04150  -0.89832  -0.30206
O     1.87565  -1.21909  -1.48641
C     0.89810  -0.71439   0.62806
C     1.06728  -0.87284   2.17753
C     0.23719   0.18691   2.88881
C    -1.03370  -0.17214   2.68079
C    -0.95166  -1.44265   1.84222
O     0.24875  -2.04456   2.36708
C    -0.44658  -1.05902   0.40328
C    -0.94515  -1.96232  -0.69608
F    -0.30018  -3.14781  -0.68700
F    -2.25657  -2.25088  -0.50711
F    -0.84814  -1.47186  -1.94116
C    -1.41919   0.83835  -0.26682
C    -2.88454   0.68779  -0.06073
O    -3.50568   0.85548   0.97176
O    -3.43699   0.24681  -1.19152
C    -4.81679  -0.14301  -1.12970
N    -0.66162   1.75978   0.36696
C    -1.18012   2.70176   1.37783
C     0.68842   1.76398   0.08612
C     1.56671   2.39377   1.01124
N     2.31700   2.85875   1.77151
C     1.17730   1.65783  -1.31413
O     0.48618   1.43943  -2.29107
O     2.49306   1.86723  -1.37461
C     3.10013   1.78049  -2.67419
H     4.31006  -1.34374  -1.45225
H     4.82894   0.24624  -0.82663
H     5.28504  -1.24554   0.04235
H     3.32962  -0.30427   1.16507
H     2.08669  -1.03577   2.53583
H     0.64242   1.06254   3.39155
H    -1.95552   0.33429   2.95478
H    -1.80368  -2.12693   1.86970
H    -1.08022   0.57854  -1.26180
H    -5.07060  -0.50699  -2.13145
H    -5.44719   0.71717  -0.86349
H    -4.94983  -0.94201  -0.38613
H    -1.14744   3.70975   0.94052
H    -0.56278   2.68056   2.28023
H    -2.20582   2.43539   1.63306
H     4.16857   1.96335  -2.51733
H     2.93902   0.77995  -3.09674
H     2.67613   2.54250  -3.34319
