48
Generated by autodE on: 2022-05-30. E = -999.902122 Ha
C    -0.97993   1.46951   3.77495
N    -1.11535   0.87512   2.46553
C    -0.29137   1.11088   1.43701
O     0.68277   1.87129   1.48303
C    -0.62086   0.26516   0.16870
C    -0.33452   1.06047  -1.11322
C     0.09258   0.40570  -2.27733
C     0.26095   1.10457  -3.47571
C     0.00043   2.47670  -3.53156
C    -0.43106   3.13979  -2.37880
C    -0.59738   2.43677  -1.18287
C     0.17444  -1.04817   0.25420
C     1.63462  -1.14318   0.45005
C     2.18009  -2.29585   1.05304
C     3.55730  -2.44160   1.21721
C     4.42837  -1.43369   0.78924
C     3.90299  -0.28001   0.20103
C     2.52399  -0.13336   0.03424
C    -0.66490  -2.08686   0.11677
C    -2.09863  -1.67087  -0.05295
C    -2.59056  -1.99002  -1.47852
C    -3.00703  -2.36006   0.97689
N    -2.01094  -0.22232   0.23620
C    -3.06855   0.64215  -0.23742
H    -0.82879   0.69844   4.54739
H    -1.87650   2.05133   4.04126
H    -0.11169   2.14047   3.77334
H    -1.88726   0.24678   2.23577
H     0.30372  -0.66401  -2.24677
H     0.60065   0.57325  -4.36812
H     0.13405   3.02611  -4.46649
H    -0.64036   4.21191  -2.40871
H    -0.93387   2.97206  -0.29396
H     1.51097  -3.08007   1.41211
H     3.95239  -3.34360   1.69090
H     5.50732  -1.54431   0.92091
H     4.57138   0.51707  -0.13372
H     2.13735   0.77489  -0.42243
H    -0.37137  -3.13744   0.09982
H    -2.50281  -3.06964  -1.67487
H    -3.64855  -1.71187  -1.60248
H    -1.99768  -1.45302  -2.23228
H    -4.03348  -1.96572   0.91152
H    -3.05051  -3.44530   0.79435
H    -2.63093  -2.18987   1.99720
H    -3.06589   0.81573  -1.33058
H    -2.99967   1.62401   0.25512
H    -4.04239   0.20864   0.03570
