14
Generated by autodE on: 2022-05-30. E = -308.537347 Ha
C     3.16113  -0.54795   0.26835
C     1.96769  -0.34162   0.16741
C     0.56090  -0.09760   0.04788
C     0.05148   1.21183   0.16754
C    -1.31868   1.44443   0.05017
C    -2.19681   0.38133  -0.18687
C    -1.69903  -0.92070  -0.30677
C    -0.33053  -1.16377  -0.19098
H     4.21844  -0.73204   0.35795
H     0.73873   2.03954   0.35243
H    -1.70377   2.46231   0.14442
H    -3.26932   0.56769  -0.27817
H    -2.38175  -1.75310  -0.49186
H     0.06029  -2.17875  -0.28424
