48
Generated by autodE on: 2022-05-30. E = -999.787912 Ha. Imaginary frequency = -436.4 cm-1
C     0.30636   1.01713   3.43899
N     0.15302   0.86363   2.00963
C    -1.07033   0.78643   1.42325
O    -2.10785   0.92216   2.10325
C    -1.10130   0.56308  -0.03703
C    -0.20716   1.28323  -0.94119
C     0.01482   0.83949  -2.27044
C     0.87483   1.51343  -3.13450
C     1.57536   2.64592  -2.70482
C     1.38524   3.09590  -1.39369
C     0.50580   2.43863  -0.53413
C     0.20228  -1.97788  -0.52006
C     1.41265  -1.55347   0.07401
C     1.69242  -1.91045   1.42059
C     2.84921  -1.45878   2.05058
C     3.75981  -0.64259   1.36654
C     3.50672  -0.29991   0.03229
C     2.35986  -0.75363  -0.61618
C    -0.89486  -2.41053  -0.93269
C    -2.50380  -1.41087  -0.14191
C    -3.72934  -2.04729  -0.75228
C    -2.27722  -1.83755   1.28861
N    -2.19137  -0.12945  -0.54869
C    -2.86981   0.37554  -1.75286
H     1.37542   1.09736   3.67473
H    -0.20149   1.92625   3.79776
H    -0.11215   0.15942   3.99421
H     0.96268   0.58349   1.46949
H    -0.46920  -0.07065  -2.61904
H     1.01681   1.13402  -4.14973
H     2.25938   3.16684  -3.37852
H     1.91637   3.98221  -1.03707
H     0.36235   2.83398   0.47077
H     0.97509  -2.52748   1.96472
H     3.03786  -1.73793   3.09004
H     4.66160  -0.28292   1.86678
H     4.21561   0.32684  -0.51448
H     2.17825  -0.48932  -1.65630
H    -1.37920  -3.17752  -1.53032
H    -3.77830  -3.09901  -0.44088
H    -4.64619  -1.55052  -0.38931
H    -3.73410  -2.01615  -1.84886
H    -3.02673  -1.36062   1.94101
H    -2.39255  -2.92759   1.35611
H    -1.28395  -1.57619   1.66571
H    -2.67490  -0.24414  -2.63906
H    -2.53774   1.39791  -1.95032
H    -3.95315   0.39528  -1.57103
