30
Generated by autodE on: 2022-06-03. E = -726.014167 Ha
C     4.87931  -1.95767  -0.50028
N     3.45218  -1.83296  -0.29015
C     2.82698  -0.63914  -0.35461
O     3.43079   0.42337  -0.59969
C     1.38179  -0.65921  -0.12000
N     0.76980   0.50271  -0.20720
C    -0.51069   0.91412  -0.08752
C    -0.65795   2.33790  -0.32564
C    -2.00922   2.98901  -0.17266
O     0.33288   3.02637  -0.64363
C    -1.58673  -0.02831   0.26740
C    -2.76907  -0.09363  -0.49395
C    -3.79528  -0.97426  -0.14571
C    -3.65755  -1.81378   0.96379
C    -2.48507  -1.76391   1.72556
C    -1.46038  -0.88066   1.38270
H     5.44800  -1.38009   0.24667
H     5.16027  -3.01430  -0.41590
H     5.17039  -1.59315  -1.49864
H     2.90631  -2.66216  -0.08005
H     0.82497  -1.56847   0.09997
H     1.39926   1.29535  -0.43854
H    -2.56229   2.92426  -1.12453
H    -2.62427   2.51247   0.60237
H    -1.86306   4.05284   0.06059
H    -2.87835   0.54478  -1.37220
H    -4.70461  -1.00971  -0.75044
H    -4.45952  -2.50479   1.23371
H    -2.37054  -2.41199   2.59777
H    -0.55853  -0.83942   1.99711
