30
Generated by autodE on: 2022-07-27. E = -725.993347 Ha
C     0.15722   3.41576   2.23347
N     0.26251   2.64329   1.01067
C     1.45044   2.49364   0.38901
O     2.44719   3.17189   0.66850
C     1.49205   1.58748  -0.78014
N     0.84121   0.45783  -0.95421
C     0.18935  -0.40650  -0.09287
C     0.61418  -0.47165   1.27968
C    -0.07960  -1.41958   2.23704
O     1.55040   0.22859   1.72048
C    -0.74663  -1.32671  -0.76522
C    -1.59856  -0.83080  -1.77623
C    -2.46564  -1.67658  -2.47156
C    -2.51565  -3.03911  -2.16598
C    -1.67579  -3.54819  -1.16859
C    -0.79647  -2.70908  -0.48451
H     0.72440   2.94762   3.05577
H     0.54736   4.43262   2.08371
H    -0.89841   3.48175   2.52446
H    -0.46850   1.96406   0.81920
H     2.07751   1.93642  -1.63273
H     0.85168   0.12772  -1.92504
H     0.47823  -2.36742   2.31035
H    -0.06800  -0.95319   3.23273
H    -1.11335  -1.65004   1.94999
H    -1.59682   0.23759  -2.00497
H    -3.11548  -1.26320  -3.24678
H    -3.19919  -3.70116  -2.70251
H    -1.69158  -4.61520  -0.93311
H    -0.12078  -3.13836   0.25473
