22
Generated by autodE on: 2022-06-03. E = -574.845912 Ha
C     3.40639  -1.19405   0.56690
O     2.02327  -1.07738   0.21571
C     1.51529   0.17039   0.15926
O     2.18965   1.16300   0.39246
C     0.10336   0.15400  -0.20259
C    -0.79749   1.16004  -0.15346
C    -0.69873   2.58207   0.24143
C    -2.14064   0.47844  -0.51917
C    -2.51479  -0.42571   0.67569
C    -1.62773  -1.42467   0.63478
C    -0.72245  -1.10274  -0.57489
O    -1.68286  -0.50269  -1.46495
H     4.03864  -0.67338  -0.16749
H     3.63086  -2.26722   0.56403
H     3.59070  -0.77185   1.56583
H     0.31888   2.86070   0.53862
H    -1.39304   2.77930   1.07764
H    -1.02665   3.23114  -0.58896
H    -2.91941   1.13007  -0.93046
H    -3.30068  -0.21510   1.39997
H    -1.48845  -2.26236   1.31733
H    -0.18182  -1.93076  -1.04257
