51
Generated by autodE on: 2022-12-30. E = -1279.810368 Ha
C    -4.22511   1.75755   1.44442
N    -2.99791   1.11821   1.01423
C    -2.74104   0.90047  -0.27597
O    -3.51570   1.23474  -1.18333
C    -1.44807   0.17719  -0.68764
C    -1.80872  -1.20626  -1.31110
C    -2.59320  -1.99775  -0.24043
C    -1.50021  -2.31213   0.82642
C    -0.20589  -1.73283   0.19766
C    -0.48195  -1.98204  -1.29530
C    -0.28637  -0.19134   0.33641
O    -0.57681   0.25079   1.64272
C     0.26825  -0.15763   2.71514
C     0.93833   0.65623  -0.25507
C     2.33320   0.22222   0.11764
C     3.11977   0.92250   1.04423
C     4.40186   0.47168   1.37019
C     4.92061  -0.67890   0.77188
C     4.14900  -1.37453  -0.16358
C     2.86752  -0.92731  -0.48927
C     0.48939   2.10721   0.08531
O     0.84157   2.89305   0.92331
O    -0.51700   2.39036  -0.79027
C    -0.66990   1.15663  -1.60946
C    -1.28754   1.51641  -2.88415
N    -1.71377   1.78190  -3.92765
N     0.65688   0.63059  -1.70666
C     1.59257   1.36718  -2.55764
H    -4.23593   1.80232   2.54030
H    -4.30492   2.78172   1.04585
H    -5.10680   1.19287   1.10256
H    -2.27599   0.84151   1.67981
H    -2.32381  -1.10986  -2.27478
H    -2.98342  -2.91990  -0.69368
H    -3.45089  -1.44997   0.17073
H    -1.37957  -3.39472   0.97037
H    -1.72884  -1.86899   1.80335
H     0.71865  -2.16147   0.59887
H    -0.64178  -3.05154  -1.49725
H     0.27832  -1.59671  -1.97492
H    -0.30222   0.01194   3.63831
H     0.53096  -1.22315   2.64843
H     1.18910   0.44077   2.74853
H     2.72883   1.82214   1.51499
H     4.99777   1.02929   2.09640
H     5.92333  -1.02893   1.02784
H     4.54622  -2.26973  -0.64734
H     2.28633  -1.47059  -1.23321
H     2.56799   0.86754  -2.52688
H     1.72631   2.42184  -2.25625
H     1.23029   1.33940  -3.59396
