28
Generated by autodE on: 2022-12-30. E = -595.568201 Ha
C     3.47606   1.49867  -0.35934
N     2.12647   1.11069  -0.01221
C     1.68546  -0.16082  -0.17792
O     2.44135  -1.05554  -0.60923
C     0.29240  -0.43990   0.17763
C    -0.72306   0.42353   0.46463
O    -0.60261   1.75823   0.54409
C    -1.74519   2.54016   0.90332
C    -2.02240  -0.35917   0.48174
C    -2.29648  -0.72918  -1.01656
C    -1.16136  -1.74373  -1.34253
C    -0.36154  -1.80371  -0.00408
C    -1.50974  -1.71023   1.02078
H     4.22086   0.90627   0.19640
H     3.68076   1.36203  -1.43493
H     3.61770   2.55792  -0.11023
H     1.46091   1.81611   0.28688
H    -1.40739   3.58362   0.91754
H    -2.11476   2.26070   1.90160
H    -2.54978   2.42648   0.16144
H    -2.86729   0.10933   0.99764
H    -2.28319   0.16057  -1.66199
H    -3.29035  -1.19242  -1.10258
H    -1.57284  -2.73301  -1.59482
H    -0.52104  -1.42097  -2.17574
H     0.32494  -2.65475   0.07981
H    -2.25461  -2.51479   0.92237
H    -1.15716  -1.65160   2.06085
