23
Generated by autodE on: 2022-12-30. E = -684.220631 Ha
C     1.24561   1.99462  -0.19348
N     1.18769   0.54757   0.01623
C     2.27814  -0.21232   0.17283
C     3.61362   0.20786   0.19859
N     4.72898   0.55248   0.22181
O     1.92606  -1.50035   0.29396
C     0.51622  -1.59218   0.20255
O    -0.03380  -2.67730   0.27606
C     0.06615  -0.24421   0.03700
C    -1.32258   0.18623  -0.08851
C    -1.79587   1.41446   0.41831
C    -3.13932   1.76614   0.28137
C    -4.03965   0.90123  -0.34774
C    -3.58506  -0.32763  -0.83786
C    -2.24338  -0.68376  -0.71212
H     1.05386   2.51887   0.75100
H     0.49291   2.27519  -0.93832
H     2.24370   2.25564  -0.56301
H    -1.12617   2.09012   0.94862
H    -3.48614   2.72157   0.68172
H    -5.09084   1.18012  -0.44975
H    -4.27987  -1.01333  -1.32837
H    -1.89613  -1.64076  -1.10194
