51
Generated by autodE on: 2022-12-30. E = -1279.766195 Ha. Imaginary frequency = -333.6 cm-1
C    -4.51531   2.20288   0.97171
N    -3.27830   1.47133   0.79214
C    -2.97444   0.88160  -0.37480
O    -3.75238   0.89863  -1.34190
C    -1.63911   0.18740  -0.50465
C    -1.65237  -1.04205  -1.43289
C    -2.58838  -2.08579  -0.75526
C    -1.78328  -2.51617   0.50810
C    -0.45313  -1.69844   0.36823
C    -0.28916  -1.69467  -1.15481
C    -0.88274  -0.27323   0.63625
O    -1.13437   0.17681   1.87496
C    -0.32802  -0.31787   2.95102
C     1.22542   1.13462  -0.08175
C     2.48684   0.51732   0.32047
C     3.15333   0.97624   1.48023
C     4.33775   0.37988   1.90737
C     4.89621  -0.68568   1.19252
C     4.25034  -1.14827   0.04305
C     3.06099  -0.55989  -0.38919
C     0.45673   2.07362   0.69417
O     0.54562   2.50946   1.82966
O    -0.60024   2.48491  -0.12695
C    -0.57126   1.65753  -1.24878
C    -1.22576   2.20435  -2.40968
N    -1.77302   2.61582  -3.34706
N     0.72866   1.21564  -1.38079
C     1.40079   0.93498  -2.64000
H    -4.56908   3.07357   0.29743
H    -4.57171   2.55616   2.00864
H    -5.38929   1.56507   0.76568
H    -2.60209   1.41829   1.54783
H    -1.89727  -0.81218  -2.47647
H    -3.57513  -1.66861  -0.51476
H    -2.74425  -2.93661  -1.43433
H    -2.30625  -2.28944   1.44758
H    -1.55056  -3.59101   0.49970
H     0.38536  -2.06963   0.96810
H    -0.22399  -2.71200  -1.56608
H     0.56907  -1.12667  -1.50252
H    -0.56676   0.30223   3.82280
H    -0.57281  -1.36911   3.16371
H     0.73811  -0.22198   2.70472
H     2.72737   1.80295   2.04606
H     4.83222   0.75498   2.80663
H     5.82511  -1.15113   1.52954
H     4.67024  -1.98190  -0.52459
H     2.57973  -0.96182  -1.27809
H     2.46482   1.17906  -2.53442
H     1.30122  -0.11231  -2.95969
H     0.97449   1.57916  -3.41985
