37
Generated by autodE on: 2022-06-01. E = -3606.903214 Ha
C     4.19391  -1.09704   0.73587
N     3.08069  -0.58571  -0.04284
C     2.12679  -1.40279  -0.49882
O     2.16796  -2.62680  -0.32806
C     0.93389  -0.85706  -1.35743
C     1.33410  -1.10663  -2.81459
N    -0.26655  -1.61895  -1.00597
C    -0.84191  -1.07905   0.21491
C    -0.16551  -1.58995   1.43260
N     0.36094  -2.10472   2.32926
C    -2.35557  -1.43329   0.39972
C    -3.08094  -1.99278  -0.77751
O    -2.85861  -1.23197   1.48455
C    -0.64458   0.47876   0.04167
Br   -0.17277   1.36555   1.71236
C    -1.84692   1.20855  -0.66126
C    -1.48294   2.67966  -0.80090
C    -0.56614   2.72719  -1.77381
C    -0.37628   1.28457  -2.21644
O    -1.67437   0.72543  -1.99639
C     0.45688   0.59212  -1.07985
F     1.50857   1.43156  -0.75763
H     3.83668  -1.59696   1.65020
H     4.84259  -0.25895   1.01715
H     4.78161  -1.82626   0.15724
H     2.98445   0.41243  -0.18271
H     0.47717  -0.96449  -3.48528
H     2.14659  -0.42537  -3.10655
H     1.68911  -2.14070  -2.92452
H    -0.04464  -2.61208  -0.92022
H    -2.95576  -1.33832  -1.65132
H    -4.14132  -2.12313  -0.52745
H    -2.63216  -2.96323  -1.04637
H    -2.83797   0.97293  -0.26179
H    -1.86234   3.48302  -0.17197
H     0.00584   3.57913  -2.13831
H    -0.02125   1.10654  -3.23387
