24
Generated by autodE on: 2022-07-27. E = -626.466292 Ha
C     3.82621   0.46443   0.58167
N     2.70499   0.69608  -0.31082
C     1.68018  -0.16292  -0.37468
O     1.62237  -1.21932   0.26155
C     0.58508   0.17984  -1.34852
C     0.92788   0.46996  -2.76752
N    -0.66393   0.11681  -0.97110
C    -1.25493   0.00172   0.28352
C    -0.51792   0.28556   1.44855
N     0.07208   0.54708   2.42354
C    -2.65320  -0.32169   0.40880
C    -3.45455  -0.57993  -0.85032
O    -3.19039  -0.39369   1.52622
H     4.54215   1.28709   0.47183
H     3.48802   0.41848   1.62888
H     4.32976  -0.48442   0.34190
H     2.66522   1.55656  -0.84904
H     1.45656   1.43635  -2.84131
H     0.02800   0.51846  -3.39697
H     1.60997  -0.30163  -3.15894
H    -1.34087   0.19621  -1.73591
H    -3.43525   0.28886  -1.53027
H    -4.49599  -0.77820  -0.56700
H    -3.06011  -1.44773  -1.40311
