37
Generated by autodE on: 2022-06-01. E = -3606.827261 Ha. Imaginary frequency = -297.9 cm-1
C     4.08300  -1.14611   0.75280
N     2.98145  -0.80794  -0.12846
C     2.02628  -1.69944  -0.40405
O     2.05586  -2.86883  -0.00767
C     0.89576  -1.30873  -1.35407
C     1.27224  -1.36305  -2.80654
N    -0.33043  -1.74136  -1.00886
C    -0.90633  -1.63164   0.22842
C    -0.14221  -1.63922   1.42027
N     0.43517  -1.63649   2.43345
C    -2.35933  -1.77410   0.39306
C    -3.20574  -2.02704  -0.82808
O    -2.85752  -1.67650   1.51534
C    -0.47224   0.97036   0.05100
Br   -0.00869   1.63278   1.73877
C    -1.82284   1.31477  -0.60556
C    -1.70679   2.78406  -1.05848
C    -0.83433   2.76945  -2.07291
C    -0.43577   1.28996  -2.24203
O    -1.65157   0.62922  -1.86198
C     0.42085   0.91894  -1.01337
F     1.66025   1.47042  -0.94498
H     4.62888  -2.02590   0.38063
H     3.71926  -1.37356   1.76815
H     4.77046  -0.29338   0.80303
H     2.86989   0.14862  -0.44490
H     0.39063  -1.24903  -3.45279
H     1.99674  -0.56902  -3.03706
H     1.75336  -2.32930  -3.03404
H    -0.99974  -1.76915  -1.77723
H    -3.09181  -1.21352  -1.56047
H    -4.25633  -2.09873  -0.52097
H    -2.90454  -2.96576  -1.32141
H    -2.73432   1.00624  -0.08421
H    -2.20366   3.62718  -0.58030
H    -0.42929   3.59625  -2.65490
H    -0.07804   0.97295  -3.22539
