47
Generated by autodE on: 2022-06-06. E = -2071.147190 Ha
C    -3.42386  -1.23947   0.87922
C    -2.28880  -0.95358  -0.10709
C    -2.81062  -0.91047  -1.50204
N    -3.20384  -0.91863  -2.59300
O    -1.37554  -2.04376   0.03149
N    -0.02992  -1.53766  -0.00411
C     0.57490  -1.92983  -1.25772
C     0.38731  -1.19292  -2.43315
C     0.96221  -1.64181  -3.62286
C     1.71300  -2.82213  -3.63969
C     1.89219  -3.55561  -2.46224
C     1.32446  -3.10840  -1.26769
C    -0.13340  -0.15603   0.31953
C    -1.41480   0.27316   0.21527
C    -2.08492   1.60648   0.45973
Cl   -1.25431   2.95697  -0.52917
C    -3.42415   1.66272  -0.15030
N    -4.48702   1.77724  -0.59890
C    -2.24308   1.98702   1.97058
C    -1.31430   1.29179   2.96143
C     0.13012   1.78042   2.98731
C     0.90881   1.81774   1.67019
C     1.14945   0.50611   0.86219
C     1.86116  -0.51027   1.81343
F     2.44498  -1.53995   1.19101
F     0.98738  -1.01753   2.69539
F     2.82743   0.10490   2.51491
C     2.12785   0.90475  -0.29417
F     1.47931   1.63918  -1.20635
F     3.15316   1.63946   0.16339
F     2.67482  -0.13651  -0.93142
H    -3.80343  -2.25118   0.67601
H    -3.01894  -1.19960   1.89910
H    -4.25442  -0.53134   0.77957
H    -0.18314  -0.26334  -2.41926
H     0.82415  -1.06586  -4.54054
H     2.16272  -3.16913  -4.57274
H     2.48076  -4.47557  -2.47272
H     1.46097  -3.65920  -0.33621
H    -2.17778   3.08169   2.04939
H    -3.27475   1.71328   2.23391
H    -1.74333   1.46820   3.96037
H    -1.35896   0.20341   2.80998
H     0.68473   1.20360   3.74173
H     0.13484   2.82326   3.34506
H     0.45308   2.53886   0.98815
H     1.90025   2.22052   1.90090
