20
Generated by autodE on: 2022-06-06. E = -532.614753 Ha
C    -2.89284  -1.06997  -1.15586
C    -2.39607  -0.03625  -0.22932
C    -3.20871   0.87349   0.48017
N    -3.91506   1.60945   1.04968
O    -1.11959   0.11025   0.00420
N    -0.24184  -0.68584  -0.59891
C     1.04389  -0.35076  -0.21072
C     2.06925  -1.13805  -0.78291
C     3.40299  -0.89442  -0.46746
C     3.74474   0.13368   0.42011
C     2.73182   0.91741   0.98971
C     1.39272   0.68725   0.68527
H    -3.98643  -1.03737  -1.22528
H    -2.56335  -2.06785  -0.81349
H    -2.44349  -0.92176  -2.15470
H     1.79127  -1.93705  -1.47314
H     4.18408  -1.51170  -0.91756
H     4.79149   0.32387   0.66650
H     2.99123   1.72180   1.68248
H     0.61331   1.30319   1.13380
