20
Generated by autodE on: 2022-07-27. E = -532.610510 Ha
C    -1.35082   0.46107   3.32283
C    -1.23963  -0.35295   2.08668
C    -1.90417  -1.58882   1.90866
N    -2.47520  -2.60339   1.82073
O    -0.49443   0.10535   1.12319
N    -0.35072  -0.55309  -0.02595
C     0.49992   0.13616  -0.86819
C     1.15283   1.35661  -0.57104
C     1.98817   1.94372  -1.51776
C     2.19613   1.34400  -2.76754
C     1.55262   0.13607  -3.06503
C     0.71403  -0.46501  -2.13081
H    -1.02885  -0.12042   4.20265
H    -2.39592   0.77027   3.49342
H    -0.72060   1.35547   3.22802
H     1.00187   1.83315   0.39754
H     2.48754   2.88565  -1.27710
H     2.85417   1.81422  -3.50130
H     1.70642  -0.34192  -4.03548
H     0.20760  -1.40643  -2.35337
