27
Generated by autodE on: 2022-06-06. E = -1538.430581 Ha
N    -0.90313   1.79720  -4.38889
C    -1.14519   1.53726  -3.28542
C    -1.47249   1.17887  -1.90259
Cl   -2.32742   2.65752  -1.18699
C    -0.31206   0.88047  -1.07871
C     0.30711   0.32766  -0.20034
C     0.63323  -0.61885   0.86051
C     1.12272   0.14304   2.11788
F     0.23308   1.08432   2.45993
F     2.29441   0.75708   1.90880
F     1.27011  -0.67620   3.16505
C     1.73102  -1.59723   0.37045
F     1.28942  -2.32952  -0.66024
F     2.09901  -2.44375   1.34026
F     2.82734  -0.94910  -0.04349
C    -0.69102  -1.38923   1.20749
C    -1.63574  -1.72994   0.03806
C    -2.63468  -0.63834  -0.43912
C    -2.42288  -0.05031  -1.84573
H    -1.23861  -0.77355   1.93477
H    -0.39913  -2.31133   1.72998
H    -1.06232  -2.11617  -0.81648
H    -2.23111  -2.58187   0.39851
H    -3.63647  -1.09164  -0.45796
H    -2.69806   0.17985   0.29652
H    -1.98974  -0.81120  -2.51486
H    -3.37722   0.26878  -2.28868
