8
Generated by autodE on: 2022-10-21. E = -2765.505921 Ha
C    -3.63362   0.35726   0.34261
O    -2.56797  -0.22474   1.13449
C    -1.37286  -0.13887   0.64109
C    -0.23845  -0.08021   0.21502
Br    1.45015   0.00555  -0.41346
H    -4.55643   0.19132   0.91021
H    -3.45325   1.43401   0.20908
H    -3.68863  -0.14483  -0.63443
