31
Generated by autodE on: 2022-10-21. E = -3353.841450 Ha. Imaginary frequency = -343.8 cm-1
C    -1.41926   3.81407   0.13653
N    -1.06042   2.63058  -0.61739
C    -1.55855   1.41638  -0.29481
O    -2.39801   1.28882   0.61964
C    -1.04505   0.25796  -1.04856
C    -1.49693  -1.14686  -0.88816
O    -0.99625  -2.06014  -1.56609
N    -2.44497  -1.35843   0.04678
C    -2.79447  -2.69486   0.47343
N    -0.15807   0.45576  -2.01150
C     0.96573   0.41838  -2.41252
C     1.85646   0.53967  -3.55997
C     2.01116  -0.08994  -0.40176
O     3.21171  -0.07303  -0.94908
C     4.28231  -0.36588  -0.02741
C     1.15004  -0.20335   0.47677
Br    0.33860  -0.49913   2.07879
H    -1.06743   3.75746   1.18048
H    -2.51090   3.95372   0.15728
H    -0.96226   4.68959  -0.34073
H    -0.33206   2.70166  -1.31832
H    -2.69997  -0.53982   0.60499
H    -3.04680  -3.32911  -0.38933
H    -1.96766  -3.18330   1.01951
H    -3.66684  -2.64349   1.13778
H     2.62730   1.29434  -3.34514
H     2.37378  -0.42179  -3.70279
H     1.30262   0.80618  -4.47323
H     4.29848   0.38053   0.78172
H     4.15072  -1.37356   0.39585
H     5.21176  -0.31680  -0.60811
