10
Generated by autodE on: 2022-06-16. E = -264.365770 Ha
C    -2.94388  -0.41622   0.28585
C    -1.58325   0.01761   0.06758
N    -0.48957   0.37785  -0.11211
C     0.76467   0.80838  -0.32464
C     1.84961  -0.03184  -0.07427
N     2.77890  -0.72283   0.12942
H    -3.13951  -0.59663   1.35489
H    -3.16241  -1.32659  -0.29477
H    -3.61222   0.38774  -0.06404
H     0.89440   1.82580  -0.69460
