12
Generated by autodE on: 2022-06-16. E = -381.636096 Ha
O    -2.07655   1.67096   0.08160
C    -1.12148   0.90212   0.04377
C    -1.31834  -0.56782   0.04841
C    -0.27099  -1.40979   0.00762
C     1.12149  -0.90212  -0.04369
O     2.07654  -1.67096  -0.08164
C     1.31834   0.56782  -0.04842
C     0.27099   1.40980  -0.00763
H    -2.35221  -0.91883   0.08667
H    -0.39139  -2.49567   0.00991
H     2.35220   0.91883  -0.08672
H     0.39139   2.49567  -0.00997
