22
Generated by autodE on: 2022-06-16. E = -646.016670 Ha. Imaginary frequency = -253.6 cm-1
C     2.20822  -2.47813   0.23635
C     1.67032  -1.14829  -0.00330
N     1.87593   0.03149   0.04015
C     1.52290   1.25197  -0.34486
C     1.15945   2.23243   0.60956
N     0.80958   3.06203   1.35116
C    -0.54542   0.25142  -1.40688
C    -1.34876   1.08731  -0.51132
O    -1.68454   2.24295  -0.78793
C    -1.76543   0.47710   0.77850
C    -1.58533  -0.83182   1.03089
C    -0.95973  -1.73140   0.03022
O    -0.96307  -2.95475   0.19588
C    -0.34083  -1.09205  -1.14233
H     1.39409  -3.20329   0.37761
H     2.87459  -2.46756   1.11303
H     2.78989  -2.76940  -0.65453
H     1.87361   1.59345  -1.32245
H    -0.27789   0.68630  -2.37091
H    -2.25664   1.14531   1.49020
H    -1.92623  -1.30036   1.95753
H     0.05290  -1.76326  -1.90935
