51
Generated by autodE on: 2022-06-23. E = -1171.481972 Ha
C     1.28396   3.42465  -0.66900
C     1.07770   2.13736  -0.97885
C     1.23636   1.60168  -2.37490
C     0.63835   1.15033   0.09017
C     1.40312  -0.16264   0.05526
C     2.86323  -0.23470   0.26103
C     3.57747   0.86876   0.76133
C     4.95755   0.78631   0.96063
C     5.64231  -0.39350   0.65782
C     4.94034  -1.49677   0.15584
C     3.56336  -1.41902  -0.03951
N     0.70186  -1.21415  -0.17200
C    -0.70161  -0.85462  -0.34620
C    -1.14529  -1.23028  -1.77184
O    -1.67334  -0.47593  -2.56018
O    -0.87260  -2.50297  -2.03752
C    -1.25465  -2.99372  -3.33359
C    -1.60814  -1.63825   0.60542
O    -2.73486  -1.98564   0.31433
O    -1.04744  -1.83224   1.79064
C    -1.88196  -2.39888   2.81472
C    -0.83910   0.69203  -0.06188
C    -1.67526   1.03138   1.14468
C    -3.00938   1.20424   1.16556
C    -3.89485   1.10260  -0.04596
C    -3.72989   1.48499   2.45651
H     1.57068   4.15422  -1.43242
H     1.17140   3.78771   0.35700
H     1.50429   2.39913  -3.08256
H     2.02379   0.82947  -2.41093
H     0.31035   1.11939  -2.72620
H     0.78290   1.62290   1.07269
H     3.05799   1.79626   1.00058
H     5.49934   1.64941   1.35392
H     6.72236  -0.45497   0.81076
H     5.47212  -2.42012  -0.08527
H     3.01130  -2.27336  -0.43238
H    -0.95348  -4.04698  -3.35684
H    -0.73679  -2.43016  -4.12257
H    -2.34186  -2.90300  -3.46859
H    -1.24586  -2.49544   3.70159
H    -2.25831  -3.38306   2.50324
H    -2.72729  -1.72636   3.02165
H    -1.28451   1.14125  -0.95513
H    -1.13359   1.08957   2.09475
H    -4.46901   2.03553  -0.18265
H    -4.63713   0.29902   0.09918
H    -3.34835   0.88734  -0.97240
H    -3.03871   1.55553   3.30922
H    -4.30357   2.42628   2.39119
H    -4.46507   0.68898   2.66957
