23
Generated by autodE on: 2022-06-23. E = -351.521382 Ha
C    -3.65752  -0.45688   0.84490
C    -2.58185  -0.11304   0.10293
C    -2.73701   0.46798  -1.27929
C    -1.23518  -0.30305   0.63828
C    -0.07882  -0.00097  -0.00396
C     1.23316  -0.21138   0.57336
C     2.43222   0.06464   0.00089
C     3.71504  -0.21333   0.73251
C     2.60408   0.65576  -1.36966
H    -4.67614  -0.32603   0.46917
H    -3.54144  -0.87857   1.84811
H    -2.23237  -0.15917  -2.03296
H    -2.27692   1.46805  -1.34395
H    -3.79672   0.55668  -1.55715
H    -1.17675  -0.72831   1.64748
H    -0.12924   0.42343  -1.01023
H     1.24248  -0.64105   1.58241
H     4.35110  -0.90949   0.15664
H     3.54074  -0.64475   1.72915
H     4.30658   0.71236   0.85095
H     1.65768   0.84922  -1.89079
H     3.21338  -0.01486  -2.00105
H     3.16257   1.60656  -1.30743
