32
Generated by autodE on: 2022-10-06. E = -702.718752 Ha
C    -1.80778   1.90761  -0.74781
N    -1.92856   1.11878   0.48068
C    -1.66776  -0.27644   0.35837
N    -2.77808  -1.00605  -0.18367
N    -1.44646  -0.87996   1.76768
C    -0.26978  -1.80767   1.70191
N    -0.10654  -1.99887   0.27494
C    -0.27880  -0.65532  -0.31739
C    -0.50496  -0.79788  -1.76623
N    -0.67958  -0.90090  -2.90712
C     0.94717   0.24174  -0.07534
C     2.06190   0.04360  -0.90892
C     3.25330   0.73445  -0.68851
C     3.35431   1.63518   0.37590
C     2.25406   1.83595   1.21104
C     1.05721   1.14672   0.99045
H    -0.75755   1.98507  -1.05971
H    -2.16349   2.92461  -0.53536
H    -2.39640   1.51175  -1.59549
H    -2.87469   1.22146   0.85147
H    -3.14253  -0.52727  -1.00728
H    -2.51640  -1.95575  -0.45377
H    -2.30896  -1.37639   2.02646
H    -1.29487  -0.12830   2.45207
H    -0.50196  -2.74578   2.21789
H     0.57248  -1.30794   2.20301
H     0.81475  -2.38023   0.05711
H     2.00250  -0.66195  -1.74066
H     4.10417   0.56735  -1.35262
H     4.28539   2.17888   0.55094
H     2.31763   2.54002   2.04370
H     0.20826   1.35331   1.63770
