19
Generated by autodE on: 2022-10-13. E = -457.429723 Ha
C    -2.13784  -1.12755   1.77680
N    -1.99984  -1.08546   0.47457
C    -1.01164  -0.61558  -0.36199
C    -1.19524  -0.92711  -1.72188
N    -1.33486  -1.17362  -2.86005
C     0.17787   0.12035   0.06626
C     1.32858   0.10902  -0.75847
C     2.47129   0.82736  -0.41601
C     2.51053   1.58260   0.76264
C     1.37965   1.61541   1.58236
C     0.22892   0.89896   1.24478
H    -1.36155  -0.75593   2.43924
H    -3.04205  -1.59297   2.16522
H    -2.78156  -1.50318  -0.03775
H     1.32041  -0.47856  -1.67916
H     3.34364   0.79191  -1.07340
H     3.40981   2.13951   1.03495
H     1.38415   2.21235   2.49785
H    -0.64320   0.98678   1.89080
