19
Generated by autodE on: 2022-10-06. E = -457.433205 Ha
C     3.13292  -1.21850   0.66533
N     1.85100  -0.96050   0.68181
C     1.08355  -0.13035  -0.10243
C     1.75313   0.60157  -1.09593
N     2.32811   1.20510  -1.91991
C    -0.35718  -0.01728   0.09831
C    -1.06096  -0.78637   1.05338
C    -2.43918  -0.64346   1.21790
C    -3.16544   0.26257   0.43821
C    -2.48338   1.02762  -0.51512
C    -1.10684   0.89295  -0.68389
H     3.77576  -0.73667  -0.07206
H     3.52274  -1.91716   1.40310
H     1.32310  -1.45511   1.40526
H    -0.54536  -1.51608   1.68273
H    -2.95002  -1.25460   1.96629
H    -4.24422   0.36958   0.57014
H    -3.02935   1.74188  -1.13679
H    -0.59634   1.50342  -1.43227
