40
Generated by autodE on: 2022-06-17. E = -769.968173 Ha
C    -2.89683   2.37073  -0.92627
N    -2.17494   1.17699  -0.55251
C    -2.65403   0.20937   0.23953
O    -3.78568   0.21902   0.74734
C    -1.66658  -0.94972   0.52475
C    -2.43139  -2.27020   0.36500
C    -1.13839  -0.79564   1.97633
C     0.23787  -0.16283   1.81155
C     0.77074  -0.78720   0.50204
C     1.33814  -2.20047   0.75278
C     1.84308   0.12334  -0.10441
C     3.12094   0.17987   0.48019
C     4.10298   1.04587  -0.00685
C     3.83260   1.87653  -1.09897
C     2.56789   1.83205  -1.68993
C     1.58543   0.96726  -1.19549
N    -0.45611  -0.82707  -0.31773
C    -0.41805  -1.58604  -1.55154
H    -2.34685   3.27621  -0.62463
H    -3.87331   2.36790  -0.42518
H    -3.06026   2.41585  -2.01515
H    -1.21982   1.00477  -0.86648
H    -3.25790  -2.29930   1.08802
H    -2.86045  -2.38227  -0.64144
H    -1.76687  -3.12323   0.56236
H    -1.05543  -1.79158   2.43508
H    -1.82172  -0.20264   2.59948
H     0.14747   0.92560   1.67832
H     0.91198  -0.34795   2.65935
H     0.55552  -2.86679   1.14344
H     2.15726  -2.18110   1.48459
H     1.72814  -2.64053  -0.17682
H     3.35484  -0.45290   1.33806
H     5.08530   1.07144   0.47166
H     4.60054   2.55159  -1.48425
H     2.33874   2.47345  -2.54471
H     0.60713   0.95023  -1.67507
H    -0.41953  -2.68361  -1.41460
H    -1.28375  -1.32520  -2.18019
H     0.48716  -1.32663  -2.11940
