34
Generated by autodE on: 2022-06-17. E = -691.254504 Ha
C     4.08663   1.90854  -0.50568
N     3.13032   1.07607   0.18975
C     2.31601   0.21023  -0.50804
O     2.53934   0.02655  -1.73473
C     1.25529  -0.41786   0.23491
C     0.90624   0.00805   1.62727
N     0.42520  -1.32299  -0.42944
C     1.06410  -2.37753  -1.24279
C    -0.89495  -1.40119  -0.23297
C    -1.60970  -2.67848  -0.56863
C    -1.67147  -0.24137   0.22938
C    -2.81360  -0.40934   1.04005
C    -3.60411   0.68194   1.40579
C    -3.28561   1.96713   0.95887
C    -2.15730   2.14969   0.14827
C    -1.35384   1.06725  -0.19983
H     4.79228   1.29803  -1.08930
H     3.60882   2.61770  -1.20699
H     4.65926   2.48669   0.23172
H     2.83525   1.38176   1.10800
H     0.36939   0.97527   1.70065
H     1.81917   0.09723   2.24000
H     0.26224  -0.74354   2.10834
H     2.12842  -2.16112  -1.33006
H     0.61437  -2.42181  -2.24338
H     0.92669  -3.34688  -0.74377
H    -2.67531  -2.60243  -0.32810
H    -1.19151  -3.54217  -0.02430
H    -1.53419  -2.91096  -1.64394
H    -3.07882  -1.40413   1.40249
H    -4.47579   0.52394   2.04548
H    -3.90592   2.82079   1.24123
H    -1.89971   3.14788  -0.21417
H    -0.47496   1.22807  -0.82636
