61
Generated by autodE on: 2022-06-09. E = -1544.989034 Ha
C     4.78086   2.87976   9.04252
N     5.29327   2.16777   7.88590
C     5.32156   2.73053   6.67380
O     4.93981   3.88326   6.45496
C     5.75282   1.79103   5.50983
C     7.01442   0.97290   5.77043
C     8.04379   1.43760   6.60151
C     9.23091   0.71045   6.72942
C     9.39840  -0.49005   6.03738
C     8.36709  -0.96728   5.22103
C     7.18473  -0.24124   5.08809
O     4.63232   0.90996   5.34265
C     3.96020   1.12531   4.10142
C     4.09794  -0.14922   3.34810
N     4.27006  -1.15659   2.80083
C     2.49635   1.47073   4.36942
C     2.19201   2.73103   4.90202
C     0.86853   3.07068   5.18357
C    -0.16052   2.15440   4.94006
C     0.14278   0.89324   4.42137
C     1.46791   0.55082   4.13753
C     4.78589   2.21311   3.39110
C     5.81162   2.56250   4.18670
C     7.03997   3.45569   3.90754
C     8.14634   2.55670   3.49489
N     9.01039   1.89757   3.09271
C     7.50326   4.17498   5.11594
N     7.92899   4.81574   5.98159
C     6.95154   4.55694   2.78929
C     5.91067   5.64754   2.99621
C     4.46673   5.17755   3.14580
C     3.91802   4.24791   2.06545
C     4.37829   2.73801   2.00829
C     3.20638   1.96140   1.34262
C     5.49173   2.50103   1.07333
N     6.30777   2.23729   0.29053
H     5.30895   3.83598   9.17483
H     3.70562   3.09458   8.93324
H     4.93230   2.26105   9.93489
H     5.60784   1.20842   7.99296
H     7.93536   2.36956   7.15339
H    10.02517   1.08844   7.37679
H    10.32694  -1.05680   6.13686
H     8.48630  -1.90851   4.67982
H     6.39690  -0.61685   4.43654
H     2.99054   3.44234   5.10792
H     0.64070   4.05660   5.59470
H    -1.19682   2.42328   5.15698
H    -0.65351   0.16963   4.23400
H     1.69241  -0.43402   3.72439
H     6.81794   4.05324   1.82967
H     7.95236   5.01057   2.74701
H     5.99439   6.31481   2.12265
H     6.18001   6.25353   3.87636
H     4.32765   4.72654   4.13689
H     3.82249   6.07158   3.13932
H     2.83017   4.19608   2.21086
H     4.08186   4.67554   1.06396
H     3.44976   0.90785   1.16287
H     2.99997   2.43266   0.37187
H     2.30201   2.03298   1.95567
