13
Generated by autodE on: 2022-06-16. E = -490.215881 Ha
C    -2.67141  -0.67510   0.18612
C    -1.76918   0.49718  -0.00750
O    -2.12640   1.65331  -0.15303
C    -0.30860   0.22140  -0.02366
N     0.63349   1.11976  -0.18278
N     1.87337   0.60265  -0.15087
C     1.69707  -0.72107   0.04356
O     2.47372  -1.64243   0.14751
O     0.26449  -0.95901   0.12453
H    -2.51380  -1.39998  -0.62984
H    -3.71605  -0.34160   0.20276
H    -2.41596  -1.19034   1.12668
H     0.46750   2.12076  -0.31770
