18
Generated by autodE on: 2022-06-16. E = -235.968067 Ha
C     1.52476  -1.17334  -0.42917
C     0.67510   0.01581  -0.05007
C     1.51492   1.24446   0.20445
C    -0.67509  -0.01587   0.05028
C    -1.51491  -1.24453  -0.20421
C    -1.52477   1.17343   0.42883
H     2.24637  -1.40196   0.37577
H     2.13179  -0.94124  -1.32261
H     0.95624  -2.08717  -0.63914
H     0.93979   2.13636   0.48034
H     2.24477   1.05038   1.01100
H     2.11270   1.49262  -0.69097
H    -2.11392  -1.49163   0.69066
H    -0.93964  -2.13682  -0.47853
H    -2.24367  -1.05106  -1.01191
H    -0.95623   2.08718   0.63913
H    -2.13263   0.94159   1.32175
H    -2.24564   1.40214  -0.37678
