31
Generated by autodE on: 2022-06-16. E = -726.158106 Ha. Imaginary frequency = -425.0 cm-1
C    -0.39286   3.02903   1.05624
C    -0.49264   1.60950   1.51343
O    -0.59012   1.26734   2.67735
C    -0.51124   0.53527   0.45074
N    -1.39341  -0.50981   0.62218
N    -1.52813  -1.13412  -0.57469
C    -1.24207  -0.18839  -1.50382
O    -1.38113  -0.20497  -2.71361
O    -0.73137   0.94784  -0.84712
C     1.02282  -1.36955  -0.56831
C     1.42114  -1.26117  -2.00328
C     0.82447  -2.75588  -0.04190
C     1.25271  -0.28209   0.34525
C     1.57836  -0.67545   1.78198
C     2.14093   0.84903  -0.16292
H     0.44580   3.16043   0.35687
H    -1.31142   3.28263   0.50040
H    -0.28552   3.69250   1.92343
H    -1.37371  -1.08412   1.46406
H     1.24158  -0.26993  -2.43766
H     2.51174  -1.44353  -2.07244
H     0.91940  -2.01941  -2.61986
H     0.43667  -3.43173  -0.81534
H     0.16321  -2.79252   0.83472
H     1.80436  -3.14881   0.29333
H     0.78628  -1.26778   2.25951
H     2.49710  -1.28482   1.79645
H     1.75917   0.21257   2.40118
H     3.14989   0.46010  -0.37756
H     2.24601   1.63283   0.60050
H     1.75835   1.31114  -1.08129
