39
Generated by autodE on: 2022-06-02. E = -1561.218691 Ha
C    -1.50452  -3.68803   2.21980
N    -1.15828  -2.86119   1.08286
C    -1.71936  -1.68175   0.82328
O    -2.62257  -1.14794   1.46816
C    -1.13254  -0.95613  -0.44204
C    -2.24705  -0.90982  -1.39653
N    -3.14711  -0.86289  -2.12626
C    -0.69098   0.48109  -0.01202
C    -0.88666   1.59401  -1.08436
O     0.22014   1.37518  -1.96400
C     1.24913   1.50955  -0.97976
C     0.86993   2.83834  -0.34083
Cl    1.97112   3.87784   0.44188
C    -0.47688   2.90854  -0.40138
C    -1.34162   3.86203   0.17418
N    -2.07129   4.64114   0.64052
C     0.86135   0.40807   0.05207
C     1.23955  -1.00434  -0.42862
C     1.90352  -1.81828   0.68596
O     2.51232  -1.33214   1.61570
O     1.78663  -3.13145   0.48935
C     2.37983  -3.99074   1.47645
N     0.04467  -1.64211  -0.97896
C     0.09511  -1.97118  -2.39839
H    -0.59081  -4.11181   2.65963
H    -2.01946  -3.07723   2.97263
H    -2.16910  -4.51759   1.92791
H    -0.40286  -3.13927   0.45582
H    -1.18042   0.75480   0.92708
H    -1.83987   1.60632  -1.61990
H     2.25226   1.43594  -1.41103
H     1.27849   0.61832   1.04168
H     2.01173  -0.94671  -1.21368
H     2.13935  -5.01433   1.16824
H     1.95629  -3.77991   2.46843
H     3.46913  -3.84508   1.50338
H    -0.77505  -2.58083  -2.67758
H     0.99126  -2.57966  -2.58176
H     0.13202  -1.07939  -3.05069
