39
Generated by autodE on: 2022-06-02. E = -1561.123675 Ha. Imaginary frequency = -285.1 cm-1
C    -2.07371  -4.11163   1.93898
N    -1.77357  -3.34937   0.74176
C    -1.89347  -2.00794   0.73233
O    -2.50654  -1.37687   1.59599
C    -1.39474  -1.32430  -0.52314
C    -2.47013  -0.75933  -1.26015
N    -3.36855  -0.24904  -1.80228
C    -0.35658   0.63373   0.40327
C    -0.77196   1.68781  -0.63845
O     0.06251   1.31376  -1.74401
C     1.30273   1.35314  -1.03030
C     1.22595   2.79610  -0.48302
Cl    2.58271   3.77331  -0.15634
C    -0.08055   3.02593  -0.23205
C    -0.69064   4.14342   0.36494
N    -1.21507   5.06349   0.85300
C     0.99217   0.44491   0.17162
C     0.94118  -1.84130  -0.69491
C     1.28515  -2.14928   0.69739
O     0.56082  -2.15194   1.67740
O     2.60620  -2.40232   0.77050
C     3.14125  -2.61210   2.08288
N    -0.28598  -1.72765  -1.23450
C    -0.34205  -1.61406  -2.70801
H    -1.37432  -3.86767   2.75612
H    -3.09508  -3.89804   2.28383
H    -1.99423  -5.18143   1.70980
H    -1.16281  -3.77679   0.05327
H    -0.89747   0.47144   1.33202
H    -1.82575   1.76621  -0.91768
H     2.16628   1.11795  -1.65940
H     1.75138   0.19487   0.90833
H     1.74484  -2.01288  -1.40850
H     4.21616  -2.77895   1.94746
H     2.67799  -3.49090   2.55473
H     2.97075  -1.72825   2.71523
H    -1.18029  -2.21495  -3.08093
H     0.59391  -1.99417  -3.12784
H    -0.47011  -0.56313  -2.99100
