73
Generated by autodE on: 2022-10-24. E = -1705.433598 Ha
C     7.00884  -7.25724  -9.99568
N     6.13687  -6.16978 -10.38536
C     5.00490  -6.38343 -11.06613
O     4.53729  -7.50543 -11.27994
C     4.31941  -5.08891 -11.58429
C     3.18427  -4.65492 -10.63867
O     2.61961  -3.58608 -10.75860
O     2.98264  -5.49094  -9.62989
C     1.93215  -5.15530  -8.71010
N     5.26635  -3.97797 -11.63837
C     5.80350  -3.89624 -13.02331
C     5.84613  -2.41539 -13.44326
C     4.72157  -1.61255 -13.18784
C     4.68375  -0.27515 -13.58205
C     5.77172   0.28989 -14.25289
C     6.89511  -0.49661 -14.51691
C     6.93243  -1.83429 -14.11232
C     7.17937  -4.58344 -12.96995
C     8.22430  -3.96104 -12.26627
C     9.43583  -4.61820 -12.04997
C     9.62749  -5.91972 -12.52839
C     8.59145  -6.55328 -13.21539
C     7.37786  -5.88977 -13.42704
C     4.74852  -4.67376 -13.87021
C     3.86929  -5.27973 -13.04742
C     2.58833  -6.05649 -13.36637
O     1.92993  -6.16737 -12.11593
C     0.67817  -6.83108 -12.08277
O     1.75324  -5.33280 -14.25503
C     1.33482  -4.04050 -13.83201
C     2.81992  -7.46608 -13.97527
C     4.16719  -7.76154 -14.63297
C     4.39718  -7.14140 -16.01271
C     3.96283  -5.68872 -16.19491
C     4.75407  -4.58748 -15.41603
C     6.17254  -4.53078 -16.03907
C     4.07280  -3.32860 -15.78575
N     3.50362  -2.38677 -16.15571
H     6.52321  -7.91077  -9.25441
H     7.92269  -6.84025  -9.55556
H     7.28463  -7.87485 -10.86583
H     6.48688  -5.21439 -10.41888
H     0.97579  -5.06582  -9.24433
H     2.15924  -4.20891  -8.19899
H     1.89048  -5.97856  -7.98819
H     4.75711  -3.12419 -11.42693
H     3.84466  -2.03749 -12.69644
H     3.79326   0.32240 -13.37436
H     5.74385   1.33553 -14.56803
H     7.75492  -0.06974 -15.03838
H     7.82514  -2.42163 -14.32350
H     8.08223  -2.95747 -11.86253
H    10.23315  -4.11369 -11.49890
H    10.57456  -6.43645 -12.35655
H     8.71609  -7.57480 -13.58185
H     6.57252  -6.41841 -13.93118
H     0.00045  -6.46124 -12.86802
H     0.23922  -6.61669 -11.09863
H     0.78919  -7.92270 -12.18984
H     2.18875  -3.38157 -13.61719
H     0.76101  -3.61440 -14.66565
H     0.69344  -4.09340 -12.93849
H     1.99221  -7.66043 -14.67516
H     2.71167  -8.16837 -13.14022
H     4.96890  -7.48478 -13.93629
H     4.24482  -8.85582 -14.73947
H     3.81389  -7.71805 -16.75075
H     5.45345  -7.27218 -16.29798
H     4.07616  -5.42757 -17.25814
H     2.89947  -5.59281 -15.96371
H     6.07265  -4.30503 -17.10989
H     6.80904  -3.76538 -15.59070
H     6.66899  -5.50119 -15.93898
