41
Generated by autodE on: 2022-10-24. E = -1032.442385 Ha
C     4.06239   0.29822  -3.59216
N     3.26160  -0.23223  -2.51149
C     2.20308   0.44037  -2.01603
O     1.82826   1.53460  -2.50457
C     1.48477  -0.13030  -0.87222
N     0.40990   0.66883  -0.51462
C    -0.69916   0.50529   0.18114
C    -1.15818  -0.82313   0.62680
C    -1.13728  -1.91281  -0.26174
C    -1.57829  -3.16705   0.15467
C    -2.03303  -3.35428   1.46607
C    -2.06348  -2.27361   2.35198
C    -1.63789  -1.01157   1.93318
C    -1.50642   1.70514   0.44516
C    -2.90288   1.60379   0.61810
C    -3.67481   2.74449   0.83117
C    -3.07264   4.00664   0.87897
C    -1.68822   4.12026   0.71484
C    -0.90947   2.98281   0.50580
C     1.98982  -1.21821  -0.08705
O     2.85546  -2.02150  -0.46081
O     1.47185  -1.28161   1.15750
C     1.77627  -2.43882   1.93555
H     3.44111   0.54053  -4.46902
H     4.80357  -0.45490  -3.88812
H     4.59817   1.21803  -3.30055
H     3.51645  -1.09642  -2.03636
H     0.50804   1.57361  -1.00083
H    -0.77052  -1.77617  -1.28072
H    -1.56498  -4.00563  -0.54516
H    -2.36666  -4.34151   1.79377
H    -2.41895  -2.41293   3.37536
H    -1.65534  -0.17009   2.62792
H    -3.38532   0.62749   0.56322
H    -4.75580   2.64812   0.95469
H    -3.67965   4.89835   1.05086
H    -1.20818   5.09997   0.76663
H     0.17428   3.08819   0.42082
H     2.85547  -2.50837   2.13669
H     1.44368  -3.35231   1.41985
H     1.22650  -2.32345   2.87731
