41
Generated by autodE on: 2022-10-26. E = -1032.436200 Ha
C     1.88129  -1.84661   2.50193
N     0.75998  -1.02640   2.08821
C    -0.36525  -1.58532   1.57620
O    -0.58349  -2.80143   1.70165
C    -1.30344  -0.66826   0.90504
N    -0.90057   0.39583   0.12070
C     0.20243   0.68187  -0.55230
C     0.31015   2.02048  -1.14567
C    -0.37607   3.12406  -0.59447
C    -0.29777   4.38051  -1.19413
C     0.47491   4.56613  -2.34504
C     1.17016   3.48268  -2.89396
C     1.09240   2.22321  -2.30268
C     1.27495  -0.31489  -0.73474
C     2.61824   0.03931  -0.51961
C     3.63323  -0.90150  -0.69903
C     3.32133  -2.20048  -1.11094
C     1.98720  -2.55608  -1.34157
C     0.96853  -1.62440  -1.14819
C    -2.72642  -0.68749   1.09893
O    -3.49296   0.14013   0.58804
O    -3.17569  -1.65789   1.92501
C    -4.58394  -1.68830   2.16296
H     1.64843  -2.42012   3.41307
H     2.73969  -1.19610   2.70910
H     2.16206  -2.56313   1.71313
H     0.93132  -0.03941   1.93587
H    -1.67469   1.06364   0.00870
H    -0.94749   3.01142   0.32932
H    -0.82945   5.22398  -0.74814
H     0.54187   5.55318  -2.80801
H     1.77367   3.61876  -3.79418
H     1.62419   1.38261  -2.74957
H     2.86275   1.05245  -0.19555
H     4.67210  -0.61860  -0.51555
H     4.11607  -2.93621  -1.25329
H     1.73882  -3.56701  -1.67209
H    -0.06965  -1.91179  -1.32286
H    -5.14101  -1.82251   1.22341
H    -4.92317  -0.76216   2.65138
H    -4.76011  -2.54446   2.82573
