32
Generated by autodE on: 2022-10-24. E = -672.916398 Ha
C    -1.44324   3.19067  -0.79977
O    -1.90279   1.84626  -0.83303
C    -0.90389   0.87954  -1.04543
O    -0.21172   1.10848  -2.25913
C    -0.98698   1.01579  -3.44946
C     0.13872   0.85614   0.00620
C     0.89016   0.31320   0.78563
C     1.58461  -0.75005   1.52064
C     3.09626  -0.50141   1.69385
C     0.96151  -0.88856   2.85211
N     0.48242  -1.02213   3.90055
C     1.31930  -2.05790   0.69712
C    -0.13879  -2.32886   0.28035
C    -0.65948  -1.71654  -1.05121
C    -1.59886  -0.49741  -0.97873
H    -2.30584   3.81713  -0.53579
H    -0.65478   3.32168  -0.03712
H    -1.04643   3.51186  -1.77622
H    -0.40156   1.50069  -4.24303
H    -1.17250  -0.03248  -3.73699
H    -1.95063   1.53928  -3.34821
H     3.27830   0.40536   2.28741
H     3.55398  -0.37788   0.70238
H     3.56067  -1.36054   2.19864
H     1.69450  -2.89371   1.30808
H     1.96159  -1.99617  -0.19507
H    -0.21952  -3.42231   0.18428
H    -0.81821  -2.06044   1.10812
H    -1.22204  -2.50832  -1.56835
H     0.19034  -1.48137  -1.71367
H    -2.32801  -0.53104  -1.80194
H    -2.18155  -0.51331  -0.04550
