73
Generated by autodE on: 2022-10-24. E = -1705.341467 Ha. Imaginary frequency = -221.2 cm-1
C     7.26496  -6.74278  -9.56177
N     6.32459  -5.71815  -9.97078
C     5.25054  -6.01070 -10.73008
O     4.92555  -7.17687 -10.98091
C     4.44372  -4.82729 -11.18417
C     3.16985  -4.54325 -10.52169
O     2.50564  -3.53459 -10.74867
O     2.82252  -5.45677  -9.60791
C     1.54054  -5.29522  -8.99284
N     4.99656  -3.70283 -11.71991
C     5.97818  -3.53983 -12.61575
C     6.12418  -2.19837 -13.22147
C     5.25316  -1.12844 -12.92281
C     5.39417   0.10760 -13.54949
C     6.40809   0.31656 -14.49088
C     7.28475  -0.72874 -14.79110
C     7.14821  -1.96592 -14.16258
C     7.16661  -4.45230 -12.60740
C     8.34191  -3.95338 -12.01372
C     9.48785  -4.74380 -11.91941
C     9.48332  -6.04759 -12.42471
C     8.32095  -6.55253 -13.01140
C     7.17103  -5.76394 -13.09929
C     4.38748  -4.79807 -14.20128
C     3.67758  -5.43494 -13.40766
C     2.53183  -6.39435 -13.40164
O     2.12183  -6.63564 -12.07614
C     1.05624  -7.55151 -11.88866
O     1.44589  -5.84685 -14.14225
C     0.94322  -4.59980 -13.68454
C     2.93543  -7.69678 -14.13050
C     3.98377  -7.61773 -15.24661
C     3.69996  -6.80666 -16.52213
C     3.54549  -5.27799 -16.46790
C     4.62460  -4.49451 -15.64399
C     6.04989  -4.81039 -16.13912
C     4.34217  -3.06344 -15.87912
N     4.05928  -1.96526 -16.12629
H     6.85375  -7.36839  -8.75277
H     8.18233  -6.26065  -9.20322
H     7.51322  -7.39970 -10.40837
H     6.58487  -4.74599  -9.84745
H     0.74566  -5.28017  -9.75233
H     1.50450  -4.36357  -8.40928
H     1.41204  -6.15923  -8.33055
H     4.29634  -2.95535 -11.71526
H     4.44978  -1.23246 -12.19051
H     4.70536   0.91674 -13.29662
H     6.51436   1.28668 -14.98127
H     8.08379  -0.58397 -15.52176
H     7.84451  -2.76598 -14.41026
H     8.35252  -2.93656 -11.61681
H    10.38717  -4.33801 -11.45044
H    10.38024  -6.66741 -12.35667
H     8.30160  -7.57152 -13.40428
H     6.26868  -6.17394 -13.54208
H     0.17543  -7.28572 -12.49535
H     0.78418  -7.50252 -10.82570
H     1.35338  -8.58676 -12.12517
H     1.69284  -3.79755 -13.78870
H     0.07448  -4.36133 -14.31357
H     0.62367  -4.65071 -12.63194
H     2.00701  -8.14940 -14.51229
H     3.33632  -8.36718 -13.35569
H     4.94411  -7.30467 -14.81333
H     4.14655  -8.65750 -15.57673
H     2.77881  -7.19376 -16.99139
H     4.51259  -7.04484 -17.22790
H     3.57683  -4.89762 -17.50203
H     2.56613  -5.01129 -16.05301
H     6.11918  -4.59567 -17.21552
H     6.79714  -4.21072 -15.60891
H     6.27811  -5.87024 -15.97504
