45
Generated by autodE on: 2022-06-01. E = -1200.440157 Ha
C    -3.17104   3.68970  -0.99675
N    -1.98738   2.88793  -0.75801
C    -1.99192   1.54720  -0.73797
O    -3.02045   0.86505  -0.90807
C    -0.69244   0.85684  -0.51240
C     0.54768   1.35734  -0.43581
C     1.55639   0.24835  -0.21815
C     2.74588   0.44561  -1.19432
C     2.55971   0.00358  -2.61210
O     3.74986   1.01125  -0.78775
C     2.09044   0.33640   1.23025
O     1.78515   1.22219   2.02452
O     2.89096  -0.68691   1.52179
C     3.35240  -0.78289   2.87873
N     0.75761  -0.93662  -0.48482
C     1.27738  -2.27740  -0.29958
C    -0.65580  -0.65052  -0.30139
C    -1.42305  -1.46853  -1.37358
C    -1.27885  -1.02656  -2.80201
O    -2.03909  -2.47214  -1.05657
C    -1.14749  -0.95343   1.15146
O    -0.33309  -1.27413   2.02308
N    -2.45692  -0.77912   1.37549
C    -3.08357  -0.96155   2.66900
H    -3.38573   4.33597  -0.13156
H    -4.02425   3.02304  -1.16357
H    -3.03624   4.32867  -1.88309
H    -1.11239   3.37571  -0.59778
H     0.85348   2.40154  -0.49915
H     1.66173   0.48441  -3.03195
H     2.39122  -1.08234  -2.65955
H     3.44328   0.27618  -3.20291
H     2.49494  -0.86567   3.56171
H     3.95251   0.09942   3.14264
H     3.96602  -1.68957   2.92506
H     2.31945  -2.31524  -0.64622
H     0.70151  -2.98356  -0.91748
H     1.24902  -2.62857   0.74365
H    -2.11674  -0.34904  -3.03149
H    -0.34278  -0.48191  -2.97150
H    -1.34594  -1.89933  -3.46562
H    -3.02246  -0.44783   0.59429
H    -3.68182  -0.07638   2.93295
H    -2.30629  -1.10613   3.42881
H    -3.74747  -1.84144   2.67127
