34
Generated by autodE on: 2022-06-01. E = -914.851252 Ha
C     3.11262   1.94393  -1.74319
N     2.61999   0.68542  -1.22888
C     1.48314   0.61427  -0.51651
O     0.78831   1.62631  -0.29089
C     1.12652  -0.72268   0.02866
C     1.81365  -1.94168  -0.34188
C     1.14746  -3.28760  -0.12899
O     2.91059  -1.93312  -0.93601
N     0.06595  -0.74935   0.92234
C     0.25234  -1.49556   2.18644
C    -1.02969  -0.02086   0.74056
C    -1.95408   0.30940   1.87208
C    -3.43679   0.28411   1.61325
O    -1.50205   0.58373   2.97435
C    -1.40184   0.41146  -0.64282
O    -1.15763  -0.22104  -1.65018
O    -2.11793   1.53007  -0.61753
C    -2.58306   2.02856  -1.88130
H     3.92899   1.74503  -2.44903
H     3.49581   2.59902  -0.94197
H     2.31321   2.49019  -2.26652
H     3.15686  -0.18214  -1.30731
H     1.67880  -3.84986   0.65542
H     0.08168  -3.23484   0.12374
H     1.26484  -3.85275  -1.06560
H    -0.67320  -2.01395   2.46145
H     0.53505  -0.78393   2.96979
H     1.06766  -2.20919   2.05771
H    -3.93076  -0.11076   2.51261
H    -3.79682   1.31238   1.45194
H    -3.70571  -0.31987   0.73623
H    -3.15457   2.93520  -1.65397
H    -1.72618   2.26726  -2.52736
H    -3.22420   1.28468  -2.37488
