34
Generated by autodE on: 2022-07-27. E = -914.852165 Ha
C    -1.79802   1.96765   2.18223
N    -1.42742   0.80750   1.38983
C    -1.40664   0.84029   0.05797
O    -1.76949   1.76871  -0.66427
C    -0.97452  -0.44193  -0.62759
C    -2.08954  -1.34360  -1.14203
C    -2.71216  -0.94453  -2.43263
O    -2.39488  -2.28781  -0.44614
N     0.27161  -0.72548  -0.77122
C     0.73508  -1.95142  -1.44179
C     1.30067   0.13419  -0.20812
C     1.84332   1.16955  -1.03309
C     1.24583   1.35039  -2.42107
O     2.74789   1.93934  -0.65653
C     1.68834  -0.13399   1.14330
O     2.56952   0.42256   1.79195
O     0.91697  -1.12115   1.71106
C     1.21840  -1.46190   3.06494
H    -2.12143   1.63328   3.17561
H    -2.62249   2.50146   1.69223
H    -0.94825   2.66011   2.29574
H    -0.97737   0.01612   1.84974
H    -3.52946  -1.63032  -2.69057
H    -3.07418   0.09343  -2.35048
H    -1.93688  -0.94636  -3.21767
H    -0.07179  -2.43850  -2.00074
H     1.55792  -1.68402  -2.11452
H     1.11397  -2.62499  -0.66049
H     1.85034   2.08517  -2.96868
H     0.21220   1.72400  -2.34303
H     1.21251   0.41128  -2.99438
H     1.05927  -0.60175   3.73261
H     2.25914  -1.80490   3.16245
H     0.53106  -2.27356   3.33332
