45
Generated by autodE on: 2022-06-01. E = -1200.320449 Ha. Imaginary frequency = -302.1 cm-1
C    -3.81942   2.37017  -0.40892
N    -2.38085   2.19284  -0.38373
C    -1.72039   1.75892  -1.47493
O    -2.24730   1.62768  -2.59020
C    -0.30852   1.46458  -1.27052
C     0.92591   1.51490  -1.30314
C     1.71634  -0.39206  -0.31609
C     3.00172  -0.55260  -1.07097
C     3.01988  -0.77523  -2.56221
O     4.05045  -0.35464  -0.46660
C     1.98018   0.23674   1.03579
O     2.36921   1.36899   1.21156
O     1.83171  -0.66014   2.01010
C     2.06011  -0.19525   3.35146
N     0.60890  -1.15143  -0.56139
C     0.73821  -2.31360  -1.47905
C    -0.63063  -0.80127  -0.11367
C    -1.90704  -1.14169  -0.76954
C    -2.00911  -1.60032  -2.20313
O    -2.94377  -0.89070  -0.14473
C    -0.82572  -0.26131   1.30337
O    -0.72756   0.93325   1.61249
N    -1.13074  -1.22779   2.17904
C    -1.39594  -0.99222   3.58466
H    -4.11076   3.08006  -1.19676
H    -4.34273   1.41792  -0.59527
H    -4.14440   2.76870   0.56028
H    -1.90839   2.03800   0.50848
H     1.90500   1.93139  -1.48297
H     3.85783  -0.18919  -2.96555
H     2.08753  -0.47955  -3.05704
H     3.22157  -1.83494  -2.78244
H     1.36692   0.62413   3.58619
H     3.09678   0.15342   3.45911
H     1.87534  -1.05539   4.00369
H     0.64740  -2.02486  -2.52944
H     1.70794  -2.78495  -1.30015
H    -0.03312  -3.04159  -1.22183
H    -3.01458  -1.34006  -2.55678
H    -1.26007  -1.13060  -2.85146
H    -1.89124  -2.69257  -2.26880
H    -1.18659  -2.18056   1.83234
H    -2.36170  -1.43715   3.86845
H    -1.43377   0.08811   3.76444
H    -0.60844  -1.43290   4.21546
