66
Generated by autodE on: 2022-06-14. E = -2084.723922 Ha
C    -2.52119  -1.19104   3.10262
N    -2.23760  -0.39550   4.27921
C    -1.02347   0.11922   4.49685
O    -0.13063   0.08549   3.63641
C    -0.82800   0.77140   5.89906
C     0.39298   1.74138   6.01916
O     0.72310   2.14707   7.14054
N     0.95735   2.19427   4.89522
C     2.06747   3.12541   4.93436
N    -1.97063   1.60530   6.26236
C    -2.60450   1.15518   7.50814
C    -2.59336   2.28552   8.54365
C    -4.06030   0.78204   7.15179
O    -5.01807   1.49349   7.35554
O    -4.12732  -0.36516   6.46621
C    -5.42609  -0.82157   6.06305
C    -1.75681  -0.05402   7.92230
C    -0.77179  -0.28972   7.02179
C     0.30344  -1.36867   6.94954
C     1.60698  -0.89289   6.31186
Cl   -0.38602  -2.67271   5.74705
C     0.63337  -2.18190   8.20605
C     1.28744  -1.41633   9.35853
C     0.57023  -0.15315   9.82384
C    -0.86817  -0.31062  10.31025
C    -1.97743  -0.71118   9.28909
C    -3.37834  -0.37220   9.88874
O    -4.41602  -0.58020   9.29473
O    -3.33540   0.07046  11.13420
C    -4.59945   0.34918  11.76334
C    -2.18252  -2.24448   9.20399
O    -2.01171  -2.99160  10.14480
O    -2.67446  -2.61407   8.03390
C    -2.96647  -4.00562   7.84300
H    -1.95755  -2.13948   3.12042
H    -2.24637  -0.64579   2.18850
H    -3.59532  -1.41408   3.07770
H    -2.88610  -0.45537   5.06382
H     0.75963   1.65791   4.04901
H     2.96882   2.66678   5.37562
H     1.81063   4.00963   5.53564
H     2.30045   3.44659   3.91142
H    -2.61201   1.78307   5.49627
H    -3.06963   2.01435   9.49507
H    -1.55245   2.57719   8.73323
H    -3.13461   3.15028   8.13640
H    -5.89797  -0.09512   5.38684
H    -6.05705  -0.97215   6.95008
H    -5.26068  -1.77437   5.54736
H     2.30630  -1.73736   6.24933
H     1.46041  -0.49589   5.30328
H     2.06158  -0.11393   6.93931
H    -0.24418  -2.72396   8.55697
H     1.32548  -2.97137   7.87990
H     2.31823  -1.14764   9.07719
H     1.37243  -2.12219  10.20186
H     0.61516   0.61620   9.04060
H     1.13549   0.26014  10.67547
H    -0.91832  -1.03342  11.13745
H    -1.16968   0.65848  10.72354
H    -5.20527  -0.56607  11.81487
H    -5.13884   1.11989  11.19539
H    -4.35789   0.70932  12.76925
H    -2.05758  -4.60712   7.98190
H    -3.74103  -4.33056   8.55195
H    -3.32625  -4.09468   6.81236
