31
Generated by autodE on: 2022-06-14. E = -817.567740 Ha
C    -2.72060  -2.60084  -1.06455
N    -1.80089  -1.67764  -0.42987
C    -1.87094  -0.34749  -0.64774
O    -2.82544   0.15018  -1.28014
C    -0.83993   0.49567  -0.01644
N     0.44489   0.14666   0.18429
C     1.29523  -0.72117  -0.35248
C     0.98932  -1.54965  -1.54898
C     2.61371  -0.68394   0.28874
O     2.89704   0.05769   1.22412
O     3.48213  -1.54551  -0.25483
C     4.80059  -1.56994   0.30603
C    -1.16980   1.77305   0.65168
O    -0.32024   2.33099   1.37826
N    -2.39718   2.28333   0.44766
C    -2.80401   3.54350   1.03077
H    -2.69938  -2.48838  -2.16021
H    -3.75661  -2.43606  -0.72725
H    -2.42479  -3.62536  -0.80804
H    -1.07256  -2.05441   0.16501
H     0.88085   0.77770   0.88437
H     0.29983  -1.01244  -2.21940
H     0.52054  -2.51790  -1.30435
H     1.91954  -1.76155  -2.09082
H     4.76100  -1.82725   1.37455
H     5.29018  -0.59245   0.18503
H     5.35050  -2.33902  -0.24863
H    -2.98071   1.80753  -0.23966
H    -2.22636   4.39118   0.62409
H    -3.86652   3.70891   0.81336
H    -2.66452   3.53718   2.12267
