31
Generated by autodE on: 2022-07-27. E = -817.562386 Ha
C     0.78517  -3.77778  -1.67779
N     0.45148  -2.53088  -1.01603
C     1.19422  -1.40891  -1.23629
O     2.16598  -1.44929  -2.02104
C     0.79770  -0.18917  -0.52414
N    -0.42126  -0.20127   0.08888
C    -0.91000   0.48721   1.10853
C    -0.08481   1.29631   2.03418
C    -2.34995   0.23356   1.31352
O    -3.00688  -0.50529   0.59070
O    -2.84826   0.87690   2.36821
C    -4.23972   0.67044   2.65157
C     1.51068   1.09393  -0.66521
O     0.95157   2.17988  -0.42361
N     2.79107   1.03413  -1.11010
C     3.47765   2.23869  -1.52701
H     0.83340  -3.63704  -2.76698
H     0.00587  -4.51646  -1.45206
H     1.75868  -4.17702  -1.34481
H    -0.11702  -2.59829  -0.17953
H    -1.11777  -0.85689  -0.29474
H    -0.54028   1.29365   3.03263
H     0.02345   2.33735   1.69264
H     0.93199   0.87436   2.08791
H    -4.46346   1.28843   3.52840
H    -4.43231  -0.38932   2.87299
H    -4.85539   0.98358   1.79604
H     3.05734   0.13939  -1.52453
H     4.51287   1.98635  -1.79054
H     3.49526   2.97827  -0.71315
H     3.00023   2.71675  -2.40122
