35
Generated by autodE on: 2022-06-14. E = -1267.075864 Ha
C    -1.63332  -1.78925   2.87682
O    -0.93204  -1.11335   1.81686
C     0.08789  -1.75619   1.26947
O     0.47150  -2.85598   1.60757
C     0.73069  -0.99887   0.09503
C     2.24989  -1.19509   0.24267
O     2.95017  -1.79120  -0.54184
O     2.68930  -0.61545   1.35660
C     4.09427  -0.73064   1.64081
C     0.36477   0.41159   0.03721
C    -0.22526   1.40193  -0.33534
C    -1.11638   2.19746  -1.16323
C    -0.37522   3.04107  -2.19435
Cl   -2.08039   3.37168  -0.08519
C    -2.12773   1.20319  -1.78674
C    -1.51353  -0.03359  -2.48006
C    -1.23724  -1.30460  -1.62728
C     0.21901  -1.63171  -1.24005
H    -0.94920  -1.99472   3.71185
H    -2.42887  -1.10513   3.19179
H    -2.06049  -2.73137   2.50587
H     4.37368  -1.78840   1.74754
H     4.68380  -0.27143   0.83483
H     4.25508  -0.19615   2.58365
H     0.19017   2.38112  -2.86987
H     0.33027   3.72681  -1.70556
H    -1.09415   3.62358  -2.78783
H    -2.72944   1.77379  -2.51143
H    -2.80990   0.86893  -0.99075
H    -0.60196   0.25164  -3.03104
H    -2.23967  -0.32345  -3.25485
H    -1.87785  -1.29982  -0.72992
H    -1.57898  -2.16485  -2.22262
H     0.34765  -2.71984  -1.14238
H     0.90361  -1.30009  -2.03420
