18
Generated by autodE on: 2022-10-21. E = -472.704671 Ha
C    -2.48566   1.68316  -0.11852
N    -2.46791   0.24393  -0.16841
N    -1.31646  -0.28215  -0.14323
C    -1.31291  -1.76668  -0.19603
N    -0.22351   0.45450  -0.14705
C     0.97961  -0.13113   0.14963
O     1.21798  -1.20227   0.69277
O     1.96203   0.72501  -0.21115
C     3.29676   0.31839   0.09597
H    -1.96153   2.11643  -0.98794
H    -3.53153   2.01155  -0.11553
H    -1.96758   2.06437   0.77780
H    -1.02302  -2.15756   0.78383
H    -2.32837  -2.07212  -0.45966
H    -0.59001  -2.09413  -0.95076
H     3.42648   0.18065   1.18019
H     3.55094  -0.62055  -0.41867
H     3.94877   1.12623  -0.25832
