18
Generated by autodE on: 2022-10-26. E = -472.698029 Ha
C     1.10060  -1.74675   0.40967
N     1.12159  -1.24176  -0.93638
N     0.88025  -0.01550  -1.10649
C     1.04782   0.50183  -2.47756
N     0.61129   0.93032  -0.21245
C    -0.36252   0.74751   0.71930
O    -0.45432   1.41931   1.73946
O    -1.30334  -0.16694   0.36900
C    -2.37232  -0.36558   1.29795
H     1.71928  -2.65205   0.43458
H     0.07684  -2.01903   0.71017
H     1.47667  -1.00497   1.13562
H     0.07417   0.88006  -2.81515
H     1.40953  -0.30525  -3.12104
H     1.76591   1.33035  -2.43720
H    -3.01520  -1.13829   0.85896
H    -2.94474   0.56291   1.43931
H    -1.98768  -0.70633   2.27072
