17
Generated by autodE on: 2022-10-21. E = -881.716872 Ha
C     2.75570  -0.12484   0.76855
O     1.55751  -0.80528   1.15448
C     0.44424  -0.57082   0.45588
C     0.07935   0.19410  -0.59070
Cl    0.91516   1.38099  -1.53540
C    -1.45252   0.00349  -0.69449
C    -2.09489   0.67180   0.54527
C    -1.72750  -0.09682   1.57484
C    -0.87612  -1.21968   0.93765
O    -1.55389  -1.38388  -0.31975
H     3.54135  -0.47676   1.44875
H     2.63701   0.96407   0.87142
H     3.02683  -0.37213  -0.26901
H    -1.89669   0.20990  -1.67447
H    -2.66436   1.60051   0.53392
H    -1.90780   0.02571   2.64208
H    -0.76398  -2.15898   1.49041
