22
Generated by autodE on: 2022-06-16. E = -421.769852 Ha
C     2.71795  -0.22652   0.29806
C     1.24428  -0.20480   0.07976
N     0.58970  -1.22885  -0.33357
C    -0.83794  -0.85054  -0.41583
C    -1.56632  -1.45468   0.70651
N    -2.13463  -1.92297   1.60433
C    -0.89829   0.70364  -0.38675
C    -0.94709   1.26148  -1.80700
C     0.40799   1.02774   0.37936
C     1.07183   2.37035   0.09009
H     3.13259  -1.22683   0.11666
H     2.95071   0.08614   1.32953
H     3.21279   0.49715  -0.37009
H    -1.28453  -1.25997  -1.33530
H    -1.77902   1.05214   0.17093
H    -0.08290   0.92474  -2.40165
H    -1.86257   0.92466  -2.31764
H    -0.94967   2.36117  -1.80314
H     0.19347   0.97814   1.46421
H     1.41379   2.44420  -0.95297
H     0.37032   3.19743   0.27878
H     1.94500   2.52035   0.74283
