10
Generated by autodE on: 2022-06-16. E = -264.365745 Ha
C    -2.97148  -0.22337   0.13752
C    -1.55480   0.00149   0.31154
N    -0.41295   0.19416   0.44502
C     0.90215   0.41957   0.60446
C     1.81298  -0.00896  -0.36155
N     2.59856  -0.36143  -1.16234
H    -3.11948  -0.66014  -0.86354
H    -3.35900  -0.92965   0.88872
H    -3.53081   0.72441   0.18908
H     1.21893   0.94093   1.50819
