22
Generated by autodE on: 2022-06-16. E = -421.656280 Ha. Imaginary frequency = -399.3 cm-1
C     2.85736  -0.34272   0.81507
C     1.47928  -0.40224   0.32306
N     0.68003  -1.16452  -0.15601
C    -0.57040  -1.30714  -0.61167
C    -1.56406  -1.84442   0.22714
N    -2.42109  -2.24587   0.91808
C    -0.94532   1.21288  -0.04884
C    -1.43007   1.59448  -1.42081
C     0.29504   1.54615   0.44428
C     1.27365   2.41479  -0.31296
H     3.27390  -1.34726   0.98659
H     2.89599   0.24638   1.74342
H     3.47310   0.18342   0.06810
H    -0.72154  -1.33846  -1.69334
H    -1.69502   0.84180   0.65495
H    -0.65615   1.44872  -2.19107
H    -2.31460   1.01074  -1.71594
H    -1.71489   2.66397  -1.46095
H     0.43309   1.49438   1.52997
H     1.39853   2.08644  -1.35692
H     0.92674   3.46391  -0.34689
H     2.26663   2.41776   0.15990
