43
Generated by autodE on: 2022-06-18. E = -904.388331 Ha
C    -1.22979  -2.40059  -1.08095
C    -0.51399  -2.24247   0.04145
C     0.15931  -3.38034   0.75211
C    -0.28679  -0.87226   0.64830
C    -1.38102   0.14237   0.41650
C    -2.81604  -0.20772   0.66832
O    -3.14362  -1.06701   1.46238
O    -3.66789   0.51749  -0.04988
C    -5.06630   0.25854   0.15756
N    -1.01744   1.32637   0.10704
C     0.45410   1.38547   0.10973
C     0.90553   2.10673   1.37898
C     1.00355   2.08409  -1.13549
C     0.14815   2.08662  -2.36799
O     2.12838   2.55797  -1.11959
C     0.92718  -0.12118   0.03837
C     2.24899  -0.40961   0.67176
C     3.42491  -0.58630   0.03966
C     4.68662  -0.84584   0.81830
C     3.61056  -0.52366  -1.45235
H    -1.70269  -1.55439  -1.59010
H    -1.36406  -3.38731  -1.53365
H     1.24124  -3.18654   0.85187
H    -0.23581  -3.48127   1.77776
H     0.01931  -4.33531   0.22539
H    -0.15449  -0.98119   1.73944
H    -5.60112   0.93264  -0.52083
H    -5.34275   0.46690   1.20105
H    -5.29924  -0.78912  -0.08123
H     1.99666   2.22093   1.37793
H     0.60711   1.53882   2.27189
H     0.44772   3.10578   1.42972
H     0.72576   2.44227  -3.23091
H    -0.71960   2.74484  -2.20094
H    -0.25361   1.07953  -2.56056
H     0.95118  -0.39432  -1.02542
H     2.24302  -0.45743   1.76618
H     4.50651  -0.86963   1.90323
H     5.44192  -0.06805   0.60763
H     5.14159  -1.80635   0.51820
H     4.12238  -1.43187  -1.81461
H     4.26140   0.32741  -1.71732
H     2.67028  -0.41126  -2.00739
