20
Generated by autodE on: 2022-06-18. E = -552.786807 Ha
C     3.64606   0.89202  -1.20653
O     2.38221   0.23756  -0.98900
C     2.06188  -0.02908   0.27668
O     2.74587   0.21935   1.24980
C     0.80256  -0.76351   0.35849
N    -0.33769  -0.45344   0.59819
C    -1.60303  -0.22506   0.69289
C    -2.27886  -0.13535   2.02973
C    -2.31566  -0.07685  -0.60072
C    -3.79347   0.19111  -0.52584
O    -1.71508  -0.17641  -1.66769
H     3.65815   1.87566  -0.71602
H     4.46764   0.27391  -0.81740
H     3.73765   1.00835  -2.29216
H    -2.74594   0.85278   2.16791
H    -1.55524  -0.29554   2.83974
H    -3.07587  -0.89131   2.11538
H    -4.30513  -0.62871   0.00376
H    -4.20193   0.28999  -1.53962
H    -3.98820   1.11180   0.04730
