53
Generated by autodE on: 2022-06-21. E = -1093.857128 Ha
C     5.36172   2.00228  -0.00958
C     4.51678   0.95139  -0.00322
C     5.00239  -0.45645   0.22093
C     3.08247   1.16911  -0.22228
C     2.14040   0.20842  -0.22748
C     0.68457   0.48145  -0.43423
C    -0.03212  -0.36217  -1.53402
C     0.65144  -1.69125  -1.87321
C     1.79476  -1.61916  -2.84622
O     0.25917  -2.75475  -1.41984
N    -1.38170  -0.55765  -1.05153
C    -2.41605  -0.59728  -2.06765
C    -1.63972   0.14316   0.19359
C    -2.52218  -0.71204   1.12664
O    -3.03114  -0.24890   2.16381
N    -2.64160  -1.99391   0.77124
C    -3.25795  -2.98524   1.62648
C    -2.21461   1.56052  -0.08392
O    -1.79086   2.20464  -1.05432
N    -3.14661   2.04090   0.74637
C    -3.67081   3.38382   0.60746
C    -0.19607   0.27643   0.84156
C    -0.07290   1.46622   1.79298
C     0.20175  -1.00009   1.60091
H     6.43586   1.87270   0.15016
H     4.99684   3.02074  -0.17444
H     4.74447  -1.10398  -0.63375
H     4.52502  -0.90398   1.10861
H     6.09197  -0.48506   0.36220
H     2.77493   2.20694  -0.39672
H     2.43299  -0.83077  -0.05350
H     0.56744   1.53083  -0.72894
H    -0.01890   0.22920  -2.46874
H     1.36115  -1.59560  -3.86193
H     2.43607  -2.50613  -2.75707
H     2.38102  -0.69745  -2.72411
H    -3.40066  -0.73871  -1.59953
H    -2.45525   0.32445  -2.67794
H    -2.24201  -1.45020  -2.74307
H    -2.07711  -2.26915  -0.03277
H    -3.48527  -3.88208   1.03616
H    -4.19135  -2.59112   2.05201
H    -2.59443  -3.27031   2.46120
H    -3.37620   1.46029   1.55541
H    -4.06919   3.54772  -0.40542
H    -2.89189   4.14366   0.78880
H    -4.47980   3.52878   1.33416
H    -0.77241   1.36356   2.63572
H    -0.26880   2.42354   1.28892
H     0.94883   1.50751   2.19987
H    -0.44598  -1.15548   2.47563
H     0.16201  -1.89562   0.96868
H     1.22971  -0.89480   1.97551
