23
Generated by autodE on: 2022-06-21. E = -351.521381 Ha
C     3.66596   0.74192  -0.55671
C     2.58350   0.09815  -0.06721
C     2.72658  -1.09971   0.83656
C     1.24091   0.56005  -0.41395
C     0.07872   0.00064   0.00704
C    -1.22877   0.49891  -0.36835
C    -2.43304  -0.00720  -0.00060
C    -2.61570  -1.20927   0.88198
C    -3.71028   0.62739  -0.47379
H     4.68173   0.41763  -0.31395
H     3.55862   1.61103  -1.21309
H     2.24017  -0.92331   1.81034
H     3.78414  -1.33864   1.01687
H     2.24054  -1.98762   0.39906
H     1.19112   1.43536  -1.07284
H     0.12076  -0.87236   0.66396
H    -1.22957   1.38082  -1.02039
H    -3.20266  -1.98274   0.35576
H    -3.20109  -0.93966   1.77884
H    -1.67260  -1.66278   1.21296
H    -4.33113   0.94387   0.38367
H    -4.32126  -0.09796  -1.04076
H    -3.52753   1.50345  -1.11322
