30
Generated by autodE on: 2022-06-21. E = -742.271503 Ha
C    -2.59364   3.06407  -0.69831
N    -2.17099   1.74703  -0.27948
C    -0.86320   1.39714  -0.29603
O     0.01776   2.22825  -0.59414
C    -0.56728  -0.02229   0.00277
C    -1.61822  -0.96660   0.42221
O    -2.82608  -0.82159   0.13061
N    -1.23982  -1.99433   1.21971
C    -2.18475  -3.00651   1.64600
N     0.73192  -0.46570  -0.13523
C     0.96271  -1.79539  -0.75384
C     1.76989   0.31708   0.15086
C     3.16645   0.08989  -0.21350
C     4.10086   1.17477   0.26511
O     3.58320  -0.88363  -0.84584
H    -3.66171   3.18347  -0.47449
H    -2.03164   3.84383  -0.16241
H    -2.44379   3.23155  -1.77984
H    -2.84184   0.98040  -0.20378
H    -0.28649  -2.05271   1.55697
H    -2.95945  -2.58743   2.30919
H    -2.69267  -3.46244   0.78184
H    -1.64136  -3.78870   2.19047
H     1.50818  -1.63992  -1.69048
H     0.00075  -2.26481  -0.96526
H     1.57035  -2.42422  -0.09313
H     1.54177   1.22268   0.70275
H     5.13185   0.93343  -0.02347
H     4.03389   1.28146   1.36025
H     3.80784   2.14455  -0.17027
