30
Generated by autodE on: 2022-07-27. E = -742.273722 Ha
C    -1.07216  -3.23815   0.05273
N    -0.90783  -1.86738  -0.39303
C    -0.64214  -0.88674   0.49371
O    -0.78750  -1.08207   1.71270
C    -0.33978   0.47267  -0.05930
C    -0.78832   1.69557   0.66564
O    -0.49200   2.84002   0.28335
N    -1.52420   1.49777   1.78204
C    -1.87914   2.61269   2.63288
N     0.27750   0.60940  -1.25453
C    -0.00023   1.77067  -2.13862
C     1.18640  -0.26380  -1.75665
C     2.03882  -1.09139  -0.94599
C     3.16600  -1.79025  -1.67084
O     1.90832  -1.22391   0.28220
H    -1.28829  -3.86899  -0.81813
H    -1.90509  -3.32110   0.76582
H    -0.15998  -3.61262   0.54679
H    -0.67276  -1.72171  -1.36935
H    -1.53737   0.54707   2.15334
H    -2.43785   3.37438   2.06851
H    -0.99023   3.10487   3.06507
H    -2.51111   2.24726   3.45201
H     0.12140   1.42163  -3.17053
H     0.71725   2.57267  -1.93536
H    -1.01901   2.13017  -1.98063
H     1.41424  -0.14104  -2.81257
H     2.88594  -2.84981  -1.80341
H     3.37766  -1.36200  -2.65961
H     4.07076  -1.76553  -1.04561
