53
Generated by autodE on: 2022-06-21. E = -1093.768240 Ha. Imaginary frequency = -324.0 cm-1
C     5.75457   0.33186  -1.18538
C     4.68597   0.00364  -0.42481
C     4.79323  -1.02630   0.67097
C     3.39401   0.64088  -0.66042
C     2.25965   0.39492   0.04343
C     0.98936   1.03920  -0.21157
C    -0.22891  -0.36024  -1.69068
C     0.48431  -1.47696  -1.07820
C     1.65153  -1.96821  -1.90376
O     0.21135  -2.02713  -0.00716
N    -1.42878   0.20226  -1.38198
C    -1.91475   1.15309  -2.40190
C    -1.86755   0.22200  -0.05971
C    -2.11391  -1.14035   0.56699
O    -2.10799  -1.33423   1.79192
N    -2.56056  -2.08584  -0.28705
C    -2.73615  -3.45588   0.15168
C    -2.91308   1.22355   0.35886
O    -3.28572   2.17587  -0.34063
N    -3.39258   1.06021   1.61130
C    -4.26928   2.04513   2.20572
C     0.01383   1.23303   0.81122
C    -0.51166   2.65071   0.91117
C     0.21030   0.57006   2.15296
H     6.73044  -0.13718  -1.03213
H     5.67420   1.07832  -1.98171
H     4.10278  -1.86739   0.49251
H     4.51870  -0.59703   1.64879
H     5.81447  -1.42603   0.74387
H     3.35628   1.36743  -1.48076
H     2.29560  -0.32797   0.86097
H     0.99937   1.78540  -1.01178
H     0.10333  -0.13272  -2.70277
H     1.26208  -2.67469  -2.65816
H     2.36257  -2.50030  -1.25814
H     2.16139  -1.15580  -2.43837
H    -3.00640   1.17250  -2.41193
H    -1.53979   2.16779  -2.21261
H    -1.54881   0.80687  -3.37501
H    -2.44066  -1.91939  -1.28014
H    -3.16584  -4.04125  -0.67083
H    -3.41859  -3.50093   1.01242
H    -1.77687  -3.91091   0.45013
H    -3.01888   0.29204   2.16721
H    -5.20900   2.14288   1.63899
H    -3.79522   3.04050   2.23939
H    -4.50807   1.73365   3.23034
H    -1.35855   2.73834   1.60492
H    -0.80538   3.06170  -0.06346
H     0.29550   3.28973   1.31349
H    -0.69007   0.67108   2.77240
H     0.44922  -0.49623   2.06918
H     1.03920   1.06724   2.68983
