15
Generated by autodE on: 2022-06-20. E = -396.277795 Ha
C     2.78828   0.96159  -0.33135
N     1.34159   1.00833  -0.39492
C     0.58622  -0.02956   0.03260
O     1.08865  -1.06501   0.50066
C    -0.87007   0.15587  -0.09349
C    -1.56336   1.37567  -0.63915
N    -1.57998  -0.85800   0.31866
N    -2.18547  -1.74996   0.68218
H     3.14044   0.81644   0.70253
H     3.19457   0.13925  -0.94261
H     3.18958   1.91012  -0.70855
H     0.89720   1.83102  -0.78518
H    -1.30329   2.27236  -0.05264
H    -2.65385   1.25079  -0.60266
H    -1.27615   1.55827  -1.68807
