26
Generated by autodE on: 2022-06-20. E = -689.460880 Ha
C     2.91823  -1.51271   0.85089
O     1.51046  -1.75340   0.75610
C     0.64301  -0.81187   0.38608
C     0.86968   0.49595   0.07689
O     2.10269   1.07873   0.15052
C     2.72754   1.37358  -1.10298
C    -0.25651   1.38404  -0.28323
O    -0.04061   2.57402  -0.50657
C    -1.64253   0.83170  -0.36328
C    -2.73891   1.76386  -0.77228
C    -1.88106  -0.46653  -0.05202
C    -3.25616  -1.05800  -0.09577
C    -0.76099  -1.35597   0.34931
O    -0.94666  -2.52878   0.64349
H     3.35378  -2.47003   1.16407
H     3.33506  -1.22168  -0.12383
H     3.13752  -0.74094   1.59987
H     3.68926   1.84962  -0.86990
H     2.90735   0.44755  -1.67418
H     2.11596   2.06242  -1.70439
H    -2.34704   2.76192  -1.00012
H    -3.26844   1.37659  -1.65828
H    -3.49220   1.85353   0.02829
H    -3.24224  -2.11678   0.18810
H    -3.93478  -0.51783   0.58481
H    -3.68677  -0.96793  -1.10666
