41
Generated by autodE on: 2022-06-20. E = -1085.718358 Ha. Imaginary frequency = -385.2 cm-1
C    -0.50184  -1.90956   2.67619
N    -1.12692  -0.85131   1.90393
C    -1.68320  -1.05533   0.69628
O    -1.89218  -2.17073   0.20932
C    -2.05385   0.16129  -0.12497
C    -3.30297   0.00553  -0.94432
N    -1.89703   1.35850   0.51753
N    -1.15274   2.25346   0.53326
C     0.20554   1.75370  -0.99665
C     0.12429   3.07608  -1.71389
C     1.32713   1.60677  -0.03204
O     1.96467   2.58088   0.37325
C     1.65947   0.25358   0.46352
O     2.50130   0.10413   1.51674
C     2.23951   0.87125   2.69953
C     1.25898  -0.85980  -0.21838
O     1.75238  -2.04435   0.17544
C     1.21270  -3.31005  -0.22943
C     0.35247  -0.71311  -1.39334
O     0.20696  -1.63540  -2.18950
C    -0.36970   0.57966  -1.56579
C    -1.09524   0.69870  -2.88245
H    -0.63756  -1.71229   3.74821
H     0.57573  -1.97281   2.45860
H    -0.97133  -2.86862   2.42728
H    -0.90910   0.09908   2.18494
H    -4.16451  -0.21685  -0.29400
H    -3.16311  -0.84778  -1.61919
H    -3.51731   0.90835  -1.52792
H     0.73529   3.05623  -2.63278
H     0.50257   3.88006  -1.07054
H    -0.90627   3.31704  -2.00644
H     2.67480   0.30730   3.53577
H     1.15651   0.98267   2.86578
H     2.70436   1.86460   2.64149
H     0.11692  -3.30824  -0.19252
H     1.60737  -4.03266   0.49729
H     1.55441  -3.57636  -1.23829
H    -0.37229   0.92533  -3.68470
H    -1.83421   1.50833  -2.86802
H    -1.59950  -0.23678  -3.14838
