17
Generated by autodE on: 2022-06-18. E = -456.183607 Ha
C     2.79998   1.63545  -0.39480
N     2.04633   0.70551  -0.36846
C     1.16766  -0.24450  -0.17847
C     1.64965  -1.58181  -0.15954
N     2.02652  -2.68555  -0.14256
C    -0.25866   0.06446   0.01901
C    -1.18660  -0.97348   0.22791
C    -2.53674  -0.68305   0.42522
C    -2.98507   0.64186   0.41889
C    -2.06712   1.67731   0.21098
C    -0.71579   1.39614   0.00996
H     3.20110   2.20424  -1.24441
H    -0.84878  -2.01197   0.23791
H    -3.24344  -1.50054   0.58601
H    -4.04274   0.86629   0.57347
H    -2.40587   2.71595   0.20249
H    -0.01259   2.21487  -0.15539
