20
Generated by autodE on: 2022-06-18. E = -457.715333 Ha
C    -3.05494  -0.86780  -0.06156
N    -1.82897  -0.08772  -0.01569
C    -1.88696   1.27076   0.32083
C    -0.78851   2.02706   0.47393
C     0.61187   1.49231   0.30058
C     0.57630   0.00720  -0.02121
C     1.81518  -0.76410  -0.21182
N     2.97400  -0.06858  -0.09252
O     1.83340  -1.98559  -0.46675
C    -0.60214  -0.66501  -0.15066
H    -3.49311  -0.99442   0.94321
H    -3.80056  -0.37496  -0.70405
H    -2.83891  -1.86028  -0.47702
H    -2.89524   1.66965   0.44614
H    -0.91521   3.08135   0.73049
H     1.20789   1.68509   1.21591
H     1.13963   2.05772  -0.49517
H     2.99885   0.92348   0.10575
H     3.85139  -0.56123  -0.21798
H    -0.59752  -1.73152  -0.38133
