37
Generated by autodE on: 2022-06-18. E = -913.898474 Ha. Imaginary frequency = -407.8 cm-1
C    -2.92929   1.98252   1.95127
N    -2.40112   1.35668   0.74844
C    -2.26127   0.00039   0.70943
C    -1.62100  -0.67656  -0.28393
C    -1.51597  -2.13629  -0.14945
N    -0.93026  -2.79937  -1.18461
O    -1.95153  -2.76593   0.83490
C    -1.07799   0.06510  -1.48787
C    -0.93273   1.53175  -1.17751
C    -1.58248   2.13010  -0.11436
C     0.05452   2.67169   1.26250
N     1.06157   2.13080   0.85679
C     1.49738   1.34601  -0.14332
C     2.03225   2.00971  -1.27831
N     2.45602   2.53664  -2.23075
C     1.73033  -0.08315   0.07010
C     1.25832  -0.72012   1.23528
C     1.42460  -2.09316   1.40720
C     2.05190  -2.86034   0.41927
C     2.52199  -2.23756  -0.74158
C     2.36548  -0.86279  -0.91789
H    -3.25312   3.00680   1.72133
H    -2.18059   2.02513   2.76173
H    -3.79881   1.41560   2.31042
H    -2.69824  -0.54615   1.54687
H    -0.67006  -3.76542  -1.01244
H    -0.36050  -2.29654  -1.85522
H    -1.74639  -0.06979  -2.36522
H    -0.10786  -0.35276  -1.80805
H    -0.51011   2.18231  -1.94374
H    -1.83487   3.19168  -0.14685
H    -0.10815   3.35566   2.10347
H     0.75611  -0.13394   2.00640
H     1.04338  -2.57084   2.31222
H     2.17239  -3.93758   0.55317
H     3.01236  -2.82666  -1.52002
H     2.73516  -0.38675  -1.82852
