49
Generated by autodE on: 2022-06-02. E = -1167.133767 Ha
C    -0.31438   0.95051  -2.52695
N     0.32246   0.17810  -1.47480
C     1.76166   0.35352  -1.31744
C     2.52840  -0.19224  -2.53696
C     2.15444   1.79439  -1.23183
N     2.47269   2.91048  -1.25754
C     2.10711  -0.35739   0.02985
C     2.62597  -1.81722  -0.15637
C     2.91443  -2.38996   1.21924
C     1.71612  -2.66184   1.74859
C     0.71139  -2.22384   0.69025
O     1.40710  -2.48862  -0.51811
C     0.72262  -0.61443   0.72801
C     0.61654  -0.22475   2.12802
N     0.49711   0.00736   3.25947
C    -0.36603   0.10238  -0.17360
C    -0.74380   1.52284   0.31017
C     0.15625   2.36016   0.98701
C    -0.17349   3.68395   1.29108
C    -1.41223   4.20691   0.91640
C    -2.31526   3.39173   0.22825
C    -1.98189   2.06945  -0.07031
C    -1.60183  -0.79960  -0.24139
C    -1.82775  -1.65648  -1.32394
C    -2.91181  -2.54084  -1.31824
C    -3.77590  -2.59001  -0.22228
C    -3.54825  -1.74607   0.87046
C    -2.47288  -0.85652   0.85831
H     0.13827   0.70086  -3.49660
H    -0.23621   2.04453  -2.37829
H    -1.37931   0.69386  -2.58436
H     2.31030   0.41142  -3.42776
H     3.61150  -0.15099  -2.35620
H     2.22469  -1.22816  -2.73099
H     2.79796   0.24259   0.63078
H     3.39996  -1.94644  -0.91628
H     3.90329  -2.47076   1.67001
H     1.46514  -3.01984   2.74597
H    -0.28267  -2.67367   0.70667
H     1.13808   2.00504   1.29366
H     0.54964   4.30634   1.82311
H    -1.67129   5.24095   1.15559
H    -3.28691   3.78479  -0.08019
H    -2.70057   1.45428  -0.61166
H    -1.14039  -1.64571  -2.16844
H    -3.07491  -3.19858  -2.17538
H    -4.62094  -3.28249  -0.21641
H    -4.21288  -1.77865   1.73704
H    -2.30720  -0.20414   1.71740
