35
Generated by autodE on: 2022-07-27. E = -767.250020 Ha
C     3.02709   0.97976  -2.30777
C     2.19270   0.58834  -1.12029
C     2.52916   1.07808   0.14404
N     2.86793   1.48655   1.19331
N     1.07685  -0.21054  -1.25152
C     1.04139  -1.06349  -2.45523
C     0.03392  -0.20562  -0.39005
C    -0.28971   0.99910   0.39643
C    -0.68431   0.89409   1.74331
C    -1.07260   2.02393   2.46826
C    -1.07577   3.28230   1.86300
C    -0.68152   3.40150   0.52229
C    -0.28913   2.27904  -0.20022
C    -0.76887  -1.42093  -0.19591
C    -0.17061  -2.69920  -0.15750
C    -0.94143  -3.84360   0.04777
C    -2.32457  -3.74089   0.22904
C    -2.93051  -2.47866   0.20679
C    -2.16431  -1.33301   0.00069
H     3.82532   1.65874  -1.97859
H     3.50965   0.11829  -2.79939
H     2.43421   1.51053  -3.07466
H     0.08308  -1.58309  -2.51429
H     1.14152  -0.41763  -3.33712
H     1.86824  -1.78526  -2.44435
H    -0.68252  -0.08457   2.22647
H    -1.37124   1.91700   3.51392
H    -1.37996   4.16659   2.42762
H    -0.68743   4.38010   0.03611
H     0.01605   2.38813  -1.24309
H     0.91099  -2.79327  -0.27002
H    -0.45591  -4.82198   0.07906
H    -2.92643  -4.63765   0.39310
H    -4.01033  -2.38761   0.34677
H    -2.64754  -0.35474  -0.02170
