49
Generated by autodE on: 2022-06-02. E = -1167.054731 Ha. Imaginary frequency = -192.7 cm-1
C    -0.19426  -0.66559  -2.70807
N     0.08708   0.22147  -1.56105
C     1.37806   0.76022  -1.54655
C     2.21211   0.74219  -2.80696
C     1.70150   1.84706  -0.68532
N     2.14941   2.69108  -0.01432
C     2.46479  -0.60185  -0.10570
C     2.59538  -1.98146  -0.78392
C     3.41136  -2.87066   0.17548
C     2.58903  -3.11573   1.20263
C     1.28663  -2.36210   0.86284
O     1.27357  -2.50517  -0.56623
C     1.61821  -0.85128   0.97323
C     1.49255  -0.09438   2.14044
N     1.36639   0.52701   3.12698
C    -0.82910   0.37261  -0.57912
C    -0.93852   1.65045   0.15914
C    -1.17456   1.66441   1.54461
C    -1.38501   2.86848   2.21605
C    -1.39021   4.07613   1.51080
C    -1.18952   4.07069   0.12563
C    -0.96474   2.87054  -0.54569
C    -1.95148  -0.57484  -0.40669
C    -1.79643  -1.97396  -0.51421
C    -2.87578  -2.83095  -0.30439
C    -4.13895  -2.31949   0.01055
C    -4.31206  -0.93555   0.11300
C    -3.23413  -0.07466  -0.08789
H     0.42191  -1.56989  -2.67115
H     0.01789  -0.11241  -3.63029
H    -1.25116  -0.93539  -2.70826
H     1.79066   1.39204  -3.59368
H     3.21644   1.11626  -2.56651
H     2.32378  -0.26986  -3.21738
H     3.29509   0.10262  -0.09772
H     2.87246  -1.99343  -1.84257
H     4.45637  -3.14630   0.03744
H     2.77902  -3.65306   2.13149
H     0.35539  -2.70799   1.32306
H    -1.18771   0.72392   2.09397
H    -1.54725   2.86270   3.29636
H    -1.55955   5.01862   2.03672
H    -1.21192   5.00753  -0.43586
H    -0.81186   2.87409  -1.62672
H    -0.82042  -2.38836  -0.75218
H    -2.72535  -3.91026  -0.38288
H    -4.98218  -2.99440   0.17428
H    -5.29505  -0.52095   0.34818
H    -3.38971   1.00149  -0.01196
