39
Generated by autodE on: 2022-06-07. E = -977.004487 Ha
C     1.88090   0.82839  -1.78149
N     1.90538   1.71524  -0.63810
C     1.91357   1.37697   0.67828
O     2.16438   2.22693   1.55001
C     1.66812  -0.03537   1.02039
O     0.69248  -0.77807   0.39509
C    -0.42097  -0.41260  -0.16244
C    -0.98760   0.92638   0.02196
C    -1.57909   1.61025  -1.05693
C    -2.15919   2.86252  -0.85828
C    -2.17561   3.43269   0.41809
C    -1.60476   2.74967   1.49925
C    -1.00108   1.51091   1.30545
C    -1.07808  -1.46520  -0.91961
C    -2.46238  -1.41125  -1.19532
C    -3.07635  -2.44440  -1.89883
C    -2.32661  -3.54122  -2.33840
C    -0.95312  -3.60457  -2.06984
C    -0.32969  -2.57773  -1.36873
C     2.45411  -0.77233   1.95313
C     2.09354  -2.23240   2.16543
O     3.40294  -0.26279   2.58614
H     2.31100  -0.14818  -1.52119
H     2.48804   1.26269  -2.58783
H     0.86424   0.66827  -2.17952
H     1.98994   2.71286  -0.81481
H    -1.56229   1.16688  -2.05341
H    -2.60089   3.39429  -1.70348
H    -2.63364   4.41217   0.57289
H    -1.62562   3.18954   2.49838
H    -0.54921   0.98796   2.14934
H    -3.05884  -0.57444  -0.83238
H    -4.14883  -2.39841  -2.09875
H    -2.81228  -4.34762  -2.89239
H    -0.36591  -4.45620  -2.41964
H     0.74367  -2.61329  -1.17984
H     1.11119  -2.32323   2.65705
H     2.02824  -2.78002   1.21236
H     2.85933  -2.69254   2.80398
