38
Generated by autodE on: 2022-10-07. E = -913.632289 Ha
C     3.05775   2.63597  -0.52998
N     1.98606   1.87121  -1.17673
C     0.97514   1.37949  -0.30675
N     0.34764   2.35794   0.51482
N    -0.14091   0.76257  -1.16136
C    -0.65406  -0.47428  -0.40515
C    -0.37318  -1.71489  -1.23145
C    -2.10747  -0.30254  -0.00789
C    -2.46925  -0.10666   1.33158
C    -3.81477   0.05428   1.67429
C    -4.80217   0.03046   0.68664
C    -4.44144  -0.15800  -0.65132
C    -3.10073  -0.32946  -0.99886
O     0.15080  -0.42672   0.78659
N     1.36919   0.16314   0.45254
C     2.44624  -0.69916   0.22857
O     3.52359  -0.33870  -0.19319
O     2.15960  -1.93234   0.63976
C     3.22633  -2.88992   0.54798
H     3.52474   2.03754   0.25999
H     2.71857   3.59662  -0.10417
H     3.82682   2.85468  -1.28319
H     1.52665   2.47404  -1.86123
H    -0.26881   1.93182   1.20909
H     1.06180   2.88492   1.01810
H    -0.88594   1.45619  -1.31565
H     0.25006   0.49139  -2.07480
H     0.68104  -1.76125  -1.53740
H    -0.99631  -1.71698  -2.13570
H    -0.61662  -2.59818  -0.62723
H    -1.70365  -0.08180   2.10592
H    -4.08880   0.20162   2.72125
H    -5.85246   0.15973   0.95763
H    -5.20694  -0.17458  -1.43012
H    -2.83209  -0.47462  -2.04720
H     2.81872  -3.82507   0.94800
H     3.53073  -3.02465  -0.49955
H     4.08836  -2.56233   1.14600
