13
Generated by autodE on: 2022-10-07. E = -245.298488 Ha
C    -1.92096  -0.48054   0.00720
N    -0.82297   0.46914  -0.04450
C     0.46650   0.12584  -0.00174
N     1.40765   1.07217  -0.07533
N     0.82251  -1.15595   0.10978
H    -1.87781  -1.19241  -0.83258
H    -1.92161  -1.04621   0.95278
H    -2.86077   0.07859  -0.06162
H    -1.03773   1.45733  -0.13231
H     2.39038   0.82483  -0.03867
H     1.15020   2.04781  -0.17560
H     0.13052  -1.88993   0.20319
H     1.80360  -1.40856   0.15951
