25
Generated by autodE on: 2022-10-07. E = -668.351566 Ha
C     3.59083   1.48920  -1.39279
O     2.50637   0.75046  -0.83059
C     2.82047  -0.47169  -0.31941
O     3.97380  -0.90882  -0.34196
N     1.81366  -1.19694   0.21934
O     0.62069  -0.45741   0.10476
C    -0.47064  -0.96142   0.54655
C    -0.44941  -2.30044   1.16459
C    -1.64316  -0.11660   0.37156
C    -2.90716  -0.51713   0.85275
C    -4.01711   0.30687   0.67625
C    -3.88451   1.53397   0.01981
C    -2.63291   1.94197  -0.46224
C    -1.52010   1.12872  -0.28970
H     4.04658   0.94683  -2.23515
H     4.36584   1.69341  -0.63848
H     3.16221   2.43438  -1.74933
H     0.25036  -2.28664   2.01698
H    -1.43713  -2.63578   1.48969
H    -0.02251  -3.01438   0.44071
H    -3.02807  -1.46853   1.36968
H    -4.99082  -0.01140   1.05362
H    -4.75738   2.17607  -0.11789
H    -2.52961   2.90017  -0.97540
H    -0.54547   1.44275  -0.66373
