25
Generated by autodE on: 2022-10-13. E = -668.351574 Ha
C     3.17091  -1.46194   2.20221
O     2.27836  -0.86413   1.26230
C     2.85906  -0.26691   0.18537
O     4.08318  -0.24750   0.03322
N     2.03804   0.31047  -0.72172
O     0.70763   0.13523  -0.29458
C    -0.24478   0.60827  -1.00848
C     0.07753   1.32427  -2.25701
C    -1.57824   0.36828  -0.47581
C    -1.73137  -0.32635   0.74783
C    -2.99895  -0.56334   1.26404
C    -4.13464  -0.11569   0.57478
C    -3.99523   0.57116  -0.63472
C    -2.72786   0.81454  -1.16081
H     2.53963  -1.88983   2.99128
H     3.85127  -0.71316   2.63568
H     3.76861  -2.25758   1.73199
H     0.65764   0.65130  -2.91032
H     0.75369   2.16204  -2.01822
H    -0.80785   1.69064  -2.78175
H    -0.84637  -0.67337   1.28143
H    -3.10810  -1.09966   2.20882
H    -5.12987  -0.30399   0.98374
H    -4.87882   0.91982  -1.17283
H    -2.63856   1.35058  -2.10506
