38
Generated by autodE on: 2022-10-07. E = -913.621521 Ha. Imaginary frequency = -141.5 cm-1
C     3.06642   2.31891  -1.75516
N     1.64160   2.04663  -1.61062
C     1.12031   1.63413  -0.45549
N     1.64303   1.99607   0.72838
N    -0.30715   1.35748  -0.44974
C    -0.76452  -0.18187  -0.81395
C    -0.67476  -0.32190  -2.32154
C    -2.14513  -0.34101  -0.21488
C    -2.27193  -0.78486   1.11155
C    -3.53577  -0.91434   1.68866
C    -4.68061  -0.59258   0.95295
C    -4.55714  -0.14232  -0.36427
C    -3.29495  -0.01799  -0.94970
O     0.12200  -0.95088  -0.11205
N     1.45072  -0.54977  -0.48476
C     2.32940  -0.86249   0.48770
O     3.49928  -0.46416   0.44663
O     1.85944  -1.61164   1.51565
C     2.80627  -1.94650   2.53271
H     3.66339   1.42374  -1.52074
H     3.36980   3.14297  -1.09329
H     3.25195   2.62095  -2.79172
H     1.16165   1.73535  -2.45137
H     2.65919   2.04093   0.78773
H     1.21442   1.58739   1.55784
H    -0.68816   1.55064   0.48616
H    -0.79669   1.99084  -1.09976
H     0.37258  -0.31479  -2.64332
H    -1.22379   0.47408  -2.84082
H    -1.11566  -1.29087  -2.59342
H    -1.37800  -1.03257   1.68407
H    -3.62600  -1.26779   2.71816
H    -5.66926  -0.69246   1.40681
H    -5.44744   0.11232  -0.94323
H    -3.21661   0.33486  -1.97828
H     2.26008  -2.54968   3.26863
H     3.20553  -1.04125   3.01405
H     3.64107  -2.53095   2.11762
