51
Generated by autodE on: 2022-06-24. E = -1171.480350 Ha
C    -4.69559  -1.62136   2.40023
C    -3.96571  -1.33705   1.30242
C    -4.53159  -1.47977  -0.08575
C    -2.58250  -0.87213   1.45020
C    -1.74935  -0.56037   0.44100
C    -0.33316  -0.11979   0.65365
C     0.17539   0.97940  -0.27075
C    -0.65107   2.11728  -0.71712
C    -0.31766   2.81389  -1.89395
C    -1.08601   3.89725  -2.31600
C    -2.19350   4.30852  -1.56408
C    -2.52778   3.62887  -0.38932
C    -1.76671   2.53546   0.03023
N     1.40405   0.86102  -0.63457
C     1.97608  -0.32831   0.01411
C     2.75142   0.25096   1.21296
O     2.25046   0.56617   2.27026
O     4.02737   0.47381   0.90846
C     4.83506   1.11763   1.90861
C     2.94148  -1.10941  -0.87011
O     3.60183  -2.03757  -0.44691
O     2.93648  -0.72093  -2.13868
C     3.75758  -1.47372  -3.04670
C     0.74450  -1.23141   0.41040
C     0.95641  -2.13602   1.62068
C     0.34935  -2.09973  -0.79823
H    -4.27337  -1.51243   3.40394
H    -5.72956  -1.96950   2.32443
H    -5.57324  -1.82930  -0.05794
H    -3.94110  -2.19411  -0.68337
H    -4.50132  -0.51857  -0.62544
H    -2.21836  -0.76987   2.47940
H    -2.08642  -0.64694  -0.59518
H    -0.22529   0.24158   1.68852
H     0.54514   2.48781  -2.47618
H    -0.82331   4.42399  -3.23636
H    -2.79527   5.15804  -1.89559
H    -3.38675   3.94957   0.20441
H    -2.03398   2.01452   0.94943
H     5.83714   1.20500   1.47427
H     4.86518   0.50802   2.82254
H     4.42894   2.11228   2.14120
H     3.62241  -1.00862  -4.02963
H     3.43233  -2.52357  -3.07210
H     4.81192  -1.42261  -2.74041
H     0.04167  -2.72135   1.80265
H     1.77883  -2.84254   1.43293
H     1.18448  -1.56726   2.53035
H    -0.58470  -2.63605  -0.58167
H     1.11955  -2.85731  -1.00180
H     0.19825  -1.50326  -1.70941
