28
Generated by autodE on: 2022-06-24. E = -819.896137 Ha
C    -1.96181  -3.66900  -0.06203
O    -1.40788  -2.35159  -0.03056
C    -2.29097  -1.32834   0.07704
O    -3.49884  -1.51054   0.14132
C    -1.61968  -0.04418   0.10090
N    -0.27354  -0.02599   0.00877
C     0.88557   0.00008  -0.06853
C     2.29627   0.04322  -0.15437
C     3.01168  -1.11582  -0.52331
C     4.40059  -1.05653  -0.59751
C     5.07387   0.13886  -0.31929
C     4.35805   1.28665   0.04121
C     2.96941   1.25035   0.13169
C    -2.31219   1.22348   0.22233
O    -3.52114   1.37610   0.33031
O    -1.44761   2.26789   0.20690
C    -2.02166   3.57198   0.32039
H    -1.10996  -4.35400  -0.15118
H    -2.51934  -3.88285   0.86226
H    -2.63431  -3.79233  -0.92417
H     2.47336  -2.03910  -0.74210
H     4.96230  -1.94975  -0.87802
H     6.16337   0.17623  -0.38384
H     4.88660   2.21725   0.25730
H     2.39830   2.13537   0.41579
H    -2.71229   3.77106  -0.51280
H    -2.56430   3.68167   1.27133
H    -1.18194   4.27662   0.28599
