51
Generated by autodE on: 2022-06-24. E = -1171.409423 Ha. Imaginary frequency = -401.7 cm-1
C    -4.57871  -0.24760  -0.78995
C    -3.38362  -0.86788  -0.89603
C    -3.05369  -1.75565  -2.06763
C    -2.36301  -0.64846   0.12697
C    -1.09683  -1.12267   0.08947
C    -0.07201  -0.76920   1.07281
C     0.48221   1.14030   0.34897
C    -0.66017   2.02071   0.37463
C    -1.28881   2.33407  -0.84526
C    -2.48407   3.05136  -0.83853
C    -3.04596   3.46671   0.37354
C    -2.41480   3.16207   1.58577
C    -1.23311   2.42301   1.59323
N     1.60401   1.08238  -0.11532
C     2.48498   0.06973  -0.35623
C     3.74025   0.03861   0.37439
O     4.60368  -0.82426   0.28021
O     3.83436   1.06095   1.25293
C     4.98443   1.06644   2.10285
C     2.28050  -0.72798  -1.55955
O     3.00963  -1.62551  -1.95734
O     1.14347  -0.38415  -2.20468
C     0.77937  -1.18032  -3.33465
C     1.13224  -1.48249   1.22950
C     1.93319  -1.23533   2.47623
C     1.43853  -2.76066   0.51000
H    -5.35731  -0.37272  -1.54765
H    -4.80098   0.40744   0.05799
H    -3.90611  -1.84155  -2.75614
H    -2.77238  -2.76796  -1.73317
H    -2.19137  -1.36179  -2.63077
H    -2.65874  -0.00699   0.96383
H    -0.78223  -1.74127  -0.75323
H    -0.43191  -0.25902   1.97312
H    -0.84536   1.98921  -1.78070
H    -2.98185   3.28256  -1.78255
H    -3.98338   4.02735   0.37477
H    -2.85586   3.48877   2.52973
H    -0.75204   2.14885   2.53385
H     4.89727   1.96644   2.72331
H     5.00246   0.17119   2.74216
H     5.91024   1.10666   1.51039
H     1.57164  -1.16356  -4.09731
H     0.58899  -2.22095  -3.03308
H    -0.13752  -0.73322  -3.73605
H     1.51585  -1.84599   3.29884
H     2.98225  -1.54065   2.35654
H     1.89403  -0.18266   2.79021
H     1.14339  -3.60566   1.16081
H     2.51679  -2.86546   0.32129
H     0.90387  -2.87232  -0.44050
