47
Generated by autodE on: 2022-06-06. E = -1574.477292 Ha
C     4.93946  -0.31540   0.73774
N     4.14063  -1.42551   0.24771
C     2.81664  -1.43158   0.03380
O     2.21438  -2.39244  -0.46387
C     2.06224  -0.22079   0.48799
C     1.71966   0.88602  -0.18636
C     2.09844   1.21636  -1.59215
F     1.32827   0.59234  -2.50742
F     2.01634   2.53443  -1.83884
F     3.36887   0.83803  -1.85238
C     0.89377   1.73243   0.78737
O     1.49137   1.35847   2.03870
C     1.39158  -0.06198   1.85072
C    -0.15366  -0.24083   1.66631
C    -0.62549  -1.31670   0.67728
C    -1.77735  -2.14670   1.26065
O    -2.16934  -2.09808   2.40893
O    -2.26827  -2.99549   0.35748
C    -3.39300  -3.79006   0.75921
N    -0.93909  -0.57043  -0.53885
C    -1.36176  -1.21637  -1.76095
C    -1.39816   0.75173  -0.20567
C    -1.21447   1.70744  -1.31455
N    -1.08656   2.47630  -2.17198
C    -2.90024   0.80489   0.20429
O    -3.55101  -0.18854   0.43213
O    -3.34812   2.04733   0.29913
C    -4.71846   2.22193   0.70889
C    -0.52741   1.11968   1.02487
H     5.44653   0.21194  -0.08572
H     5.70087  -0.68887   1.43674
H     4.30521   0.40349   1.27024
H     4.63260  -2.25431  -0.08212
H     0.91389   2.81501   0.63038
H     1.83638  -0.61576   2.68301
H    -0.61951  -0.37671   2.64630
H     0.17053  -2.04261   0.43983
H    -4.23909  -3.14021   1.02593
H    -3.65045  -4.41056  -0.10688
H    -3.13200  -4.42442   1.61828
H    -1.17510  -0.54355  -2.61240
H    -0.75174  -2.11846  -1.91087
H    -2.42656  -1.50875  -1.77536
H    -4.86691   1.80004   1.71264
H    -4.89362   3.30316   0.71669
H    -5.39072   1.72779  -0.00616
H    -1.06374   1.78946   1.70487
