23
Generated by autodE on: 2022-06-06. E = -852.835725 Ha
C     3.72770   1.83101  -0.34553
N     2.38898   1.61774   0.16800
C     1.73572   0.45752  -0.04214
O     2.23886  -0.48551  -0.66563
C     0.36629   0.38129   0.52100
C    -0.64136  -0.42950   0.16387
C    -0.72770  -1.46604  -0.90737
F    -2.01296  -1.82620  -1.10739
F    -0.05321  -2.58790  -0.59590
F    -0.25849  -1.03633  -2.09193
C    -1.84808   0.01204   1.03032
C    -2.27281   1.40882   0.52199
C    -1.27673   2.22076   0.88514
C    -0.26424   1.30407   1.60680
O    -1.15133   0.36707   2.23398
H     4.07000   2.82737  -0.04201
H     4.42597   1.07714   0.05058
H     3.74930   1.76559  -1.44517
H     1.93196   2.37373   0.66701
H    -2.63209  -0.73203   1.19933
H    -3.17320   1.61467  -0.05517
H    -1.12912   3.28215   0.69040
H     0.42712   1.76494   2.31981
