24
Generated by autodE on: 2022-06-06. E = -721.566332 Ha
C     4.58806   1.09498  -0.04342
O     3.15627   1.12521  -0.00455
C     2.53027  -0.06363  -0.07258
O     3.12656  -1.12379  -0.16071
C     1.08564   0.17112  -0.02214
N     0.15871  -0.76850  -0.08063
C     0.57146  -2.19026  -0.20995
C    -1.19972  -0.50876  -0.02280
C    -2.11773  -1.57837  -0.11987
N    -2.91059  -2.43288  -0.19731
C    -1.74672   0.83435   0.13863
O    -1.11139   1.87646   0.23597
O    -3.09173   0.80483   0.17323
C    -3.75883   2.06278   0.32709
H     4.91403   2.13956   0.01890
H     4.98550   0.52120   0.80680
H     4.93940   0.64232  -0.98243
H     0.74409   1.19684   0.07046
H     1.18518  -2.45839   0.65562
H    -0.31482  -2.82468  -0.25224
H     1.16205  -2.30565  -1.12391
H    -3.51904   2.73416  -0.51044
H    -4.83097   1.83441   0.33249
H    -3.46956   2.54284   1.27347
