47
Generated by autodE on: 2022-06-06. E = -1574.382370 Ha. Imaginary frequency = -298.8 cm-1
C     4.84303  -0.11110  -0.36952
N     3.98904  -1.28519  -0.33887
C     2.75005  -1.42407   0.16017
O     2.19503  -2.53396   0.23387
C     2.04373  -0.23646   0.71019
C     1.78006   1.00907   0.28259
C     2.11636   1.74705  -0.96513
F     1.06873   2.47789  -1.38526
F     3.13294   2.61153  -0.76396
F     2.48279   0.94259  -1.98104
C     0.97862   1.67594   1.41276
O     1.58825   1.02971   2.55354
C     1.33804  -0.31085   2.08254
C    -0.20567  -0.25981   1.87493
C    -0.83935  -1.67495   0.40049
C    -2.07165  -2.24113   1.04632
O    -2.17521  -2.49237   2.23001
O    -2.96367  -2.61625   0.12656
C    -4.18666  -3.18351   0.61730
N    -0.88904  -1.00048  -0.77466
C     0.05608  -1.37307  -1.84333
C    -1.60627   0.16082  -0.95070
C    -1.41077   0.87751  -2.16041
N    -1.26870   1.46480  -3.15781
C    -2.72264   0.58449  -0.10771
O    -3.17558  -0.00367   0.86378
O    -3.22037   1.76298  -0.52942
C    -4.30825   2.30739   0.22733
C    -0.41756   1.04518   1.45935
H     4.87885   0.34369  -1.37036
H     5.86376  -0.40431  -0.08650
H     4.49339   0.63802   0.34933
H     4.39293  -2.15787  -0.67514
H     1.03138   2.76745   1.46869
H     1.70977  -1.07297   2.77321
H    -0.85259  -0.80722   2.55942
H    -0.01026  -2.38844   0.44995
H    -4.70538  -2.46084   1.26357
H    -4.79304  -3.40416  -0.26869
H    -3.98727  -4.10598   1.18116
H     0.73086  -0.54726  -2.08985
H     0.63574  -2.23721  -1.51288
H    -0.52287  -1.64460  -2.73738
H    -4.00047   2.50133   1.26511
H    -5.16627   1.61951   0.22354
H    -4.57610   3.24773  -0.26842
H    -1.32369   1.63845   1.52096
