24
Generated by autodE on: 2022-05-29. E = -593.135198 Ha
C     3.52655   1.25202  -0.32946
O     2.09348   1.21924  -0.39194
C     1.51416   0.02010  -0.26816
O     2.13535  -1.01699  -0.11649
C     0.04476   0.11294  -0.33570
C    -0.82108  -0.88645  -0.02047
C    -0.51396  -2.19897   0.41948
N    -0.33383  -3.29277   0.77761
C    -2.22514  -0.29485  -0.03809
C    -2.28734   0.64123   1.21364
C    -1.29721   1.78130   0.84851
C    -0.78203   1.35968  -0.56863
C    -2.06089   0.73981  -1.17056
H     3.95906   0.65246  -1.14350
H     3.80983   2.30487  -0.43989
H     3.87723   0.86146   0.63683
H    -3.03863  -1.02488  -0.11228
H    -2.01426   0.10645   2.13373
H    -3.31300   1.01934   1.33139
H    -0.46915   1.88355   1.56335
H    -1.80832   2.75211   0.77718
H    -0.28064   2.15446  -1.13021
H    -2.89956   1.44913  -1.22480
H    -1.89444   0.27851  -2.15477
