39
Generated by autodE on: 2022-05-29. E = -1026.492175 Ha. Imaginary frequency = -359.8 cm-1
C     4.24524  -0.34145   2.21927
O     3.07363  -0.80935   1.53156
C     2.67174  -0.08790   0.47972
O     3.22862   0.91416   0.07486
N     1.54797  -0.60862  -0.14953
N     0.87496  -1.55542   0.49285
N    -0.15452  -1.99702  -0.15634
C    -1.00441  -2.85568   0.64786
C    -1.04948  -0.07180  -0.52085
C    -1.91152  -0.10587   0.65608
O    -1.51873   0.06678   1.80393
O    -3.18472  -0.41667   0.35958
C    -4.08680  -0.55561   1.46442
C    -1.52187  -0.13384  -1.96386
C    -2.06067   1.28575  -2.30669
C    -0.76796   2.15574  -2.31040
C     0.35430   1.12702  -1.99558
C    -0.17473  -0.12767  -2.71196
C     0.15318   0.71564  -0.53236
C     0.41312   1.68781   0.49129
N     0.66233   2.51524   1.27021
H     5.10855  -0.33188   1.53892
H     4.07498   0.66914   2.61644
H     4.41399  -1.05015   3.03790
H     0.85855  -1.53170   1.52983
H    -1.05504  -2.54896   1.70696
H    -2.01140  -2.85043   0.21474
H    -0.61577  -3.88568   0.59120
H    -3.76735  -1.37736   2.12177
H    -4.13601   0.37722   2.04435
H    -5.06658  -0.78164   1.02780
H    -2.21483  -0.95566  -2.17864
H    -2.80646   1.62714  -1.57538
H    -2.53873   1.27614  -3.29745
H    -0.79607   2.97296  -1.57492
H    -0.58539   2.60323  -3.29789
H     1.37382   1.46166  -2.21805
H    -0.28987   0.02905  -3.79404
H     0.42923  -1.02139  -2.52355
