44
Generated by autodE on: 2022-06-23. E = -1258.159009 Ha. Imaginary frequency = -351.9 cm-1
C    -3.70800  -3.71297   0.90033
O    -2.92219  -2.52109   0.73118
C    -2.04992  -2.52428  -0.27562
O    -1.86675  -3.44676  -1.04510
C    -1.26558  -1.27919  -0.28943
O    -0.47781  -0.99787  -1.35484
C    -0.16963   0.36955  -1.29531
O     0.62664   0.88231  -2.05231
C    -0.95874   0.85547  -0.18522
C    -1.21291   2.21864   0.23180
C    -0.45467   3.27853  -0.30656
C    -0.66944   4.58358   0.13836
C    -1.63579   4.84934   1.11328
C    -2.39135   3.79867   1.64907
C    -2.18206   2.49062   1.21864
O    -1.81437  -0.14094   0.17169
C     0.60520   0.00227   1.34350
C     1.89570   0.68143   0.96779
C     2.69967  -0.18593   0.02381
C     3.79595   0.35548  -0.79776
N     4.08776   1.66747  -0.62318
O     4.43557  -0.33405  -1.61549
C     2.42488  -1.51124  -0.08693
N     1.41729  -2.14874   0.59001
C     1.16191  -3.55805   0.32031
C     0.43222  -1.37909   1.21671
H    -4.35337  -3.52534   1.76547
H    -3.05329  -4.57545   1.09039
H    -4.31501  -3.90126   0.00354
H     0.29110   3.07229  -1.07376
H    -0.07852   5.39940  -0.28390
H    -1.80124   5.87302   1.45651
H    -3.14706   4.00134   2.41128
H    -2.76518   1.67143   1.64222
H    -0.03469   0.51021   2.06444
H     2.46965   0.90493   1.89063
H     1.68061   1.66915   0.52367
H     3.61174   2.25087   0.05263
H     4.83683   2.07443  -1.17249
H     3.02551  -2.14268  -0.74320
H     0.50792  -3.96537   1.10240
H     0.67429  -3.70022  -0.65617
H     2.10841  -4.11545   0.33101
H    -0.22920  -1.92051   1.89294
