15
Generated by autodE on: 2022-07-26. E = -562.549526 Ha
C     1.67039   3.04859   0.85315
O     0.96983   2.15767  -0.03112
C     0.60302   0.97926   0.47121
O     0.81135   0.60842   1.60464
C    -0.09935   0.18871  -0.57205
C    -0.27371   0.72469  -1.87529
N    -0.41694   1.16454  -2.94310
N    -0.58555  -1.02962  -0.35005
N    -0.53063  -1.68806   0.76790
C    -1.08016  -2.89111   0.76215
N    -1.52732  -3.96567   0.89226
H     1.87924   3.94879   0.26495
H     2.60749   2.58527   1.19311
H     1.04186   3.29351   1.72107
H    -1.04651  -1.47303  -1.16388
