23
Generated by autodE on: 2022-05-29. E = -500.847964 Ha
C     3.41755   0.51263   0.81197
O     2.00744   0.26280   0.81107
C     1.46475  -0.13382  -0.35490
O     2.12605  -0.28613  -1.37033
C     0.01851  -0.35057  -0.24427
C    -0.82072  -0.51276  -1.29106
C    -2.22924  -0.49892  -0.74573
C    -2.48986   0.98674  -0.31167
C    -1.53446   1.17226   0.90141
C    -0.83610  -0.22063   1.00925
C    -2.00471  -1.15684   0.63495
H     3.67116   0.82088   1.83310
H     3.97302  -0.39779   0.54245
H     3.67014   1.31346   0.10137
H    -0.54431  -0.52053  -2.34705
H    -3.00452  -0.92099  -1.39686
H    -3.54329   1.10266  -0.01652
H    -2.29057   1.69159  -1.13136
H    -0.80196   1.97908   0.75646
H    -2.09574   1.38628   1.82307
H    -0.32038  -0.40401   1.95857
H    -1.70341  -2.21256   0.56307
H    -2.87209  -1.06154   1.30599
