38
Generated by autodE on: 2022-05-29. E = -1063.393166 Ha. Imaginary frequency = -319.9 cm-1
C     3.33339   2.04019   0.97465
O     2.52384   1.30532   0.03981
C     2.11258   0.09956   0.42484
O     2.38238  -0.42231   1.48145
C     1.29543  -0.53506  -0.65712
C     1.40834  -0.02262  -1.98202
N     1.45193   0.40694  -3.06186
N     0.90070  -1.82216  -0.53473
N     0.28696  -2.15919   0.60044
C    -0.14035  -3.41191   0.69263
N    -0.56547  -4.48374   0.89087
C    -1.26758  -0.78148   0.80820
C    -2.45578  -1.38699   0.08618
C    -3.59780  -0.33294   0.26226
C    -3.14187   0.84215  -0.65173
C    -1.76641   0.34432  -1.19937
C    -2.08084  -1.15218  -1.39039
C    -0.85489   0.32156   0.02499
C    -0.34939   1.55519   0.65118
O     0.05656   1.64582   1.79970
O    -0.38009   2.59127  -0.19874
C     0.06238   3.86039   0.29890
H     3.57083   2.98856   0.48111
H     4.25352   1.48201   1.19695
H     2.76867   2.21631   1.89962
H     0.64648  -2.31605  -1.39788
H    -1.17915  -0.78437   1.89458
H    -2.72666  -2.40516   0.39081
H    -3.72195  -0.03612   1.31360
H    -4.54834  -0.76753  -0.07936
H    -3.83820   0.99088  -1.49011
H    -3.05144   1.79683  -0.11556
H    -1.38620   0.89959  -2.06396
H    -1.24122  -1.75716  -1.75097
H    -2.93043  -1.31620  -2.06852
H    -0.11107   4.57816  -0.51119
H    -0.51288   4.14788   1.19055
H     1.13185   3.82665   0.54857
