23
Generated by autodE on: 2022-05-31. E = -741.397959 Ha
C     3.80181  -1.39568  -0.21455
O     2.39260  -1.18275  -0.07734
C     1.95863   0.07509  -0.28572
O     2.70577   0.99282  -0.58691
C     0.51341   0.20281  -0.11622
O    -0.08448  -0.93616   0.23854
C    -1.21258  -1.50654   0.42768
C    -1.17812  -2.93639   0.83786
C    -2.48828  -0.90155   0.21842
N    -3.60880  -0.62937   0.04969
C    -0.18581   1.47475  -0.22317
O     0.27683   2.50416  -0.68572
O    -1.42079   1.38782   0.29173
C    -2.27555   2.52928   0.17563
H     4.13548  -1.15068  -1.23372
H     4.36138  -0.78188   0.50677
H     3.96673  -2.46018  -0.01030
H    -1.66051  -3.05910   1.82244
H    -0.13568  -3.27519   0.89063
H    -1.74037  -3.55441   0.11818
H    -1.87827   3.36710   0.76657
H    -3.25019   2.21566   0.56690
H    -2.36981   2.83360  -0.87679
