14
Generated by autodE on: 2022-05-31. E = -859.428380 Ha
N     3.27297  -0.12921  -0.19464
C     2.11011  -0.20714  -0.23152
C     0.70990  -0.32243  -0.28510
C    -0.23498   0.62012  -0.09218
Cl   -0.06221   2.27037   0.29130
C    -1.59065  -0.12101  -0.17058
C    -1.67376  -1.00565   1.09260
C    -0.75518  -1.95654   0.90234
C    -0.12125  -1.63361  -0.46701
O    -1.25427  -1.09646  -1.16624
H    -2.45918   0.48793  -0.43985
H    -2.31929  -0.81114   1.94765
H    -0.44013  -2.76648   1.55872
H     0.37304  -2.44078  -1.01546
