34
Generated by autodE on: 2022-05-29. E = -3319.023679 Ha
C     3.71447  -2.14606  -0.85967
N     2.54333  -1.82472  -0.06456
C     1.96026  -0.61850  -0.13871
O     2.39685   0.27701  -0.86894
C     0.78753  -0.32700   0.80794
C     1.24761   0.85171   1.63729
N     0.61445   1.95103   1.53143
C    -0.43927   1.81450   0.50253
C    -0.05835   2.74341  -0.66242
C    -1.70304   2.31469   1.07180
N    -2.69121   2.74550   1.49997
C    -0.53449   0.26166   0.16889
Br   -0.71948  -0.03301  -1.78328
C    -1.65147  -0.51127   0.93333
C    -1.75085  -1.97159   0.45526
C    -0.39907  -2.58518   0.90950
C     0.24423  -1.44658   1.74249
C    -1.00421  -0.74813   2.31701
H     3.50134  -2.04516  -1.93508
H     4.01025  -3.18117  -0.65147
H     4.55506  -1.47723  -0.61619
H     2.17197  -2.52982   0.56036
H     2.10147   0.75122   2.31795
H     0.12222   3.75013  -0.26054
H     0.86041   2.36569  -1.12786
H    -0.85803   2.79698  -1.41096
H    -2.61026   0.01926   0.92237
H    -1.92901  -2.06678  -0.62106
H    -2.59580  -2.44366   0.97641
H     0.21542  -2.89252   0.05434
H    -0.54622  -3.47172   1.54233
H     0.99356  -1.77990   2.47259
H    -1.61666  -1.41946   2.93486
H    -0.79396   0.15801   2.89807
