34
Generated by autodE on: 2022-05-29. E = -3318.924208 Ha. Imaginary frequency = -318.0 cm-1
C     3.83374  -2.22631  -0.90434
N     2.62856  -1.95525  -0.14725
C     1.86326  -0.86953  -0.40396
O     2.16736  -0.06429  -1.29628
C     0.67142  -0.68680   0.46685
C     1.74913   1.06741   1.50119
N     1.00195   1.98184   1.26606
C    -0.09503   2.40933   0.65238
C     0.03233   3.10579  -0.67355
C    -1.27581   2.54693   1.42371
N    -2.28218   2.64221   2.01032
C    -0.55378  -0.18153   0.04791
Br   -1.07254   0.12520  -1.76294
C    -1.62178  -0.66608   1.01385
C    -1.80141  -2.18916   0.72725
C    -0.44158  -2.78919   1.18859
C     0.34026  -1.53693   1.70089
C    -0.80954  -0.72361   2.32220
H     4.53217  -1.37608  -0.85394
H     3.61315  -2.41519  -1.96782
H     4.32539  -3.11279  -0.48520
H     2.34088  -2.61685   0.56380
H     2.68507   0.97708   2.06153
H     0.33695   4.15891  -0.54951
H     0.77986   2.58400  -1.28785
H    -0.93254   3.08599  -1.19725
H    -2.54882  -0.08016   1.01919
H    -2.63961  -2.58398   1.32058
H    -2.01909  -2.37849  -0.33310
H     0.09360  -3.30534   0.37923
H    -0.57652  -3.50708   2.01126
H     1.19677  -1.76015   2.35076
H    -1.33479  -1.27224   3.11792
H    -0.50342   0.25768   2.70464
