37
Generated by autodE on: 2022-06-18. E = -967.442475 Ha
C    -3.46298  -2.89463   0.54415
N    -2.67086  -1.71109   0.27891
C    -1.66142  -1.33778   1.08272
O    -1.29244  -1.99187   2.06744
C    -0.98128  -0.06154   0.72072
N    -1.56363   0.82115  -0.01096
N    -0.72079   1.89675  -0.14202
C    -1.17449   3.13480  -0.53289
C    -2.61869   3.21624  -0.94688
O    -0.41815   4.10200  -0.52221
C     0.65034   1.57983   0.32482
C     0.35978   0.39086   1.26510
C     1.45865  -0.67098   1.32333
C     1.88526  -1.05391  -0.06779
C     2.36970  -2.38762  -0.44440
N     2.46605  -3.30497   0.55125
O     2.68525  -2.69062  -1.61333
C     1.89411  -0.07451  -1.01371
N     1.50637   1.21523  -0.80299
C     1.62490   2.18198  -1.88604
H    -4.11838  -2.76059   1.42109
H    -2.80873  -3.75696   0.73972
H    -4.08579  -3.11142  -0.33207
H    -2.93578  -1.08771  -0.47741
H    -2.82526   4.24046  -1.28008
H    -2.83315   2.50536  -1.75810
H    -3.27643   2.96052  -0.10281
H     1.05849   2.46018   0.83399
H     0.17514   0.78283   2.27910
H     2.30878  -0.26182   1.89799
H     1.06712  -1.52364   1.89107
H     2.27136  -3.08339   1.51906
H     2.82038  -4.22783   0.32610
H     2.27580  -0.28887  -2.01429
H     0.70475   2.24766  -2.49181
H     1.83847   3.17853  -1.47809
H     2.45269   1.88660  -2.54293
