17
Generated by autodE on: 2022-06-18. E = -509.628690 Ha
C     3.26020   1.09061  -0.61180
N     3.06088  -0.27948  -0.17651
C     1.89401  -0.87590   0.10035
O     1.74373  -2.04335   0.45675
C     0.69675  -0.03645  -0.04018
N    -0.34962   0.46970  -0.11274
N    -1.43956   1.10260  -0.22477
C    -2.56898   0.35311   0.11592
C    -3.84306   1.13507  -0.02387
O    -2.52070  -0.81266   0.49169
H     3.68616   1.12034  -1.62592
H     2.30248   1.62751  -0.62302
H     3.94122   1.61557   0.07394
H     3.87877  -0.87962  -0.08112
H    -4.70323   0.49730   0.21343
H    -3.93513   1.52807  -1.04822
H    -3.82311   2.00225   0.65530
