31
Generated by autodE on: 2022-06-07. E = -635.613726 Ha
C    -0.90170   2.89390  -0.50402
N     0.07456   2.09565  -0.07773
C     1.28501   2.80757   0.40099
C     0.01748   0.72488   0.00842
C    -1.29195   0.04962   0.01417
C    -2.38067   0.52213   0.78646
C    -3.58165  -0.17867   0.84972
C    -3.74950  -1.37539   0.13706
C    -2.69013  -1.85563  -0.63668
C    -1.48347  -1.15371  -0.69978
C     1.24503  -0.07212  -0.02666
C     1.34173  -1.26726   0.73003
C     2.49210  -2.05139   0.70871
C     3.59861  -1.67422  -0.06549
C     3.52222  -0.50507  -0.82838
C     2.36437   0.27550  -0.82118
H    -0.80392   3.96544  -0.34512
H    -1.79722   2.46388  -0.94491
H     1.90084   2.14035   1.00858
H     0.95398   3.65377   1.01606
H     1.86513   3.18922  -0.44791
H    -2.27837   1.45196   1.35041
H    -4.39677   0.20723   1.46769
H    -4.69493  -1.92063   0.18504
H    -2.80268  -2.78291  -1.20469
H    -0.66768  -1.54446  -1.31100
H     0.49709  -1.57081   1.35174
H     2.53254  -2.96213   1.31217
H     4.50224  -2.28796  -0.07803
H     4.36691  -0.20410  -1.45391
H     2.31923   1.15737  -1.46184
