23
Generated by autodE on: 2022-06-07. E = -947.254382 Ha
F     1.83589  -1.31667  -1.42418
C     1.71157  -0.47138  -0.37698
F     2.70537  -0.77849   0.48211
F     1.95569   0.76567  -0.83648
C     0.37720  -0.62630   0.26708
C    -0.62153   0.26112   0.43398
C    -0.69467   1.69398  -0.00048
F    -0.63930   1.82622  -1.34268
F     0.29965   2.44222   0.51043
F    -1.85126   2.25928   0.39352
C    -1.81954  -0.50959   0.96627
C    -2.31800  -1.37786  -0.23698
C    -1.16482  -2.40173  -0.42581
C    -0.14529  -1.99003   0.68805
C    -1.10403  -1.57473   1.82099
H    -2.59259   0.09988   1.44571
H    -3.26039  -1.87517   0.03386
H    -2.50113  -0.76284  -1.12893
H    -1.50642  -3.43121  -0.24616
H    -0.70827  -2.36368  -1.42385
H     0.62429  -2.73855   0.91011
H    -1.77068  -2.38874   2.14123
H    -0.58370  -1.14856   2.69081
