54
Generated by autodE on: 2022-06-07. E = -1582.869708 Ha. Imaginary frequency = -156.0 cm-1
C    -0.13649   0.55364  -2.84136
N     0.22941   1.03018  -1.48978
C    -0.56525   1.99804  -0.97208
C    -1.84564   0.90450   0.61697
C    -2.12400   2.18218   1.36127
F    -2.83980   3.04639   0.60998
F    -2.86326   1.95873   2.48102
F    -1.03453   2.85316   1.78475
C    -3.00187   0.30114  -0.19698
C    -4.01818  -0.32260   0.81073
C    -3.22247  -1.51588   1.41359
C    -1.86141  -1.44449   0.64617
C    -2.34487  -0.98179  -0.73499
C    -1.14586  -0.18460   1.13094
C    -0.31222  -0.26231   2.34898
F    -1.05099  -0.51737   3.47899
F     0.57398  -1.28959   2.28730
F     0.38838   0.84868   2.63073
C     1.25441   0.41461  -0.84342
C     1.83116  -0.82060  -1.46027
C     1.24647  -2.08321  -1.27681
C     1.81919  -3.22312  -1.84801
C     2.98715  -3.11755  -2.60909
C     3.58397  -1.86533  -2.79080
C     3.01286  -0.72801  -2.21589
C     2.07925   1.05553   0.19034
C     2.90234   0.23347   0.99761
C     3.74612   0.77290   1.96413
C     3.81826   2.15800   2.15110
C     3.04373   2.99015   1.33702
C     2.18869   2.45271   0.37492
H    -1.12117   0.95074  -3.10501
H     0.61320   0.91942  -3.55712
H    -0.15903  -0.53762  -2.89209
H    -0.16382   2.61345  -0.18284
H    -1.27890   2.45038  -1.65729
H    -3.44790   0.98451  -0.92889
H    -4.90123  -0.67212   0.25552
H    -4.36277   0.39436   1.56560
H    -3.71843  -2.47630   1.20520
H    -3.08386  -1.43472   2.49894
H    -1.27006  -2.36687   0.69466
H    -1.53184  -0.80564  -1.43980
H    -3.07618  -1.66881  -1.18580
H     0.34319  -2.16978  -0.67502
H     1.35220  -4.19858  -1.69209
H     3.43473  -4.00886  -3.05524
H     4.49873  -1.77438  -3.38153
H     3.48316   0.24856  -2.35276
H     2.85584  -0.84831   0.87506
H     4.35223   0.10435   2.58071
H     4.47566   2.58269   2.91315
H     3.10651   4.07583   1.44660
H     1.62862   3.14066  -0.25652
