58
Generated by autodE on: 2022-06-26. E = -1417.429698 Ha
C    -1.40878   0.48925  -3.59648
O    -0.39732   0.95371  -2.71128
C    -0.50407   0.69334  -1.33641
C    -1.51488   1.63116  -0.67966
O    -2.30952   2.27529  -1.34293
C    -1.51042   1.66823   0.80284
C    -2.78743   2.01831   1.49530
C    -0.35042   1.43645   1.47711
C    -0.28036   1.47495   2.97119
C     0.91938   1.30758   0.73857
O     1.98438   1.58027   1.26898
C     0.93564   0.89107  -0.75175
O     1.75149   1.75908  -1.47834
C     1.35449   3.12662  -1.50693
C     1.54130  -0.55673  -0.89104
C     1.86132  -0.78887  -2.33330
N     2.06334  -1.11193  -3.42944
C     2.80782  -0.78931  -0.06938
C     4.05396  -0.38982  -0.56664
C     5.20334  -0.53387   0.21412
C     5.11745  -1.08653   1.49503
C     3.87437  -1.49030   1.99216
C     2.72364  -1.33921   1.21638
N     0.42140  -1.37721  -0.47931
C     0.54594  -2.81340  -0.67269
C    -0.82274  -0.82322  -1.01105
C    -2.01236  -1.09514  -0.10606
C    -3.31010  -0.97740  -0.62328
C    -4.42374  -1.18023   0.19645
C    -4.25200  -1.52044   1.54131
C    -2.95936  -1.65498   2.05991
C    -1.84805  -1.44003   1.24245
H    -2.41783   0.60695  -3.17946
H    -1.24539  -0.56460  -3.87761
H    -1.32859   1.10469  -4.50345
H    -2.64178   2.85529   2.19619
H    -3.13777   1.15808   2.08960
H    -3.56653   2.28792   0.77242
H    -0.40417   2.50563   3.34578
H    -1.09409   0.87471   3.40582
H     0.68374   1.09669   3.33303
H     2.13288   3.66421  -2.06409
H     1.28471   3.55409  -0.49322
H     0.39161   3.25095  -2.02530
H     4.13133   0.04572  -1.56442
H     6.16937  -0.21354  -0.18260
H     6.01689  -1.20333   2.10405
H     3.79718  -1.92135   2.99296
H     1.75172  -1.63089   1.61464
H     0.53741  -3.09155  -1.74492
H     1.47621  -3.18286  -0.22280
H    -0.29681  -3.31914  -0.18169
H    -1.05363  -1.28253  -1.98630
H    -3.44907  -0.72150  -1.67585
H    -5.42863  -1.07836  -0.21994
H    -5.12136  -1.68238   2.18278
H    -2.81499  -1.92232   3.10935
H    -0.84032  -1.52724   1.64914
