26
Generated by autodE on: 2022-06-26. E = -689.456688 Ha
C     1.70339  -3.02406  -0.02787
O     1.78445  -1.62925  -0.35200
C     0.73311  -0.80982  -0.15429
C     0.96912   0.47694   0.23466
O     2.23491   0.84901   0.52107
C     2.71706   2.13542   0.10896
C    -0.16217   1.39869   0.49830
O     0.04518   2.49454   1.01201
C    -1.54919   0.95863   0.16563
C    -2.65659   1.94296   0.37763
C    -1.78088  -0.30514  -0.26641
C    -3.16028  -0.80226  -0.56845
C    -0.64275  -1.23743  -0.51533
O    -0.82801  -2.33079  -1.04122
H     2.72597  -3.33226   0.23093
H     1.34739  -3.61080  -0.88482
H     1.04518  -3.19509   0.83654
H     3.79773   2.01778  -0.05288
H     2.54110   2.89302   0.88401
H     2.24447   2.45339  -0.83255
H    -2.26891   2.90612   0.72960
H    -3.38078   1.56212   1.11694
H    -3.21778   2.10407  -0.55746
H    -3.62711  -0.19747  -1.36389
H    -3.14352  -1.85006  -0.89035
H    -3.80952  -0.71051   0.31751
