32
Generated by autodE on: 2022-06-26. E = -727.924849 Ha
C    -0.17608  -0.92455  -3.39442
N    -0.23703  -0.52357  -1.97426
C    -1.21339   0.30841  -1.62682
C    -1.72233   0.61756  -0.31189
C    -2.54153   1.76683  -0.20303
C    -3.11594   2.12589   1.01251
C    -2.90600   1.33403   2.14852
C    -2.11980   0.18057   2.05233
C    -1.51930  -0.17128   0.84527
C     0.75339  -1.04425  -1.14146
C     1.27219  -2.30357  -1.49001
N     1.72712  -3.35331  -1.75210
C     1.34710  -0.32151  -0.01905
C     2.06157  -1.03343   0.97326
C     2.68082  -0.37359   2.03321
C     2.60642   1.01954   2.14579
C     1.90363   1.73876   1.17341
C     1.27666   1.08423   0.11365
H    -0.38466  -2.00009  -3.47487
H     0.82509  -0.71839  -3.79385
H    -0.93597  -0.37513  -3.95955
H    -1.70484   0.80234  -2.46564
H    -2.71631   2.37764  -1.09203
H    -3.73423   3.02413   1.07615
H    -3.35542   1.61383   3.10404
H    -1.96185  -0.44771   2.93190
H    -0.91385  -1.07362   0.79497
H     2.12637  -2.12174   0.90810
H     3.22150  -0.95608   2.78352
H     3.08442   1.53582   2.98119
H     1.83587   2.82756   1.24060
H     0.73946   1.67821  -0.62540
