32
Generated by autodE on: 2022-07-27. E = -727.920314 Ha
C    -0.42197  -0.81896  -2.35640
N     0.05876  -0.58060  -0.98371
C    -0.78633  -0.51626   0.03545
C    -2.22445  -0.35800   0.02345
C    -2.98490   0.22240  -1.02028
C    -4.36677   0.35563  -0.89860
C    -5.02830  -0.07674   0.25640
C    -4.28810  -0.62993   1.30809
C    -2.90671  -0.75896   1.19892
C     1.43801  -0.43466  -0.81174
C     2.28203  -1.02825  -1.76413
N     3.03323  -1.49542  -2.53673
C     2.05020   0.29218   0.30622
C     3.38956   0.01249   0.66653
C     4.04460   0.74510   1.65642
C     3.38791   1.78066   2.32781
C     2.06185   2.07223   1.98458
C     1.40003   1.34240   0.99941
H    -1.38636  -1.33292  -2.32691
H    -0.50694   0.13221  -2.89827
H     0.30238  -1.45738  -2.87347
H    -0.31871  -0.57502   1.01844
H    -2.49737   0.60411  -1.91551
H    -4.93312   0.81317  -1.71307
H    -6.11197   0.02984   0.34191
H    -4.79165  -0.95733   2.22058
H    -2.33163  -1.18284   2.02554
H     3.92293  -0.79269   0.15709
H     5.07865   0.49656   1.90862
H     3.89750   2.34965   3.10845
H     1.53174   2.88271   2.49133
H     0.36942   1.60788   0.75940
