58
Generated by autodE on: 2022-06-26. E = -1417.381244 Ha. Imaginary frequency = -347.2 cm-1
C    -1.26731   1.99184  -3.40991
O    -0.46445   0.99530  -2.77131
C    -0.29930   1.02793  -1.41299
C    -1.39784   1.24424  -0.52063
O    -2.57697   1.39515  -0.90906
C    -1.09276   1.26777   0.95059
C    -2.26095   1.33026   1.88413
C     0.18385   1.29621   1.42206
C     0.49906   1.37855   2.88642
C     1.30282   1.38387   0.46740
O     2.41450   1.78767   0.79726
C     1.06729   0.93779  -0.94854
O     2.07116   1.30803  -1.83044
C     2.12702   2.69195  -2.16783
C     1.52971  -0.97507  -0.84205
C     1.63839  -1.23056  -2.27447
N     1.69806  -1.48456  -3.40573
C     2.85005  -1.13740  -0.14631
C     4.01516  -1.35803  -0.90631
C     5.26645  -1.45452  -0.29757
C     5.38723  -1.33774   1.08900
C     4.24265  -1.11008   1.85689
C     2.99288  -0.99916   1.24923
N     0.34988  -1.58954  -0.31680
C     0.35806  -2.36512   0.92660
C    -0.78217  -1.34194  -1.00488
C    -2.15037  -1.62541  -0.62537
C    -3.08654  -1.62309  -1.68528
C    -4.44720  -1.79435  -1.44320
C    -4.90839  -1.95396  -0.13304
C    -3.99866  -1.92695   0.93051
C    -2.63634  -1.76047   0.69525
H    -0.92299   2.04110  -4.45272
H    -2.33288   1.72825  -3.38419
H    -1.12676   2.97686  -2.93818
H    -2.29651   2.31313   2.38633
H    -2.17087   0.57573   2.68022
H    -3.20416   1.18198   1.34758
H     0.09670   0.50102   3.41892
H     1.58224   1.42559   3.05300
H     0.03904   2.26774   3.34855
H     2.96877   2.80689  -2.86410
H     2.30886   3.31486  -1.27822
H     1.20284   3.02725  -2.66304
H     3.95051  -1.45972  -1.98935
H     6.15027  -1.62826  -0.91522
H     6.36597  -1.41766   1.56722
H     4.31846  -1.00376   2.94116
H     2.13391  -0.79292   1.88124
H     1.32137  -2.87483   1.02141
H    -0.42434  -3.12803   0.85742
H     0.18557  -1.74044   1.81231
H    -0.65021  -1.15595  -2.06883
H    -2.72772  -1.48238  -2.70681
H    -5.15079  -1.79659  -2.27845
H    -5.97502  -2.08640   0.06177
H    -4.35606  -2.02483   1.95781
H    -1.96435  -1.70238   1.54698
