20
Generated by autodE on: 2022-06-22. E = -457.715294 Ha
C    -3.03756   0.93609  -0.06019
N    -1.81134   0.19098   0.17250
C    -1.86127  -1.01282   0.88659
C    -0.76915  -1.75196   1.13768
C     0.61324  -1.36606   0.67188
C     0.57173  -0.04076  -0.07153
C     1.79505   0.57346  -0.61096
N     2.94554  -0.12007  -0.41955
O     1.80906   1.66887  -1.20907
C    -0.59934   0.62845  -0.26901
H    -2.81017   1.83693  -0.64360
H    -3.76712   0.32997  -0.62129
H    -3.50250   1.24223   0.89129
H    -2.85671  -1.30376   1.22715
H    -0.88804  -2.67860   1.70387
H     1.03581  -2.16802   0.03160
H     1.30468  -1.31242   1.53742
H     3.80778   0.25966  -0.79492
H     2.97074  -1.02578   0.03111
H    -0.59974   1.57627  -0.80959
