58
Generated by autodE on: 2022-06-08. E = -1434.555504 Ha
C    -2.64993  -4.05714   0.40065
N    -1.59612  -3.19381  -0.08990
C    -1.71592  -2.46410  -1.20110
O    -2.61498  -2.56541  -2.03795
C    -0.61900  -1.38034  -1.37766
C    -0.27377  -1.38315  -2.81834
N     0.02598  -1.39449  -3.93927
N     0.51506  -1.58391  -0.51139
C     1.15248  -0.34371  -0.08907
C     2.40862  -0.09974  -0.95413
O     2.70102  -0.78788  -1.91013
O     3.13024   0.93272  -0.54087
C     4.25445   1.31445  -1.34795
C     1.57559  -0.42685   1.38716
C     1.65977  -1.66987   2.02805
C     2.03741  -1.75644   3.37226
C     2.33550  -0.59986   4.09578
C     2.25710   0.64481   3.46220
C     1.88355   0.73048   2.11974
C     0.05171   0.77374  -0.33202
C     0.49513   1.99585  -1.11322
C     0.79176   1.95012  -2.48513
C     1.23745   3.09008  -3.15817
C     1.38583   4.30120  -2.47470
C     1.07697   4.36320  -1.11332
C     0.63548   3.21938  -0.44214
C    -1.17375   0.03732  -0.94829
C    -2.35511  -0.06645  -0.00459
C    -3.64980   0.12900  -0.50501
C    -4.76727  -0.01555   0.32217
C    -4.60360  -0.36728   1.66464
C    -3.31576  -0.56578   2.17422
C    -2.20053  -0.41334   1.34748
H    -3.22591  -4.44961  -0.44689
H    -2.21561  -4.89676   0.95974
H    -3.33530  -3.50451   1.06591
H    -0.83843  -2.91438   0.53126
H     1.17850  -2.26972  -0.86634
H     3.91618   1.58601  -2.35822
H     4.98083   0.49195  -1.40780
H     4.69953   2.18301  -0.85010
H     1.41776  -2.57980   1.47899
H     2.09375  -2.73570   3.85365
H     2.62575  -0.66587   5.14698
H     2.48584   1.55825   4.01639
H     1.83428   1.70933   1.64405
H    -0.24081   1.13459   0.65704
H     0.68675   1.01718  -3.03948
H     1.46857   3.03008  -4.22436
H     1.73476   5.19208  -3.00212
H     1.17986   5.30501  -0.56900
H     0.39986   3.27398   0.62330
H    -1.51507   0.55544  -1.85040
H    -3.78068   0.39072  -1.55759
H    -5.76826   0.14526  -0.08515
H    -5.47506  -0.48387   2.31320
H    -3.17676  -0.84069   3.22241
H    -1.20551  -0.57924   1.76425
