26
Generated by autodE on: 2022-06-08. E = -540.955775 Ha
C    -0.67288  -1.86165   0.21871
C     0.65572  -1.82308   0.46046
C     1.60123  -0.69630   0.35889
C     1.48679   0.30843  -0.62273
C     2.42115   1.34085  -0.69960
C     3.49395   1.39365   0.19880
C     3.63298   0.39237   1.16454
C     2.70230  -0.64676   1.23550
C    -1.60804  -0.76415  -0.08985
C    -2.70619  -1.01840  -0.93398
C    -3.62732  -0.01383  -1.23957
C    -3.48162   1.26258  -0.68809
C    -2.41180   1.52165   0.17745
C    -1.48669   0.52134   0.47485
H    -1.14322  -2.85029   0.26777
H     1.11728  -2.76833   0.76786
H     0.66412   0.27108  -1.33792
H     2.31608   2.10782  -1.47097
H     4.22319   2.20494   0.13737
H     4.47346   0.41665   1.86251
H     2.82042  -1.43266   1.98618
H    -2.82981  -2.01766  -1.35962
H    -4.46554  -0.23087  -1.90621
H    -4.20337   2.04908  -0.92089
H    -2.30155   2.51064   0.62913
H    -0.66598   0.73227   1.16160
