58
Generated by autodE on: 2022-06-08. E = -1434.497727 Ha. Imaginary frequency = -343.8 cm-1
C    -2.08085  -3.40861   1.32499
N    -1.13304  -2.66578   0.51908
C    -1.37157  -2.39795  -0.77102
O    -2.37764  -2.83320  -1.35795
C    -0.44397  -1.52894  -1.55176
C    -0.74980  -1.57388  -2.95047
N    -0.96804  -1.52425  -4.09405
N     0.86252  -1.15089  -1.30818
C     1.34259  -0.34490  -0.30415
C     2.56543   0.37839  -0.78446
O     2.96258   0.31273  -1.93571
O     3.13522   1.12027   0.15512
C     4.28309   1.89213  -0.23410
C     1.38353  -0.79872   1.11895
C     1.72070  -2.14238   1.37485
C     1.82595  -2.61535   2.68554
C     1.62459  -1.74832   3.76150
C     1.33676  -0.40126   3.51674
C     1.22562   0.07231   2.20969
C    -0.22914   1.23964  -0.52080
C     0.42756   2.14908  -1.47934
C     0.40318   1.93921  -2.87214
C     1.07040   2.80977  -3.73534
C     1.77207   3.91000  -3.23186
C     1.80090   4.13251  -1.85085
C     1.14011   3.25959  -0.98605
C    -1.39431   0.52626  -0.87971
C    -2.45246   0.16709   0.06686
C    -3.72526  -0.16828  -0.43943
C    -4.77663  -0.50049   0.41543
C    -4.57751  -0.51857   1.79930
C    -3.31563  -0.20123   2.31750
C    -2.26680   0.13672   1.46510
H    -2.25536  -4.41040   0.90378
H    -1.66554  -3.51657   2.33471
H    -3.04913  -2.88900   1.39147
H    -0.36560  -2.20508   0.99293
H     1.36333  -0.92604  -2.17402
H     4.02966   2.55637  -1.07120
H     5.10507   1.22289  -0.52525
H     4.56186   2.47769   0.64890
H     1.89753  -2.81881   0.53717
H     2.07389  -3.66449   2.86066
H     1.70345  -2.11590   4.78696
H     1.19512   0.28915   4.35109
H     1.01618   1.12746   2.04001
H    -0.14694   1.55964   0.51651
H    -0.12663   1.08267  -3.29132
H     1.04443   2.62406  -4.81188
H     2.29287   4.58918  -3.91078
H     2.34366   4.98934  -1.44449
H     1.17529   3.43059   0.09244
H    -1.73925   0.62233  -1.90954
H    -3.88122  -0.16406  -1.52048
H    -5.75536  -0.75027  -0.00112
H    -5.39812  -0.78156   2.47077
H    -3.14643  -0.22105   3.39674
H    -1.29250   0.36914   1.89238
