28
Generated by autodE on: 2022-06-16. E = -686.897785 Ha
C     3.90122   1.63540  -0.13367
O     2.50752   1.31360  -0.01787
C     2.16636   0.04590  -0.25812
O     2.96228  -0.82623  -0.56109
C     0.71802  -0.21434  -0.12994
N    -0.12345   0.71810   0.16642
N    -1.36912   0.18489   0.18118
C    -2.46936   0.90736   0.57588
C    -2.23462   2.33656   0.98228
O    -3.57434   0.36898   0.59058
C    -1.40552  -1.22281  -0.29850
C    -2.04680  -1.32210  -1.67626
C     0.10047  -1.58541  -0.28345
C     0.50090  -2.52642   0.85790
H     4.49364   1.04306   0.57879
H     3.98405   2.70308   0.09955
H     4.25773   1.44037  -1.15556
H    -3.19900   2.78154   1.25584
H    -1.77969   2.90536   0.15800
H    -1.54403   2.38870   1.83704
H    -1.97182  -1.82033   0.42890
H    -3.09260  -0.98615  -1.64950
H    -2.02585  -2.36931  -2.01477
H    -1.49472  -0.71002  -2.40665
H     0.39850  -2.03138  -1.24429
H     0.21908  -2.09919   1.83307
H     1.58568  -2.70487   0.85675
H    -0.00987  -3.49497   0.74423
