12
Generated by autodE on: 2022-06-16. E = -157.300303 Ha
C     1.95999   0.08617   0.09354
C     0.52832   0.27341  -0.30784
C    -0.52832  -0.27337   0.30787
C    -1.95999  -0.08620  -0.09356
H     2.05466  -0.56714   0.97521
H     2.43957   1.05293   0.32913
H     2.55104  -0.35721  -0.72754
H     0.34982   0.91456  -1.18253
H    -0.34982  -0.91451   1.18257
H    -2.43934  -1.05293  -0.32973
H    -2.55122   0.35660   0.72770
H    -2.05469   0.56755  -0.97490
