16
Generated by autodE on: 2022-06-16. E = -529.486370 Ha
C    -3.91448  -0.56890  -0.21577
O    -2.47627  -0.56494  -0.09775
C    -1.87439   0.59991  -0.27399
O    -2.40049   1.66118  -0.52444
C    -0.43468   0.46979  -0.12711
N     0.72598   0.53794  -0.03871
N     1.97550   0.64710   0.04992
C     2.64088  -0.56044   0.32679
C     4.12608  -0.38583   0.43154
O     2.05980  -1.62721   0.46557
H    -4.22065  -1.60651  -0.04609
H    -4.35524   0.09412   0.54159
H    -4.20988  -0.23719  -1.22086
H     4.60579  -1.35265   0.62606
H     4.51871   0.05101  -0.49995
H     4.36024   0.32019   1.24403
