12
Generated by autodE on: 2022-06-17. E = -157.300302 Ha
C    -1.93731  -0.15540  -0.28349
C    -0.45122  -0.13605  -0.47601
C     0.45122   0.13600   0.47603
C     1.93730   0.15544   0.28347
H    -2.36026  -1.14523  -0.53137
H    -2.43718   0.56768  -0.95233
H    -2.21793   0.08687   0.75365
H    -0.09029  -0.36729  -1.48804
H     0.09028   0.36723   1.48805
H     2.43726  -0.56734   0.95257
H     2.21794  -0.08714  -0.75358
H     2.36016   1.14541   0.53100
