31
Generated by autodE on: 2022-06-17. E = -760.154255 Ha. Imaginary frequency = -345.9 cm-1
C    -1.89316  -2.61780   0.57656
C    -1.31697  -1.23895   0.75373
O    -1.10294  -0.76583   1.86010
C    -1.03823  -0.45195  -0.47574
C    -1.72390  -0.89367  -1.64640
N    -2.25006  -1.32103  -2.59293
C     1.09078  -1.42269  -0.61520
C     1.25257  -1.47228  -2.10619
C     1.83077  -0.52443   0.16385
C     2.23475  -0.85121   1.57064
C     0.39317   1.27083   0.39971
C     0.28403   1.34270   1.82903
N     0.36251   1.59242   2.96405
C     1.23862   2.33097  -0.07193
N     1.99424   3.14660  -0.41587
N    -0.61905   0.86117  -0.46134
C    -0.76376   1.63980  -1.70827
H    -2.97087  -2.52382   0.36099
H    -1.43529  -3.16302  -0.25995
H    -1.76663  -3.17725   1.51202
H     0.78387  -2.35457  -0.13019
H     0.40699  -1.95618  -2.61437
H     2.15171  -2.06854  -2.34631
H     1.39903  -0.46862  -2.53190
H     2.49296   0.15281  -0.38365
H     3.08835  -1.55199   1.54636
H     2.56417   0.03819   2.12528
H     1.42068  -1.33703   2.12730
H    -0.75486   2.70713  -1.46429
H    -1.72921   1.40661  -2.16789
H     0.04580   1.40973  -2.41571
