20
Generated by autodE on: 2022-06-19. E = -457.715320 Ha
C    -3.08913  -0.30300   0.68377
N    -1.82516   0.10462   0.09257
C    -1.82775   0.90240  -1.05848
C    -0.70131   1.26005  -1.69515
C     0.67393   0.84300  -1.23512
C     0.57564  -0.03772  -0.00019
C     1.77860  -0.59332   0.63996
N     2.96422  -0.25698   0.07220
O     1.74454  -1.33326   1.64419
C    -0.62742  -0.34265   0.56316
H    -3.65494  -0.96518   0.00692
H    -3.71378   0.57539   0.90949
H    -2.89507  -0.84243   1.61930
H    -2.81711   1.21313  -1.39919
H    -0.78448   1.88801  -2.58515
H     1.20634   0.31759  -2.05409
H     1.29539   1.74008  -1.03431
H     3.81874  -0.61590   0.48380
H     3.03184   0.34846  -0.73578
H    -0.66824  -0.97867   1.44885
