23
Generated by autodE on: 2022-06-19. E = -605.333728 Ha
C     3.01067  -0.53360   0.21783
N     2.02065  -0.99575   1.17310
C     0.70067  -1.07897   0.96323
O    -0.13872  -1.24712   1.85129
C     0.21847  -1.10383  -0.47326
C     0.57642  -2.28682  -1.30853
N    -0.63127  -0.20014  -0.89339
C    -1.32630  -0.41336  -2.17855
C    -0.87494   1.02550  -0.22868
C     0.10552   1.60771   0.58698
N     0.92459   2.11495   1.25338
C    -2.10174   1.68707  -0.39357
N    -3.11162   2.26911  -0.51325
H     3.37087   0.47001   0.49296
H     2.57269  -0.46710  -0.78594
H     3.86714  -1.22224   0.18097
H     2.29816  -1.03810   2.15243
H     0.86599  -1.98949  -2.32827
H    -0.28641  -2.97015  -1.39380
H     1.40373  -2.84021  -0.84856
H    -1.75970  -1.41913  -2.20207
H    -0.60577  -0.29891  -2.99982
H    -2.11958   0.33096  -2.28750
