46
Generated by autodE on: 2022-06-30. E = -6237.101641 Ha
C    -1.80714   4.47169   1.45026
C    -2.04423   2.99680   1.40025
O    -3.11565   2.47684   1.66764
C    -0.88292   2.12580   1.02961
N     0.29981   2.43544   1.52422
N     1.08955   1.36993   1.24263
C     2.38696   1.44592   1.58893
N     3.49267   1.61042   1.90493
C     0.40113   0.35505   0.56152
C    -0.87752   0.85407   0.34991
C    -2.05548   0.24436  -0.39067
C    -3.03344   1.36650  -0.86469
C    -4.49519   1.04264  -0.93884
O    -2.59633   2.44273  -1.23433
C    -1.66806  -0.29649  -1.78767
C    -0.68423   0.36979  -2.53772
C    -0.33228  -0.07670  -3.81105
C    -0.97588  -1.18455  -4.37135
C    -1.98555  -1.82716  -3.65118
C    -2.33576  -1.38166  -2.37331
C    -2.74668  -0.77443   0.55372
C    -1.82708  -1.71247   1.34147
C    -0.90600  -2.66467   0.57147
C     0.24440  -2.09891  -0.28083
C     1.07158  -0.95812   0.29236
Br    2.57617  -0.61794  -0.99026
Br    1.87562  -1.61898   2.01346
H    -1.65827   4.82400   0.41511
H    -0.88602   4.70142   2.00555
H    -2.67166   4.97973   1.89575
H    -4.90640   1.03886   0.08284
H    -5.00797   1.81146  -1.53046
H    -4.67167   0.04672  -1.36727
H    -0.17721   1.23871  -2.11768
H     0.45245   0.44246  -4.36573
H    -0.69718  -1.53904  -5.36632
H    -2.50567  -2.68622  -4.08101
H    -3.11997  -1.90793  -1.83101
H    -3.31056  -0.18502   1.29012
H    -3.48635  -1.36121  -0.00478
H    -1.23386  -1.12763   2.06207
H    -2.48485  -2.34209   1.96194
H    -0.46808  -3.35410   1.30932
H    -1.50776  -3.28857  -0.10946
H     0.94654  -2.91874  -0.48487
H    -0.11327  -1.76846  -1.25890
