11
Generated by autodE on: 2022-06-30. E = -393.762413 Ha
C    -3.05868   0.26876  -0.69833
C    -1.90716  -0.62994  -0.39080
O    -1.93468  -1.84299  -0.32615
C    -0.62816   0.04994  -0.14874
N     0.41259   0.52909   0.06080
N     1.46904   1.19826   0.26301
C     2.58345   0.53410   0.54826
N     3.62940   0.07836   0.80716
H    -2.83328   0.85819  -1.60259
H    -3.20279   0.98172   0.13016
H    -3.96350  -0.33405  -0.84947
