49
Generated by autodE on: 2022-06-04. E = -1738.125852 Ha
C     4.56547   0.51617  -1.04272
N     3.38518   0.50014  -0.20173
C     2.42815  -0.42648  -0.28535
O     2.42171  -1.38256  -1.06725
C     1.22897  -0.23474   0.67326
C     1.19398  -1.23838   1.81197
C     2.27392  -2.07977   2.09791
C     2.18753  -2.98951   3.15477
C     1.02842  -3.05542   3.93291
C    -0.04668  -2.20286   3.65793
C     0.03649  -1.29470   2.60312
O     1.25505   1.06597   1.29939
O     0.44858   1.94975   0.47749
C    -0.38022   1.13156  -0.25647
C    -0.04157  -0.16357  -0.17356
C    -0.69067  -1.37654  -0.82735
C    -0.10083  -2.66036  -0.37488
N     0.24629  -3.73376  -0.11132
C    -2.09644  -1.50423  -0.37479
N    -3.18040  -1.66369   0.00397
C    -0.56260  -1.39544  -2.40995
C    -0.52778  -0.05215  -3.12972
C    -1.81944   0.76103  -3.18383
C    -2.42493   1.22173  -1.85600
C    -1.49935   1.93663  -0.86488
Cl   -0.71739   3.36392  -1.72931
C    -2.39675   2.43425   0.31035
C    -3.02841   3.78628   0.22714
O    -2.58166   1.66291   1.22958
H     5.47856   0.50084  -0.42887
H     4.58361   1.41788  -1.67414
H     4.55368  -0.37032  -1.68758
H     3.24591   1.24591   0.47444
H     3.17819  -2.04870   1.48860
H     3.03005  -3.65075   3.36880
H     0.96208  -3.77154   4.75522
H    -0.95349  -2.24858   4.26497
H    -0.80195  -0.63005   2.38116
H    -1.37112  -2.03559  -2.79210
H     0.38809  -1.90350  -2.61042
H    -0.24203  -0.28408  -4.16839
H     0.29847   0.55789  -2.73340
H    -1.63298   1.64748  -3.80847
H    -2.59793   0.17464  -3.69872
H    -3.24805   1.91822  -2.07446
H    -2.89115   0.38988  -1.31665
H    -3.82668   3.85975   0.97657
H    -2.25863   4.54727   0.43583
H    -3.41619   3.98951  -0.78139
