27
Generated by autodE on: 2022-06-04. E = -1109.033024 Ha
C     2.85123   1.38116   0.95297
C     2.65171   0.28017  -0.04260
O     3.35943   0.11094  -1.01132
C     1.45632  -0.68782   0.20421
Cl    2.12415  -1.83892   1.49155
C     0.26811  -0.01110   0.67616
C    -0.82132   0.51305   0.62113
C    -2.10708   0.85676   0.00283
C    -2.54589   2.23064   0.31908
N    -2.87492   3.31991   0.53586
C    -3.15117  -0.09031   0.45133
N    -3.96022  -0.85580   0.76979
C    -1.89034   0.71919  -1.55905
C    -1.25292  -0.60558  -2.01520
C     0.29516  -0.69286  -2.11946
C     1.06117  -1.49470  -1.04504
H     3.86269   1.79571   0.85623
H     2.66637   1.03312   1.97907
H     2.11519   2.17419   0.73680
H    -2.88113   0.84936  -2.01761
H    -1.26740   1.57527  -1.85640
H    -1.64255  -1.44036  -1.40862
H    -1.65192  -0.77420  -3.02638
H     0.72496   0.31790  -2.21410
H     0.52114  -1.19455  -3.07209
H     1.99397  -1.88898  -1.47098
H     0.45593  -2.35122  -0.71444
