22
Generated by autodE on: 2022-07-27. E = -628.978420 Ha
C     1.38981   2.15102  -3.11069
N     0.65884   1.90834  -1.88516
C     0.55864   0.67744  -1.37689
O     1.07178  -0.33298  -1.86716
C    -0.24328   0.56820  -0.09137
O    -1.02042   1.48809   0.35016
O    -1.22375   2.68838  -0.28356
C    -0.21988  -0.63647   0.72848
C     0.91554  -1.47508   0.76866
C     0.92423  -2.59117   1.60177
C    -0.19091  -2.89398   2.38982
C    -1.32147  -2.06786   2.35477
C    -1.33753  -0.94334   1.53731
H     1.41160   3.22982  -3.30502
H     0.91590   1.64215  -3.96655
H     2.42180   1.77735  -3.02823
H     0.04288   2.60907  -1.44005
H     1.78740  -1.23854   0.16300
H     1.80948  -3.22933   1.63703
H    -0.18087  -3.77672   3.03317
H    -2.19504  -2.30721   2.96446
H    -2.22081  -0.30493   1.50076
