26
Generated by autodE on: 2023-01-01. E = -631.507148 Ha
C    -2.29905  -1.76746  -1.54982
C    -1.58383  -2.22648  -0.30496
O    -1.84744  -3.29554   0.23143
C    -0.53341  -1.35262   0.29759
C     0.21144  -1.81902   1.48574
N    -0.27329  -0.22202  -0.32142
C     0.57866   0.83017  -0.06211
C     0.83180   1.58644  -1.28777
C     1.68075   2.82888  -1.30254
O     0.30320   1.19811  -2.34592
C     0.84902   1.23119   1.31462
C     2.03211   2.11123   1.64638
O     0.09426   0.87045   2.22856
H    -1.58823  -1.56152  -2.36737
H    -2.86525  -0.84190  -1.35785
H    -2.99114  -2.55583  -1.86961
H     0.06464  -2.89829   1.60749
H    -0.11844  -1.29635   2.39854
H     1.28306  -1.58648   1.37021
H    -0.67777  -0.09731  -1.26462
H     2.71827   2.60192  -1.01686
H     1.30094   3.58436  -0.59988
H     1.67018   3.23983  -2.32005
H     2.27487   1.95405   2.70629
H     2.91154   1.89730   1.02601
H     1.76946   3.17311   1.51796
