26
Generated by autodE on: 2022-12-30. E = -631.508522 Ha
C    -3.99237   0.25236  -0.25253
C    -2.61765  -0.19500  -0.64732
O    -2.41802  -0.91528  -1.62228
C    -1.45321   0.24979   0.18063
C    -1.58467   1.03837   1.42536
N    -0.31239  -0.23196  -0.25781
C     0.99879  -0.11352   0.12757
C     1.80383  -1.20319  -0.42794
C     3.29112  -1.28372  -0.20706
O     1.24308  -2.07016  -1.11977
C     1.46815   1.13065   0.73387
C     2.75397   1.17288   1.52655
O     0.82048   2.17579   0.58390
H    -4.26395  -0.17933   0.72495
H    -4.02784   1.34771  -0.14244
H    -4.71476  -0.07520  -1.01028
H    -1.27748   2.08632   1.27307
H    -2.61397   1.01249   1.80001
H    -0.90697   0.63110   2.19418
H    -0.43001  -0.93370  -1.01254
H     3.79920  -0.36441  -0.53177
H     3.67775  -2.13679  -0.77906
H     3.52244  -1.43191   0.85812
H     3.61339   1.32775   0.85538
H     2.69899   2.03806   2.20151
H     2.93128   0.25766   2.10540
