28
Generated by autodE on: 2022-12-30. E = -595.568174 Ha
C     3.30990   1.02914   1.55844
N     2.07413   0.87915   0.82167
C     1.60367  -0.34044   0.46052
O     2.24215  -1.38143   0.71823
C     0.32377  -0.38311  -0.25019
C    -0.59579   0.60398  -0.44861
O    -0.44993   1.88292  -0.06779
C    -1.48805   2.82101  -0.36500
C    -1.86501  -0.02938  -0.98613
C    -2.46787  -0.82460   0.22279
C    -1.44181  -1.97650   0.43368
C    -0.36544  -1.67963  -0.65638
C    -1.25680  -1.18148  -1.81154
H     3.52553   2.09822   1.68010
H     3.25383   0.56801   2.55961
H     4.15273   0.56049   1.02580
H     1.49000   1.69081   0.64775
H    -1.14685   3.78665   0.02780
H    -1.64583   2.90240  -1.45114
H    -2.42904   2.53682   0.12950
H    -2.57040   0.64167  -1.48769
H    -3.45992  -1.21140  -0.05291
H    -2.59040  -0.18381   1.10753
H    -1.90735  -2.95937   0.26376
H    -0.99997  -1.98088   1.44027
H     0.31512  -2.51387  -0.86489
H    -0.68189  -0.83023  -2.68079
H    -2.01182  -1.91516  -2.13323
