24
Generated by autodE on: 2022-07-27. E = -626.436197 Ha
C     2.96247  -0.07364   0.31983
N     2.39479   0.00048  -1.01225
C     1.10538   0.17257  -1.34996
O     0.72650   0.17865  -2.52869
C     0.11370   0.39856  -0.22999
C    -0.08321   1.73964   0.26819
C     0.80810   2.82020  -0.30429
O    -0.93048   2.03125   1.13196
N    -0.63324  -0.66647   0.17299
C    -0.30381  -1.97282  -0.44586
C    -1.61750  -0.61757   1.07961
C    -2.35013  -1.75154   1.46588
N    -3.00670  -2.64265   1.84444
H     2.17421   0.05507   1.07111
H     3.44337  -1.05056   0.48375
H     3.71736   0.71413   0.46698
H     3.02985  -0.11066  -1.80106
H     0.44875   3.79703   0.04410
H     1.84716   2.68202   0.03503
H     0.81062   2.79891  -1.40433
H    -0.44582  -1.89411  -1.52893
H    -0.95564  -2.75069  -0.04074
H     0.74122  -2.21692  -0.22232
H    -1.83697   0.35065   1.52523
