24
Generated by autodE on: 2022-05-31. E = -626.438133 Ha
C     3.74156   0.66612   0.74594
N     2.30695   0.48554   0.86382
C     1.51412   0.40008  -0.21782
O     1.96332   0.36464  -1.37021
C     0.03296   0.37622   0.06308
C    -0.62870   1.58597   0.49612
C     0.22673   2.81769   0.71204
O    -1.85614   1.66016   0.69249
N    -0.64049  -0.77730  -0.22303
C     0.17179  -1.93191  -0.67848
C    -1.96403  -0.93682  -0.12454
C    -2.60703  -2.14966  -0.42455
N    -3.22171  -3.11769  -0.65350
H     4.19099  -0.14949   0.15984
H     3.98426   1.61867   0.24665
H     4.18272   0.66843   1.74988
H     1.87163   0.54928   1.77863
H    -0.43321   3.69465   0.74343
H     0.97742   2.95123  -0.08055
H     0.76086   2.74933   1.67314
H    -0.44941  -2.83073  -0.69912
H     1.00221  -2.08000   0.02033
H     0.56248  -1.71599  -1.67815
H    -2.54717  -0.07978   0.20688
