23
Generated by autodE on: 2022-06-18. E = -351.521381 Ha
C     3.73484  -0.21794  -0.54988
C     2.58371   0.06686   0.09796
C     2.59063   0.69586   1.46783
C     1.29891  -0.23397  -0.53053
C     0.07798   0.00277   0.01183
C    -1.16702  -0.31439  -0.65771
C    -2.42354  -0.10749  -0.18864
C    -3.62276  -0.49197  -1.00835
C    -2.74234   0.50462   1.14584
H     4.70966  -0.00302  -0.10327
H     3.72668  -0.67414  -1.54463
H     2.07492   0.05492   2.20215
H     3.61679   0.86937   1.82135
H     2.05734   1.66104   1.46442
H     1.34829  -0.68959  -1.52688
H     0.02011   0.45665   1.00485
H    -1.06724  -0.76988  -1.65043
H    -4.25456  -1.21567  -0.46250
H    -4.26369   0.38728  -1.20067
H    -3.34132  -0.93529  -1.97479
H    -1.85473   0.77696   1.73116
H    -3.35205  -0.19092   1.74928
H    -3.35739   1.41211   1.01200
