20
Generated by autodE on: 2022-06-18. E = -702.139794 Ha
C    -4.12883   0.43863  -1.32527
N    -2.94458   0.06471  -0.57876
C    -1.71290   0.44253  -0.98258
O    -1.50114   1.10961  -2.00364
C    -0.62098   0.00050  -0.11633
O     0.66671   0.35103  -0.45630
C     1.47690  -0.12798   0.43121
C     2.95747   0.07080   0.37404
C     3.47654   0.87027  -0.77549
O     3.62478  -0.42658   1.25971
O     0.86800  -0.78361   1.36523
C    -0.58737  -0.74628   1.07039
O    -1.37364  -1.29290   1.80667
H    -4.27691   1.53103  -1.33056
H    -5.00282  -0.03216  -0.85957
H    -4.06083   0.10249  -2.37167
H    -3.04398  -0.46760   0.28118
H     3.02509   1.87579  -0.76667
H     3.18607   0.39323  -1.72574
H     4.56839   0.94310  -0.70414
