43
Generated by autodE on: 2022-06-18. E = -1053.664596 Ha. Imaginary frequency = -303.6 cm-1
C    -3.52595   3.38560  -0.75934
C    -3.00910   2.44454   0.06520
C    -2.99772   2.61893   1.56044
C    -2.40192   1.25678  -0.51083
C    -1.83433   0.23787   0.19544
C    -1.19654  -0.87217  -0.44360
C     1.13219   0.46110  -0.31919
C     0.77127   1.86323  -0.15500
O     0.58784   2.35745   0.96722
N     0.61495   2.53913  -1.31363
C     0.16366   3.91368  -1.34831
O     1.30991  -0.31318   0.78685
C     1.34999  -1.57918   0.34966
C     1.92235  -2.62311   1.25327
C     2.13596  -2.23475   2.68349
O     2.19028  -3.71710   0.78874
O     1.68754  -1.60041  -0.96081
C     1.42120  -0.31087  -1.47493
O     1.46535  -0.07223  -2.66844
C    -0.77148  -2.05153   0.20163
C    -0.68457  -3.29922  -0.64958
C    -1.14496  -2.27829   1.65127
H    -3.96980   4.30509  -0.36851
H    -3.51609   3.25083  -1.84470
H    -1.96039   2.64029   1.93213
H    -3.50296   1.77983   2.06576
H    -3.49501   3.55312   1.85597
H    -2.38843   1.20061  -1.60465
H    -1.84425   0.26725   1.28664
H    -1.18545  -0.86233  -1.53777
H     0.74041   2.03066  -2.18641
H    -0.93288   3.98964  -1.23975
H     0.62606   4.48282  -0.53014
H     0.45405   4.36414  -2.30610
H     1.28206  -1.67188   3.08498
H     2.32639  -3.13538   3.28045
H     3.01455  -1.56864   2.73311
H    -1.67670  -3.78258  -0.67633
H     0.02425  -4.03183  -0.23873
H    -0.39433  -3.06586  -1.68337
H    -0.89328  -1.42131   2.29104
H    -0.64713  -3.17241   2.05342
H    -2.23262  -2.44569   1.73080
