46
Generated by autodE on: 2022-10-21. E = -2009.137033 Ha
C    -0.19041  -2.03238  -3.44068
O     0.17583  -1.48676  -2.18249
C    -0.55890  -0.39101  -1.69368
O    -0.32733   0.72752  -2.51643
C     1.03714   0.99067  -2.83267
C    -2.07795  -0.66449  -1.64877
C    -3.03304   0.53258  -1.63317
C    -2.90386   1.55748  -0.49969
C    -1.72192   2.52907  -0.67825
C    -0.56819   2.31130   0.29155
Cl    0.87434   3.28888  -0.28363
Cl   -1.06629   3.05243   1.89413
C    -0.09043   0.90009   0.53501
C    -0.03444  -0.19337  -0.26430
C     0.63883  -1.27920   0.52812
C     0.89070  -2.68377   0.12663
C     2.20356  -3.17409   0.12990
C     2.45368  -4.50867  -0.20288
C     1.39444  -5.36325  -0.51755
C     0.08001  -4.88004  -0.49982
C    -0.17281  -3.54588  -0.18565
N     1.02560  -0.89549   1.70063
C     0.54272   0.48087   1.87810
C    -0.47203   0.37606   2.95086
N    -1.24917   0.18210   3.78796
C     1.65065   1.35309   2.30507
N     2.55339   1.99168   2.64855
H    -0.99363  -2.78082  -3.34015
H     0.70521  -2.53128  -3.83687
H    -0.50554  -1.25179  -4.15050
H     1.42240   0.27731  -3.57762
H     1.07058   2.00440  -3.25216
H     1.67959   0.95453  -1.93893
H    -2.32672  -1.26643  -2.53338
H    -2.26568  -1.30595  -0.77467
H    -4.04921   0.10792  -1.59668
H    -2.96106   1.06363  -2.59605
H    -3.82897   2.15197  -0.47852
H    -2.85456   1.04925   0.47810
H    -1.31820   2.43782  -1.69038
H    -2.03703   3.57257  -0.54814
H     3.02932  -2.50423   0.37637
H     3.48091  -4.88006  -0.21343
H     1.59000  -6.40687  -0.77472
H    -0.75243  -5.54678  -0.73584
H    -1.19623  -3.16894  -0.17952
