49
Generated by autodE on: 2022-06-02. E = -1316.454266 Ha
C     1.91192  -0.20066   4.03974
O     1.73700   0.28577   2.69998
C     2.14571  -0.50183   1.71071
O     2.71568  -1.55911   1.87713
C     1.93128   0.15514   0.34160
N     0.93142   1.20354   0.28505
C    -0.37510   0.61296  -0.03714
C    -1.34445   1.64489  -0.60794
C    -2.67735   1.27682  -0.84946
C    -3.56817   2.18054  -1.43006
C    -3.14200   3.47061  -1.76635
C    -1.81902   3.84432  -1.52048
C    -0.92305   2.93384  -0.94914
C    -0.96438  -0.03816   1.23296
C    -1.58063   0.81568   2.16540
C    -1.98081   0.35022   3.41716
C    -1.77881  -0.98909   3.76851
C    -1.17081  -1.84803   2.85363
C    -0.76540  -1.37629   1.59948
C     0.03682  -0.41002  -1.16497
C    -0.92227  -1.49245  -1.32447
N    -1.71266  -2.32073  -1.51282
C     0.27895   0.24497  -2.61167
C     0.56095  -0.91514  -3.55500
C     1.81117  -1.30084  -3.27268
C     2.27071  -0.36670  -2.16860
O     1.56227   0.83008  -2.45567
C     1.54194  -0.81213  -0.81796
C     1.73885  -2.23714  -0.59496
N     1.84991  -3.39140  -0.55220
H     1.41597  -1.17400   4.15447
H     1.44341   0.54386   4.69267
H     2.98190  -0.29848   4.27254
H     2.92702   0.57429   0.11504
H     0.89203   1.73185   1.15440
H    -3.02430   0.27804  -0.57828
H    -4.60145   1.87818  -1.61596
H    -3.84059   4.18042  -2.21550
H    -1.47652   4.84967  -1.77711
H     0.11394   3.21821  -0.77582
H    -1.73578   1.86590   1.91216
H    -2.45369   1.03758   4.12255
H    -2.09144  -1.35653   4.74847
H    -0.99989  -2.89594   3.10966
H    -0.28346  -2.08794   0.93238
H    -0.48119   0.97506  -2.89711
H    -0.16443  -1.36526  -4.23093
H     2.37758  -2.14665  -3.65938
H     3.34301  -0.19455  -2.03281
