34
Generated by autodE on: 2022-06-02. E = -824.312216 Ha
C     5.54568  -0.12978  -0.76730
O     4.23317   0.40781  -0.91716
C     3.23036  -0.26286  -0.28428
O     3.44634  -1.28293   0.38718
C     1.95633   0.33130  -0.48797
N     0.90684  -0.31315   0.08728
C    -0.39899  -0.08351   0.11975
C    -1.26169  -1.09622   0.74073
C    -0.87362  -2.45260   0.81901
C    -1.68770  -3.39317   1.44879
C    -2.91444  -3.01109   2.00254
C    -3.31802  -1.67399   1.92040
C    -2.50490  -0.72724   1.29887
C    -0.95611   1.15018  -0.46795
C    -2.08331   1.08296  -1.30897
C    -2.62772   2.24307  -1.86123
C    -2.06294   3.49035  -1.57605
C    -0.94876   3.56986  -0.73366
C    -0.39629   2.41125  -0.18697
H     5.85131  -0.14711   0.29041
H     6.21391   0.53082  -1.33407
H     5.60646  -1.15258  -1.17069
H     1.80180   1.22097  -1.08911
H     1.22235  -1.15646   0.58186
H     0.05863  -2.78848   0.35822
H    -1.36811  -4.43695   1.49191
H    -3.55388  -3.75143   2.48843
H    -4.27252  -1.36254   2.35125
H    -2.82548   0.31455   1.25969
H    -2.52895   0.11213  -1.53363
H    -3.49702   2.17236  -2.51908
H    -2.49087   4.39833  -2.00715
H    -0.50849   4.54140  -0.49750
H     0.46644   2.48706   0.47729
