34
Generated by autodE on: 2022-07-27. E = -824.303129 Ha
C     4.35241  -1.83899   1.58554
O     3.77938  -1.51887   0.32199
C     2.59955  -0.81342   0.35650
O     2.05515  -0.53640   1.42979
C     2.18145  -0.45912  -0.95117
N     1.02547   0.21564  -1.23614
C    -0.15271   0.33610  -0.62410
C    -1.05053   1.38788  -1.12084
C    -2.45242   1.22147  -1.07360
C    -3.30320   2.19871  -1.58550
C    -2.78104   3.36592  -2.15605
C    -1.39598   3.54861  -2.20351
C    -0.53858   2.57723  -1.68491
C    -0.59234  -0.59409   0.42867
C    -1.30210  -0.12359   1.54796
C    -1.77199  -1.01172   2.51685
C    -1.55193  -2.38528   2.37796
C    -0.85156  -2.86386   1.26393
C    -0.36873  -1.97801   0.30293
H     3.67358  -2.46405   2.18679
H     4.59456  -0.93040   2.15986
H     5.27439  -2.39566   1.37331
H     2.86626  -0.57168  -1.78837
H     1.08461   0.73940  -2.11286
H    -2.87304   0.30821  -0.65139
H    -4.38411   2.04456  -1.54718
H    -3.45127   4.13096  -2.55442
H    -0.97751   4.46306  -2.63029
H     0.53766   2.76380  -1.68910
H    -1.47824   0.94754   1.66185
H    -2.31283  -0.62793   3.38507
H    -1.92207  -3.08106   3.13449
H    -0.67875  -3.93616   1.14529
H     0.18585  -2.36194  -0.55545
