15
Generated by autodE on: 2022-06-02. E = -492.081471 Ha
N     2.50964  -1.47754   1.47028
C     1.60133  -1.05448   0.87659
C     0.48852  -0.57430   0.15628
C     0.23021   0.67521  -0.29222
C     1.00347   1.84750  -0.16733
N     1.62378   2.82934  -0.07979
C    -1.19080   0.57172  -0.93273
C    -2.17539   0.35644   0.23279
C    -1.92016  -0.87766   0.67528
C    -0.78358  -1.39547  -0.22708
O    -1.09834  -0.75257  -1.46574
H    -1.42939   1.32442  -1.68933
H    -2.86553   1.10948   0.60996
H    -2.34184  -1.42332   1.51792
H    -0.64225  -2.47538  -0.32684
