49
Generated by autodE on: 2022-06-02. E = -1316.393341 Ha. Imaginary frequency = -189.1 cm-1
C     3.81091  -1.79182   2.73611
O     3.39737  -1.03151   1.59651
C     2.29007  -0.28129   1.74110
O     1.69016  -0.17497   2.79717
C     1.96853   0.37328   0.47135
N     0.89113   1.19371   0.27983
C    -0.43025   1.01866   0.46366
C    -1.30167   1.94818  -0.28993
C    -2.61688   1.55168  -0.60850
C    -3.42850   2.35877  -1.40256
C    -2.95280   3.58367  -1.88465
C    -1.65649   3.99440  -1.56288
C    -0.83728   3.18674  -0.77230
C    -1.04149   0.22793   1.56159
C    -1.98681   0.88785   2.37513
C    -2.61400   0.22862   3.43159
C    -2.32748  -1.11525   3.68805
C    -1.40099  -1.78495   2.88531
C    -0.75996  -1.12156   1.83979
C    -0.04468  -0.78522  -1.41771
C    -1.19714  -1.53550  -1.14689
N    -2.18627  -2.12590  -0.94445
C     0.05842   0.11351  -2.68608
C     0.42935  -0.83128  -3.83608
C     1.69674  -1.18981  -3.59592
C     2.08608  -0.45387  -2.31088
O     1.32088   0.75361  -2.43631
C     1.29659  -1.11886  -1.12646
C     1.69927  -2.35025  -0.55135
N     2.02889  -3.35905  -0.06954
H     4.70101  -2.34914   2.42164
H     4.05759  -1.12929   3.57880
H     3.01747  -2.48938   3.04131
H     2.84975   0.70002  -0.07850
H     1.06948   1.77606  -0.54031
H    -2.99071   0.59091  -0.25492
H    -4.43923   2.02709  -1.65053
H    -3.59259   4.21703  -2.50312
H    -1.28017   4.95570  -1.91942
H     0.16130   3.54475  -0.51222
H    -2.21987   1.93620   2.18573
H    -3.33121   0.76825   4.05405
H    -2.82500  -1.63810   4.50809
H    -1.17036  -2.83630   3.07007
H    -0.05012  -1.68375   1.24184
H    -0.75011   0.83527  -2.83714
H    -0.25600  -1.17446  -4.61028
H     2.33121  -1.90210  -4.12168
H     3.14667  -0.26163  -2.12695
