24
Generated by autodE on: 2022-05-29. E = -518.109421 Ha
C     3.34876   0.18651  -0.21803
C     1.91298   0.06148  -0.54628
N     0.95906   0.36456   0.27533
C     1.27506   0.85014   1.62857
C    -0.39550  -0.02220  -0.03235
C    -1.40510   0.98979  -0.07663
C    -0.98018   2.44267   0.08980
O    -2.61977   0.75462  -0.25748
C    -0.56504  -1.43487  -0.24912
C    -1.96060  -1.98880  -0.44453
O     0.40297  -2.22517  -0.28304
H     3.59423   1.22918   0.04734
H     3.96744  -0.12530  -1.06742
H     3.59628  -0.43032   0.66310
H     1.60059  -0.28802  -1.53256
H     0.34361   1.07272   2.15511
H     1.81768   0.06507   2.17646
H     1.90161   1.75010   1.57358
H    -1.03181   2.72455   1.15486
H    -1.69559   3.07484  -0.45469
H     0.03833   2.65180  -0.26512
H    -2.41622  -1.57931  -1.35875
H    -1.88874  -3.08225  -0.52641
H    -2.62800  -1.71226   0.38367
