13
Generated by autodE on: 2022-05-29. E = -767.141594 Ha
Cl    2.19976   0.02895   0.70310
C     0.62084  -0.25325   0.07550
C    -0.17420  -1.32041   0.18257
C    -1.49071  -0.85107  -0.48138
C    -2.12141   0.22119   0.44106
C    -1.31466   1.28112   0.34135
C    -0.20792   0.83824  -0.64554
O    -0.96732  -0.00248  -1.52864
H    -0.00963  -2.26903   0.68954
H    -2.15177  -1.63085  -0.87465
H    -3.00172   0.06998   1.06500
H    -1.34733   2.23950   0.85798
H     0.35489   1.61473  -1.17405
