37
Generated by autodE on: 2022-05-29. E = -1285.239017 Ha. Imaginary frequency = -314.3 cm-1
C     3.08885   0.76672  -2.42566
C     2.65426   0.88287  -0.97240
O     2.97741   1.90421  -0.35520
C     1.95910  -0.24182  -0.33158
C     2.23996  -0.61942   1.04742
C     3.09082   0.28578   1.91445
O     1.78678  -1.65626   1.55992
C    -0.12174   1.04188   0.37763
C    -0.63929   0.25064   1.59150
C    -1.99610   0.88097   1.97726
C    -2.80302   0.51780   0.97533
Cl   -4.43771   0.95092   0.65015
C    -1.94268  -0.31358  -0.00356
O    -1.07976  -0.96051   0.93889
C    -0.94983   0.66409  -0.66844
C     0.32138  -0.48724  -1.98326
C    -0.55113  -1.26546  -2.90909
N     1.19632  -1.08735  -1.14979
C     1.11798  -2.53805  -0.94200
H     4.17665   0.93986  -2.44120
H     2.87363  -0.20112  -2.89310
H     2.62974   1.57165  -3.02056
H     3.31290  -0.25981   2.84165
H     2.54346   1.20721   2.16307
H     4.02409   0.59236   1.42333
H     0.48980   1.93907   0.45241
H     0.05504   0.03992   2.40932
H    -2.18341   1.53812   2.82407
H    -2.47548  -1.02408  -0.64397
H    -1.25189   1.31887  -1.48621
H     0.62268   0.49887  -2.32911
H    -1.12221  -2.04901  -2.39138
H     0.05490  -1.74977  -3.69554
H    -1.25637  -0.58245  -3.40147
H     1.00655  -3.02644  -1.91854
H     2.04495  -2.88690  -0.48174
H     0.27332  -2.80969  -0.29579
