50
Generated by autodE on: 2022-06-22. E = -1042.036686 Ha
C    -3.26833   1.57597  -0.86050
C    -2.18350   2.08937  -0.26385
C    -2.20553   3.42415   0.42855
C    -0.85269   1.36616  -0.23673
C    -0.00980   1.47084  -1.52607
C     0.57554   2.85481  -1.73995
C     1.94673   3.14049  -1.20795
O    -0.11124   3.69872  -2.29451
O     1.00165   0.49089  -1.35660
C     0.50229  -0.61340  -0.59344
C     0.37254  -1.83987  -1.51774
C     1.26137  -1.87709  -2.72462
O    -0.41306  -2.73244  -1.24944
C     1.49732  -0.96059   0.51242
C     2.54157  -0.08448   0.83329
C     3.42411  -0.38467   1.87626
C     3.27657  -1.56559   2.60775
C     2.23978  -2.44824   2.28682
C     1.35759  -2.14987   1.24679
C    -0.91227  -0.16349  -0.07399
C    -1.28750  -0.58483   1.30983
C    -2.28283  -1.41837   1.66263
C    -3.19019  -2.12910   0.69612
C    -2.54461  -1.72888   3.11218
H    -3.25926   0.60053  -1.35343
H    -4.21280   2.12782  -0.87703
H    -1.44347   4.09981   0.00614
H    -1.95987   3.30463   1.49820
H    -3.18769   3.91210   0.34717
H    -0.24031   1.77702   0.58297
H    -0.64867   1.23856  -2.39697
H     1.97225   2.93742  -0.12528
H     2.67926   2.46537  -1.67630
H     2.21316   4.18737  -1.40094
H     0.92277  -1.11241  -3.44230
H     1.21626  -2.86914  -3.19222
H     2.29574  -1.61941  -2.45150
H     2.66028   0.83628   0.26658
H     4.23156   0.31169   2.11526
H     3.96627  -1.79950   3.42218
H     2.11504  -3.37635   2.84971
H     0.55216  -2.84337   1.00668
H    -1.64045  -0.55070  -0.79427
H    -0.68512  -0.13902   2.10861
H    -3.05753  -3.22159   0.78692
H    -3.01916  -1.85591  -0.35202
H    -4.24653  -1.92369   0.94088
H    -1.84885  -1.20046   3.78056
H    -2.45202  -2.81327   3.30055
H    -3.57657  -1.45394   3.39327
