23
Generated by autodE on: 2022-06-22. E = -351.521382 Ha
C     3.46790  -1.48540  -0.26049
C     2.52981  -0.52379  -0.11501
C     2.91262   0.92283   0.06712
C     1.11197  -0.87838  -0.13315
C     0.07793  -0.01004  -0.00036
C    -1.31289  -0.41459  -0.02604
C    -2.39968   0.38908   0.09488
C    -3.78803  -0.18386   0.04978
C    -2.33820   1.87885   0.27962
H     4.53536  -1.24805  -0.25117
H     3.18689  -2.53479  -0.39284
H     2.48702   1.55038  -0.73353
H     4.00439   1.04973   0.06159
H     2.52257   1.32050   1.01881
H     0.88630  -1.94318  -0.26745
H     0.29532   1.05303   0.13373
H    -1.49102  -1.48870  -0.15830
H    -4.33778   0.04876   0.97958
H    -4.37237   0.26975  -0.77094
H    -3.78343  -1.27506  -0.08804
H    -2.84828   2.16893   1.21524
H    -2.88338   2.38714  -0.53530
H    -1.31676   2.27946   0.30875
