27
Generated by autodE on: 2022-07-27. E = -690.428950 Ha
C     1.08944   3.11037   0.80588
C     0.21832   3.25369  -0.41767
O    -0.02135   4.35576  -0.93088
C    -0.36516   2.07168  -1.00486
O    -0.10007   0.92450  -0.43767
C    -0.37788  -0.35365  -0.56976
C    -1.16619  -0.89165  -1.69293
C    -1.47740  -0.02753  -2.88492
O    -1.55206  -2.06122  -1.65515
C     0.14707  -1.17008   0.52917
C     0.40735  -0.56558   1.77990
C     0.93194  -1.30669   2.83604
C     1.21046  -2.66848   2.67346
C     0.96185  -3.27815   1.43969
C     0.43630  -2.54383   0.37690
H     0.47432   2.81088   1.67083
H     1.85637   2.33433   0.66812
H     1.56438   4.07608   1.02200
H    -1.01223   2.14492  -1.87553
H    -2.26408   0.70346  -2.63461
H    -1.84955  -0.67700  -3.68769
H    -0.59460   0.53036  -3.23349
H     0.18282   0.49165   1.92166
H     1.11731  -0.81931   3.79605
H     1.61841  -3.25014   3.50323
H     1.18546  -4.33820   1.29870
H     0.26099  -3.03196  -0.57906
