50
Generated by autodE on: 2022-06-22. E = -1041.964595 Ha. Imaginary frequency = -237.4 cm-1
C    -3.03238   0.83516  -2.21628
C    -2.43189   1.82735  -1.53044
C    -2.55127   3.26533  -1.96532
C    -1.61930   1.60919  -0.31499
C     0.52280   1.73017  -1.25062
C     1.07590   2.98290  -0.76111
C     1.97357   2.93970   0.44929
O     0.75658   4.04976  -1.29835
O     1.06523   0.63023  -0.74168
C     0.58996  -0.62338  -0.77697
C    -0.15977  -1.13173  -1.93520
C     0.01127  -0.48248  -3.28623
O    -0.89030  -2.12208  -1.81973
C     1.18724  -1.49917   0.22436
C     1.82464  -0.93415   1.35349
C     2.40970  -1.74340   2.32686
C     2.36138  -3.13516   2.21115
C     1.73946  -3.70992   1.09463
C     1.16168  -2.90905   0.11431
C    -1.54116   0.40721   0.38454
C    -1.04502   0.36656   1.73063
C    -1.02033  -0.71952   2.55273
C    -1.50829  -2.08043   2.15317
C    -0.53215  -0.60394   3.96424
H    -2.95259  -0.21371  -1.92233
H    -3.62324   1.05508  -3.10946
H    -1.55437   3.70296  -2.13370
H    -3.02630   3.87093  -1.17411
H    -3.14516   3.36544  -2.88485
H    -1.37727   2.51506   0.24695
H     0.03722   1.70564  -2.22205
H     1.43031   2.50471   1.30394
H     2.85107   2.30174   0.26527
H     2.29604   3.95875   0.69795
H    -0.81082   0.23022  -3.46292
H    -0.06980  -1.27397  -4.04456
H     0.96807   0.04672  -3.39531
H     1.86716   0.14802   1.45780
H     2.89776  -1.28065   3.18747
H     2.81056  -3.76909   2.97909
H     1.70630  -4.79663   0.98692
H     0.68044  -3.37622  -0.74220
H    -2.02270  -0.48038  -0.02422
H    -0.65752   1.31154   2.12744
H    -0.78730  -2.84813   2.47614
H    -1.66349  -2.19023   1.07323
H    -2.45861  -2.30797   2.66990
H    -0.17740   0.40943   4.20161
H     0.28936  -1.31850   4.14700
H    -1.33549  -0.87070   4.67455
