18
Generated by autodE on: 2022-06-24. E = -235.968071 Ha
C     1.00186  -1.04333  -1.33927
C     0.63545  -0.12804  -0.19575
C     1.85981   0.46693   0.45744
C    -0.63548   0.12805   0.19575
C    -1.85983  -0.46688  -0.45749
C    -1.00182   1.04327   1.33933
H     1.58051  -0.49180  -2.10208
H     1.66419  -1.85345  -0.98474
H     0.14422  -1.50746  -1.84057
H     2.45429   1.03083  -0.28380
H     2.52300  -0.33426   0.83028
H     1.64425   1.14004   1.29579
H    -1.64424  -1.13984  -1.29596
H    -2.45431  -1.03093   0.28364
H    -2.52305   0.33433  -0.83022
H    -1.66356   1.85388   0.98478
H    -1.58106   0.49187   2.10177
H    -0.14407   1.50675   1.84105
