36
Generated by autodE on: 2022-06-24. E = -953.964273 Ha
C    -3.92360  -1.91775  -1.66686
N    -3.37739  -0.82323  -0.89456
C    -2.06437  -0.76919  -0.58372
O    -1.22971  -1.57412  -1.04867
C    -1.67118   0.26038   0.37596
O    -0.34774   0.36906   0.70190
C     0.71207   0.15191  -0.00052
C     0.61201   0.13317  -1.50892
O    -0.09726   0.98145  -2.05482
N     1.38210  -0.74621  -2.16165
C     1.28092  -0.89957  -3.60121
C     1.95714   0.17994   0.73618
C     1.93209   0.02922   2.14462
C     3.11199   0.08084   2.87642
C     4.33682   0.28114   2.22545
C     4.37454   0.43100   0.83484
C     3.19978   0.37979   0.08986
C    -2.53623   0.98594   1.25328
C    -1.90171   1.82658   2.33983
O    -3.78181   0.96875   1.12223
H    -4.95588  -1.67574  -1.95057
H    -3.92992  -2.86856  -1.10489
H    -3.33462  -2.07508  -2.58237
H    -3.98163  -0.21961  -0.33041
H     1.84518  -1.47269  -1.62327
H     1.39964   0.07293  -4.09911
H     0.30027  -1.31737  -3.88461
H     2.07248  -1.57672  -3.94395
H     0.98085  -0.14649   2.64771
H     3.08259  -0.04430   3.96074
H     5.26257   0.31749   2.80388
H     5.32688   0.59602   0.32703
H     3.24247   0.52007  -0.98919
H    -1.32868   2.65865   1.90018
H    -1.19887   1.23558   2.94750
H    -2.69536   2.23350   2.97984
