54
Generated by autodE on: 2022-06-24. E = -1189.920343 Ha. Imaginary frequency = -265.1 cm-1
C    -3.46914  -1.68819   2.86008
N    -2.96526  -0.57532   2.08778
C    -1.64930  -0.45990   1.80106
O    -0.82563  -1.29975   2.21182
C    -1.26248   0.68836   0.96892
C    -2.12361   1.81541   0.69957
C    -1.51900   3.07857   0.13370
O    -3.35722   1.76783   0.89117
O     0.03764   0.94277   0.66181
C     1.00494   0.13494   0.24203
C     1.45923  -1.01835   1.15190
O     1.61633  -2.18162   0.78743
N     1.88284  -0.56000   2.35181
C     2.21766  -1.48730   3.41526
C     2.12461   0.83596  -0.40338
C     2.04706   2.20927  -0.71276
C     3.10260   2.84879  -1.35760
C     4.25213   2.13409  -1.71567
C     4.34301   0.77327  -1.40739
C     3.29525   0.12869  -0.75095
C    -0.12276  -0.67490  -1.68780
C     0.78649  -1.82551  -2.05896
C     0.05518   0.52574  -2.58724
C    -1.40130  -0.94554  -1.17787
C    -2.60732  -0.16246  -1.61313
C    -1.71658  -2.29269  -0.59667
H    -4.56223  -1.61088   2.92132
H    -3.21107  -2.65220   2.39213
H    -3.06138  -1.69756   3.88521
H    -3.57131   0.17083   1.74103
H    -0.69923   3.44981   0.76593
H    -2.30685   3.83906   0.06325
H    -1.10512   2.89754  -0.86918
H     1.56287   0.36432   2.62658
H     2.67723  -0.93398   4.24409
H     1.32153  -2.01264   3.78726
H     2.93192  -2.23807   3.05113
H     1.15602   2.77062  -0.44100
H     3.02814   3.91470  -1.58474
H     5.07592   2.63810  -2.22603
H     5.23900   0.20855  -1.67440
H     3.38358  -0.93038  -0.50885
H     0.72940  -2.67552  -1.37612
H     0.49114  -2.16833  -3.06854
H     1.83526  -1.50480  -2.12826
H     1.11070   0.67276  -2.84992
H    -0.49722   0.36551  -3.53025
H    -0.32098   1.45485  -2.14111
H    -3.04024  -0.68003  -2.49213
H    -3.38796  -0.14291  -0.84005
H    -2.38606   0.86688  -1.91465
H    -1.88428  -3.00832  -1.42365
H    -2.64108  -2.26205  -0.00497
H    -0.90765  -2.68549   0.02893
