53
Generated by autodE on: 2022-06-11. E = -1558.049768 Ha
C    -3.17882   0.99501  -0.75585
N    -1.90875   0.30590  -0.64535
C    -0.85469   0.55016  -1.44154
O    -0.86164   1.36131  -2.36540
C     0.44422  -0.26879  -1.07390
C    -0.05943  -1.71981  -1.02352
O    -0.56609  -2.17261   0.01239
N    -0.03038  -2.41998  -2.16345
C    -0.51012  -3.78982  -2.21487
C     1.52052   0.05259  -2.14405
C     2.81097  -0.77675  -2.18335
C     3.53032  -1.02212  -0.85486
C     2.83240  -2.09817   0.00076
C     2.26650  -1.65434   1.38285
C     1.27311  -2.75097   1.86189
O     1.32493  -3.89993   1.48814
O     0.42045  -2.29275   2.76247
C    -0.57556  -3.20827   3.24486
C     3.46599  -1.74181   2.36309
F     3.89907  -3.00949   2.47191
F     4.50660  -1.01061   1.93791
F     3.17549  -1.33984   3.61284
C     1.61494  -0.27321   1.32371
C     0.89867   0.24624   0.28881
C     0.59692   1.64484   0.64086
N     1.00406   2.01864   1.79697
C     1.64069   0.83684   2.40912
C     0.83157   0.50843   3.68395
C     2.99474   1.29428   2.76713
N     4.02879   1.72557   3.06541
H    -3.40837   1.53855   0.17396
H    -3.99480   0.28278  -0.95355
H    -3.12430   1.71257  -1.58269
H    -1.80295  -0.41199   0.06860
H     0.40369  -2.01911  -2.98756
H    -1.59307  -3.83832  -2.02161
H     0.00036  -4.40730  -1.45979
H    -0.30640  -4.19831  -3.21165
H     1.77823   1.11226  -1.99988
H     1.04186   0.00583  -3.13315
H     2.61832  -1.75413  -2.65542
H     3.49248  -0.24744  -2.86838
H     4.55186  -1.36466  -1.07560
H     3.64443  -0.07627  -0.30484
H     3.51247  -2.93836   0.18501
H     2.01345  -2.55115  -0.56308
H    -0.09911  -4.06780   3.73659
H    -1.17922  -2.64193   3.96266
H    -1.19686  -3.55450   2.40722
H     0.07749   2.34023  -0.02476
H     0.82969   1.39239   4.33563
H     1.25216  -0.34325   4.22339
H    -0.19837   0.27394   3.38657
