43
Generated by autodE on: 2022-06-11. E = -1293.565315 Ha
C    -3.32169   4.59737  -0.03695
N    -2.96580   3.21762  -0.30130
C    -1.82988   2.68359   0.15829
O    -1.01674   3.30173   0.85324
C    -1.59513   1.18595  -0.15148
C    -2.07341   0.77834  -1.57063
O    -3.24042   1.01595  -1.91414
N    -1.19105   0.15454  -2.35891
C    -1.53696  -0.35346  -3.67265
C    -0.20185   0.81962   0.06998
C     0.73558   0.09017   0.29530
C     1.44183  -1.14247   0.62340
C     2.18919  -1.70255  -0.60184
O     3.21224  -2.34403  -0.54998
O     1.52035  -1.44155  -1.72062
C     2.03737  -1.99478  -2.94414
C     2.43612  -0.90465   1.77349
F     1.82177  -0.33288   2.82393
F     3.42655  -0.07994   1.39510
F     2.99526  -2.03761   2.21417
C     0.33979  -2.19939   1.02266
C    -0.89706  -1.66931   1.77576
C    -2.10114  -1.17115   0.92728
C    -2.41389   0.33669   0.89114
H    -3.36247   4.79393   1.04566
H    -4.30898   4.79857  -0.47035
H    -2.59182   5.29495  -0.47916
H    -3.53119   2.63246  -0.91811
H    -0.28428  -0.10113  -1.97278
H    -0.64379  -0.34672  -4.31132
H    -1.92384  -1.38466  -3.61988
H    -2.30743   0.28359  -4.12520
H     2.07930  -3.09064  -2.87438
H     3.04090  -1.59515  -3.14532
H     1.33612  -1.68645  -3.72737
H     0.84305  -2.97864   1.61236
H     0.00748  -2.67654   0.08915
H    -0.60050  -0.90359   2.50822
H    -1.25384  -2.52254   2.37253
H    -2.01902  -1.56008  -0.10134
H    -3.00501  -1.64342   1.34175
H    -3.47571   0.48436   0.64803
H    -2.23806   0.78052   1.88318
