53
Generated by autodE on: 2022-06-11. E = -1557.913975 Ha. Imaginary frequency = -202.5 cm-1
C    -2.90967   1.35451  -0.67669
N    -1.78814   0.43641  -0.63174
C    -0.74805   0.54012  -1.48078
O    -0.72662   1.33485  -2.42007
C     0.41071  -0.44776  -1.20063
C    -0.17011  -1.88130  -1.40772
O    -0.20102  -2.73085  -0.51596
N    -0.64872  -2.11548  -2.64086
C    -1.21909  -3.39991  -3.00317
C     1.60331  -0.20506  -2.16192
C     2.71161  -1.27076  -2.16921
C     3.63056  -1.45094  -0.94006
C     3.16229  -2.44433   0.14724
C     2.57719  -1.82557   1.46010
C     1.83562  -2.94649   2.22090
O     2.27881  -4.06779   2.33578
O     0.67871  -2.54539   2.72569
C    -0.10554  -3.52665   3.42439
C     3.71378  -1.34758   2.38524
F     4.63841  -2.30103   2.58076
F     4.34712  -0.27721   1.88463
F     3.24732  -1.01034   3.60428
C     1.66710  -0.73409   1.07133
C     0.93187  -0.32707   0.17314
C     0.34899   1.96019   0.73109
N     0.74498   1.93291   1.86894
C     1.26106   1.37591   2.93500
C     0.39107   0.60977   3.89778
C     2.55091   1.82983   3.33352
N     3.59835   2.19865   3.68927
H    -2.62512   2.36133  -0.32546
H    -3.71176   0.97118  -0.03384
H    -3.28823   1.44477  -1.70468
H    -1.68728  -0.16784   0.17885
H    -0.59745  -1.38674  -3.34485
H    -1.53958  -3.36110  -4.05116
H    -2.08972  -3.63900  -2.37249
H    -0.48074  -4.20869  -2.88578
H     2.02678   0.78014  -1.91149
H     1.20689  -0.11531  -3.18401
H     2.28102  -2.25073  -2.43805
H     3.36166  -0.99925  -3.01645
H     4.58500  -1.84226  -1.32429
H     3.87048  -0.47031  -0.50341
H     3.98365  -3.11373   0.43600
H     2.37032  -3.08360  -0.26473
H     0.46009  -3.93286   4.27451
H    -0.99904  -2.99865   3.77538
H    -0.38430  -4.33979   2.73952
H    -0.22675   2.72863   0.20267
H    -0.02014   1.27363   4.67713
H     0.98054  -0.17504   4.38895
H    -0.44064   0.14224   3.35397
