40
Generated by autodE on: 2022-05-31. E = -1217.755369 Ha
C    -4.68247  -1.27595  -0.69990
O    -3.44468  -1.05828  -0.00757
C    -2.91820   0.16866  -0.08442
O    -3.44867   1.08722  -0.67710
C    -1.65204   0.23476   0.67530
C    -0.62532   1.11824   0.65725
C    -0.34759   2.38338  -0.08334
C    -1.04906   2.69294  -1.36840
O     0.48274   3.14458   0.40024
C     0.36287   0.58670   1.69555
O    -0.50966  -0.02571   2.65139
C    -1.25382  -0.81045   1.71377
C    -0.11682  -1.69215   1.10219
C     1.07843  -0.70246   1.15733
C     1.61507  -0.74406  -0.28699
C     2.77873  -1.65563  -0.38360
N     3.69442  -2.36036  -0.48443
C     2.06416   0.61500  -0.86649
O     1.60725   1.09345  -1.87458
O     3.00926   1.14227  -0.11004
C     3.56613   2.40380  -0.53738
O     0.52587  -1.20027  -1.07740
N    -0.29997  -2.09644  -0.29266
C     0.10620  -3.47134  -0.56650
H    -4.55934  -1.07750  -1.77431
H    -4.93915  -2.32814  -0.53338
H    -5.46743  -0.62134  -0.29451
H    -0.49571   3.47877  -1.89841
H    -1.14823   1.79362  -1.99073
H    -2.06638   3.04580  -1.14272
H     1.02492   1.32691   2.15049
H    -2.06587  -1.36188   2.19427
H     0.03770  -2.57491   1.73322
H     1.84771  -0.99327   1.87919
H     3.99950   2.29816  -1.54123
H     2.78222   3.17192  -0.54045
H     4.34279   2.64676   0.19533
H     1.11628  -3.72100  -0.19775
H     0.05620  -3.64958  -1.64860
H    -0.61982  -4.13317  -0.07310
