16
Generated by autodE on: 2022-07-26. E = -529.412382 Ha
C    -1.39682  -2.70542   0.75521
N    -2.14936  -1.53686   0.40555
O    -1.44933  -0.49361   0.11864
C    -0.15255  -0.22455   0.07367
C     0.92373  -1.08452   0.39146
N     1.88875  -1.69490   0.63114
C     0.09207   1.16752  -0.36000
O    -0.78561   1.95871  -0.63887
O     1.39960   1.42802  -0.40463
C     1.78010   2.74905  -0.81925
H    -2.12193  -3.50229   0.95491
H    -0.73014  -3.01914  -0.06848
H    -0.78330  -2.54078   1.65924
H     1.37020   3.49938  -0.12808
H     1.41731   2.94888  -1.83776
H     2.87542   2.76678  -0.79507
