31
Generated by autodE on: 2022-10-20. E = -3357.746492 Ha
C    -5.21087   1.70574   0.54944
O    -3.78507   1.55290   0.61646
C    -3.19246   0.92127  -0.40108
O    -3.79485   0.49626  -1.36726
C    -1.68361   0.82918  -0.21092
N    -1.00825   0.20079  -1.33731
C    -0.99428  -1.25221  -1.10354
C    -0.88275  -1.41521   0.41561
C     0.53831  -1.54596   1.05613
O     0.30368  -0.94890   2.34798
C    -0.07769   0.33869   1.84368
C     1.07672   0.66562   0.89983
O     1.36430   1.95297   0.68526
C     2.31355   2.29738  -0.32735
C     1.48872  -0.53006   0.43077
Br    2.77085  -1.03546  -0.85801
C    -1.33505  -0.04821   1.00666
H    -5.49424   2.28182  -0.34328
H    -5.50116   2.24688   1.45745
H    -5.70169   0.72213   0.52059
H    -1.33475   1.86489  -0.05843
H    -1.49495   0.42058  -2.20489
H    -1.92254  -1.74006  -1.45158
H    -0.15616  -1.72157  -1.64153
H    -1.50333  -2.24372   0.77906
H     0.92120  -2.56844   1.15155
H    -0.24383   1.06703   2.64587
H     2.35604   3.39360  -0.34522
H     1.98934   1.92450  -1.30919
H     3.30876   1.89627  -0.08474
H    -2.18238  -0.14359   1.69493
