14
Generated by autodE on: 2022-10-26. E = -361.971749 Ha
C     1.54868  -1.85209  -1.10524
N     1.82487  -0.61008  -0.79318
C     1.08573   0.39415  -0.22863
C    -0.26386   0.20876   0.15172
O    -0.93610  -0.82573   0.03508
O    -0.80294   1.34624   0.69724
C    -2.16040   1.25973   1.11959
H     0.55474  -2.24552  -0.91110
H     2.34408  -2.44534  -1.55370
H     2.78277  -0.32083  -1.00759
H     1.59886   1.34100  -0.08863
H    -2.82876   1.01505   0.27894
H    -2.42112   2.24770   1.52053
H    -2.28935   0.49791   1.90478
