14
Generated by autodE on: 2022-10-20. E = -361.974390 Ha
C     3.14800   0.29587   0.08161
N     1.87573   0.22217  -0.20246
C     0.78996  -0.03045   0.57866
C    -0.47016  -0.03368  -0.07094
O    -0.66139   0.17355  -1.27870
O    -1.50158  -0.29575   0.78410
C    -2.80814  -0.31504   0.21434
H     3.47796   0.13900   1.10959
H     3.84647   0.51406  -0.72420
H     1.61299   0.37760  -1.18488
H     0.92958  -0.21486   1.64127
H    -3.49881  -0.53573   1.03816
H    -2.89617  -1.09343  -0.55982
H    -3.06475   0.65838  -0.23225
