17
Generated by autodE on: 2022-10-20. E = -2995.673360 Ha
C     2.57277   1.17907   0.22161
O     1.38080   1.69065   0.82378
C     0.25792   0.97633   0.73763
C    -0.14123  -0.18752   0.18871
Br    0.69832  -1.46293  -0.91385
C    -1.67079  -0.22083   0.43368
C    -2.31041   0.88544  -0.43929
C    -1.90682   2.03229   0.11532
C    -1.03794   1.59726   1.31712
O    -1.72911   0.40619   1.72849
H     3.36373   1.90691   0.44121
H     2.45166   1.08429  -0.86768
H     2.84031   0.20311   0.65388
H    -2.13949  -1.21097   0.42674
H    -2.90214   0.71309  -1.33777
H    -2.07121   3.06171  -0.20048
H    -0.89022   2.31179   2.13439
