31
Generated by autodE on: 2022-10-20. E = -3357.647080 Ha. Imaginary frequency = -315.4 cm-1
C    -4.81470   1.91072   0.57449
O    -3.44558   1.96920   0.17588
C    -2.95787   0.87340  -0.47142
O    -3.67617  -0.09302  -0.73061
C    -1.56248   1.02575  -0.76082
N    -0.85690   0.09634  -1.45830
C    -1.05888  -1.22095  -1.47554
C    -0.83189  -1.59809   0.81826
C     0.67361  -1.65389   1.19116
O     0.63711  -1.08675   2.52629
C    -0.01350   0.13583   2.10249
C     0.97468   0.61019   1.02426
O     1.12879   1.92374   0.84738
C     1.93887   2.39529  -0.23120
C     1.42435  -0.52818   0.45823
Br    2.54094  -0.88753  -1.02090
C    -1.26535  -0.43420   1.40697
H    -5.47945   1.80796  -0.29693
H    -5.02358   2.85662   1.08972
H    -4.99274   1.06735   1.25941
H    -1.09934   2.00393  -0.66083
H     0.07171   0.40509  -1.74035
H    -2.07512  -1.58240  -1.37187
H    -0.32288  -1.82204  -2.00967
H    -1.42125  -2.49340   0.63377
H     1.15065  -2.63971   1.17445
H    -0.17418   0.84065   2.92568
H     1.93606   3.48988  -0.15936
H     1.51822   2.09759  -1.20363
H     2.97015   2.02383  -0.13998
H    -2.27764  -0.16564   1.69640
