47
Generated by autodE on: 2022-06-21. E = -1131.198585 Ha
C    -4.03288  -1.32577  -2.00467
O    -3.22893  -0.82755  -0.92129
C    -2.15605  -0.11875  -1.24528
O    -1.81936   0.11229  -2.38923
C    -1.34889   0.39019  -0.02722
C    -2.10861   1.59226   0.54543
O    -3.31838   1.62277   0.64547
O    -1.30885   2.57000   0.95387
C    -1.94116   3.69457   1.58779
N     0.01187   0.69427  -0.39623
C     0.84065  -0.52202  -0.35249
C     1.16578  -1.01646  -1.78501
C     1.68379   0.00564  -2.76405
O     1.01837  -2.18227  -2.10623
C     2.19287  -0.24749   0.32255
C     2.39615   0.91423   1.07827
C     3.62014   1.14823   1.71178
C     4.66533   0.22784   1.58933
C     4.47641  -0.92751   0.82471
C     3.25118  -1.16165   0.19527
C    -0.06119  -1.56256   0.39829
C     0.63543  -2.54895   1.32329
C    -1.17835  -0.72010   1.05148
C    -0.85682  -0.17902   2.44322
H    -3.43291  -1.98046  -2.65234
H    -4.43427  -0.48986  -2.59490
H    -4.84800  -1.89073  -1.53902
H    -2.47138   3.37064   2.49478
H    -2.65068   4.17313   0.89833
H    -1.13204   4.38691   1.84566
H     0.07334   1.21082  -1.26935
H     2.30804  -0.48972  -3.51959
H     2.24245   0.81356  -2.27252
H     0.81645   0.45289  -3.27819
H     1.58061   1.63225   1.16039
H     3.75770   2.05798   2.30165
H     5.62310   0.41199   2.08187
H     5.28736  -1.65156   0.71459
H     3.12222  -2.06902  -0.39768
H    -0.54371  -2.15180  -0.39493
H    -0.11213  -3.20258   1.80007
H     1.20938  -2.05080   2.11695
H     1.32715  -3.19066   0.75899
H    -2.10269  -1.30758   1.11168
H     0.05119   0.43836   2.45480
H    -1.69101   0.42276   2.83583
H    -0.70848  -1.01436   3.14241
