12
Generated by autodE on: 2022-06-21. E = -157.299003 Ha
C     1.51707  -0.71642  -0.09021
C     0.72338   0.55427  -0.15208
C    -0.60419   0.69863  -0.01375
C    -1.62087  -0.37526   0.23467
H     2.28302  -0.66142   0.70354
H     2.06636  -0.88235  -1.03395
H     0.89549  -1.60288   0.10038
H     1.31175   1.46306  -0.33189
H    -1.00963   1.71566  -0.08915
H    -2.16626  -0.18868   1.17686
H    -2.38414  -0.38382  -0.56347
H    -1.17997  -1.38072   0.29221
