35
Generated by autodE on: 2022-07-27. E = -973.850804 Ha
C    -4.00305  -0.24324  -2.11453
O    -3.32475   0.11267  -0.90553
C    -1.98748  -0.01733  -0.91006
O    -1.38776  -0.45506  -1.89539
C    -1.32427   0.40370   0.29744
N     0.05271   0.26937   0.38911
C     0.93129  -0.50497  -0.19692
C     0.49293  -1.73034  -0.97770
C     1.03262  -1.91677  -2.36452
O    -0.16581  -2.57036  -0.39008
C     2.35660  -0.26442   0.03876
C     2.83505   1.03963   0.28689
C     4.18765   1.25738   0.54310
C     5.08516   0.18445   0.54901
C     4.62190  -1.11186   0.29920
C     3.27074  -1.33878   0.04415
C    -1.83446   1.21991   1.38477
O    -1.09398   1.67129   2.26282
O    -3.15193   1.46064   1.37250
C    -3.66083   2.27810   2.43222
H    -3.82196  -1.29804  -2.36870
H    -3.67462   0.39130  -2.95098
H    -5.06967  -0.08157  -1.91786
H     0.42125   0.91799   1.09974
H     2.00923  -2.42471  -2.30149
H     0.34762  -2.55787  -2.93473
H     1.18063  -0.95467  -2.87180
H     2.15255   1.89154   0.24885
H     4.54508   2.27321   0.72486
H     6.14573   0.35887   0.74333
H     5.31678  -1.95425   0.30995
H     2.92157  -2.35979  -0.11940
H    -3.20219   3.27763   2.41095
H    -4.74045   2.35672   2.25711
H    -3.47065   1.81319   3.41085
