35
Generated by autodE on: 2022-06-21. E = -973.856246 Ha
C    -0.60680  -3.02229  -0.58421
O    -0.77690  -1.71795  -0.01666
C    -1.30450  -0.77318  -0.80864
O    -1.77296  -1.01349  -1.90755
C    -1.28229   0.54598  -0.16244
N    -0.30102   0.95546   0.67197
C     0.93589   0.58407   0.96785
C     1.53224   1.44184   2.02549
C     2.96912   1.24558   2.40740
O     0.83475   2.31139   2.55140
C     1.68281  -0.44119   0.22023
C     2.32528  -1.50231   0.87825
C     3.03262  -2.45887   0.14771
C     3.11324  -2.36360  -1.24461
C     2.48195  -1.30435  -1.90650
C     1.76865  -0.35054  -1.18137
C    -2.37885   1.50481  -0.25652
O    -2.37657   2.57381   0.34795
O    -3.39297   1.10668  -1.03199
C    -4.50442   2.00460  -1.14197
H    -0.10517  -3.62258   0.18289
H     0.01517  -2.96775  -1.48903
H    -1.58222  -3.46359  -0.83483
H    -0.56623   1.81218   1.19702
H     3.60968   1.11871   1.52308
H     3.06840   0.33127   3.01510
H     3.30222   2.10420   3.00436
H     2.24920  -1.59155   1.96298
H     3.51914  -3.28605   0.66936
H     3.66659  -3.11343  -1.81449
H     2.54585  -1.22063  -2.99369
H     1.27572   0.47248  -1.70327
H    -4.18237   2.97223  -1.55359
H    -5.21398   1.52154  -1.82378
H    -4.97230   2.16460  -0.15951
