47
Generated by autodE on: 2022-06-21. E = -1131.131629 Ha. Imaginary frequency = -367.9 cm-1
C    -4.02305  -0.45525  -2.14575
O    -3.25652   0.19095  -1.12410
C    -1.92504   0.20959  -1.29942
O    -1.40177  -0.29419  -2.29161
C    -1.16536   0.81478  -0.22339
C    -1.64817   1.78808   0.75628
O    -0.88202   2.38182   1.51555
O    -2.97011   1.96914   0.79847
C    -3.46460   2.84886   1.81555
N     0.21890   0.77953  -0.26250
C     0.96671  -0.35341  -0.38659
C     0.81760  -1.23305  -1.64398
C     1.33385  -0.59165  -2.90795
O     0.51930  -2.41057  -1.59560
C     2.40256  -0.25169   0.00893
C     2.97767   0.94941   0.46118
C     4.30723   0.98740   0.88487
C     5.09065  -0.16965   0.86208
C     4.53304  -1.36770   0.40395
C     3.20587  -1.40872  -0.02071
C     0.06777  -1.53622   1.14855
C     0.73824  -1.07890   2.41975
C    -1.30675  -1.35665   0.97555
C    -2.24114  -0.89313   2.05141
H    -3.74712  -1.51700  -2.22729
H    -3.87160   0.03379  -3.11907
H    -5.07118  -0.36213  -1.83741
H    -4.55460   2.85696   1.69879
H    -3.06199   3.86331   1.68258
H    -3.19368   2.47708   2.81442
H     0.58193   1.43683   0.43109
H     2.42346  -0.76157  -2.93999
H     0.87818  -1.07918  -3.77938
H     1.15325   0.48931  -2.92853
H     2.40427   1.87768   0.47403
H     4.73290   1.93253   1.22929
H     6.13069  -0.13704   1.19404
H     5.13452  -2.27912   0.37889
H     2.78356  -2.35455  -0.36272
H     0.49389  -2.39821   0.63059
H     0.29642  -1.57889   3.29873
H     1.81296  -1.30291   2.41559
H     0.61704   0.00617   2.56999
H    -1.76860  -1.90080   0.14594
H    -3.18010  -0.50418   1.63501
H    -2.50281  -1.75161   2.69978
H    -1.79678  -0.12575   2.70051
