30
Generated by autodE on: 2022-05-26. E = -920.363359 Ha
C    -2.16955  -2.44084  -1.52522
O    -1.70549  -1.44811  -0.59667
C    -0.50429  -0.92723  -0.82572
O     0.19010  -1.21692  -1.77857
C    -0.08028   0.08135   0.21953
C    -1.11637   0.48425   1.32058
C    -2.38199   1.00338   0.65362
C    -2.06760   2.20899   0.16362
C    -0.60947   2.42065   0.53941
O    -0.49919   1.70611   1.77412
C     0.21669   1.48589  -0.40888
F    -0.19245   1.64904  -1.72128
C     1.71068   1.59815  -0.30736
N     2.30125   0.67280   0.33965
C     1.31054  -0.27951   0.83451
C     1.71539  -1.74459   0.73313
C     3.17031  -2.07195   0.61946
O     0.84663  -2.59849   0.80076
H    -1.48657  -3.30230  -1.52552
H    -2.23229  -2.01865  -2.53803
H    -3.16324  -2.74053  -1.17399
H    -1.22079  -0.24186   2.13309
H    -3.31177   0.44663   0.55533
H    -2.66865   2.88168  -0.44664
H    -0.23070   3.44483   0.62222
H     2.25090   2.43836  -0.75888
H     1.24838  -0.12850   1.92707
H     3.53235  -1.72845  -0.36362
H     3.32005  -3.15509   0.71466
H     3.75374  -1.52954   1.37869
