11
Generated by autodE on: 2022-05-26. E = -285.463892 Ha
C     2.19328  -1.16876  -0.28185
N     1.43950  -0.25254  -0.11829
C     0.55292   0.69812  -0.07130
C    -0.86338   0.40410   0.07881
C    -1.27773  -1.04568   0.16870
O    -1.68625   1.32344   0.12797
H     2.78534  -1.74059   0.44277
H     0.89298   1.73367  -0.15169
H    -0.84117  -1.51672   1.06438
H    -0.91264  -1.61261  -0.70336
H    -2.37229  -1.10849   0.21917
