46
Generated by autodE on: 2022-06-06. E = -2273.723475 Ha
C     3.99724   1.53852  -2.95620
O     3.01661   0.74402  -2.26231
C     1.75217   1.03626  -2.49333
O     1.33014   1.84933  -3.27650
C     0.83512   0.16246  -1.63983
O    -0.35444  -0.15792  -2.43734
C    -0.81091  -1.32906  -1.93217
O    -1.75517  -1.93778  -2.33069
C     0.19673  -1.63161  -0.76663
C     0.40489  -3.01802  -0.38941
N     0.62273  -4.11756  -0.09989
O     1.37814  -1.10188  -1.37983
C    -0.13586  -0.55699   0.31130
C     0.32187   0.58740  -0.23629
C     0.28917   2.01849   0.20898
Cl   -0.79791   2.89542  -0.97228
Cl    1.98298   2.70509   0.01890
C    -0.18330   2.35995   1.61654
C     0.67024   1.86112   2.78971
C     1.15750   0.41228   2.77080
C     0.11005  -0.69999   2.81512
C    -0.86234  -0.82609   1.60621
C    -2.18270   0.03317   1.66260
C    -2.79387   0.27943   3.00769
O    -2.69785   0.38379   0.62269
C    -1.52214  -2.22584   1.56001
O    -2.10738  -2.63065   0.57706
O    -1.43878  -2.88306   2.70134
C    -2.07038  -4.17785   2.75336
H     4.97192   1.15418  -2.63781
H     3.88669   2.59506  -2.67334
H     3.87275   1.42835  -4.04215
H    -1.22469   2.03633   1.69650
H    -0.22731   3.45699   1.66270
H     0.07857   2.03928   3.70241
H     1.55688   2.50850   2.86490
H     1.83207   0.25490   1.91492
H     1.78855   0.27157   3.66269
H     0.65044  -1.65420   2.87474
H    -0.48434  -0.62610   3.73508
H    -3.78766   0.72506   2.87759
H    -2.15470   0.96034   3.59115
H    -2.86532  -0.65925   3.57812
H    -3.14395  -4.08154   2.54082
H    -1.90894  -4.54564   3.77225
H    -1.60183  -4.84892   2.02055
