31
Generated by autodE on: 2022-06-06. E = -1612.098921 Ha
C    -1.58445   3.14676  -2.44561
O    -1.37904   1.82576  -1.91381
C    -0.21683   1.24000  -2.18355
O     0.66389   1.73668  -2.84741
C    -0.16215  -0.17510  -1.57403
C    -1.13144  -1.07338  -2.39258
C    -0.79992  -1.28797  -3.83899
O    -2.08769  -1.58484  -1.84800
C    -0.52959  -0.12603  -0.16501
C    -0.40389  -0.11589   1.03952
C     0.32887  -0.21377   2.28008
Cl    0.09899  -1.89205   2.97766
Cl   -0.26491   0.98485   3.51605
C     1.82032   0.03197   1.99244
C     2.40034  -0.75556   0.80037
C     2.28799  -0.12831  -0.61820
C     1.29061  -0.74371  -1.62291
H    -1.52754   3.12624  -3.54308
H    -0.82725   3.83680  -2.04764
H    -2.58606   3.44826  -2.11975
H    -0.48810  -0.35494  -4.33094
H     0.05172  -1.98575  -3.90545
H    -1.66243  -1.72883  -4.35470
H     1.93062   1.11279   1.81265
H     2.36920  -0.20427   2.91593
H     1.99230  -1.77955   0.80101
H     3.47216  -0.86869   1.02129
H     2.11536   0.95746  -0.53856
H     3.27678  -0.23069  -1.09029
H     1.66071  -0.58383  -2.64459
H     1.22800  -1.83136  -1.46395
