66
Generated by autodE on: 2022-10-23. E = -2305.144135 Ha
C    -5.13136  -7.23475  -6.68966
O    -4.55239  -6.01149  -6.27803
C    -4.64149  -4.87807  -7.17801
C    -3.95537  -5.32429  -8.47875
C    -2.57570  -5.58188  -8.44822
C    -1.90560  -6.05151  -9.57810
C    -2.61073  -6.29342 -10.76187
C    -3.99054  -6.08157 -10.79112
C    -4.65847  -5.61020  -9.65601
C    -6.13433  -4.49208  -7.29456
C    -6.48661  -3.06349  -7.69969
C    -5.92601  -2.54041  -9.02162
C    -4.40860  -2.32646  -9.12652
C    -3.70952  -1.67972  -7.93487
Cl   -4.67513  -0.15698  -7.53924
Cl   -2.08981  -1.08674  -8.57623
C    -3.47370  -2.50636  -6.68516
C    -3.87468  -3.77523  -6.42319
C    -3.51525  -4.11022  -4.97688
C    -2.41264  -5.10650  -4.87916
N    -1.53371  -5.84602  -4.70982
N    -3.19370  -2.83342  -4.39665
C    -2.60316  -2.84952  -3.07604
C    -2.64716  -1.96150  -5.46122
C    -2.91988  -0.49453  -5.10249
C    -2.10914   0.54134  -5.58640
C    -2.40534   1.87533  -5.29929
C    -3.51483   2.19722  -4.51292
C    -4.32013   1.17026  -4.01157
C    -4.02242  -0.16172  -4.30422
C    -1.12867  -2.23236  -5.61688
C    -0.60943  -3.09824  -6.58758
C     0.74679  -3.43317  -6.61176
C     1.62032  -2.90450  -5.65919
C     1.11994  -2.03522  -4.68511
C    -0.23684  -1.70482  -4.66631
H    -6.22085  -7.15602  -6.84084
H    -4.94377  -7.94956  -5.87594
H    -4.67243  -7.62577  -7.61315
H    -2.01499  -5.42763  -7.52729
H    -0.82925  -6.23303  -9.53120
H    -2.08919  -6.65631 -11.65058
H    -4.55787  -6.28437 -11.70250
H    -5.73472  -5.45620  -9.71053
H    -6.55186  -4.66661  -6.29120
H    -6.63605  -5.20484  -7.96292
H    -6.20702  -2.37355  -6.88978
H    -7.58574  -3.01203  -7.76019
H    -6.41187  -1.57477  -9.22479
H    -6.21697  -3.20835  -9.84787
H    -3.87080  -3.25495  -9.34002
H    -4.22562  -1.66636  -9.98463
H    -4.37058  -4.57490  -4.46268
H    -3.26381  -3.42091  -2.40508
H    -2.52985  -1.82569  -2.68606
H    -1.59732  -3.30875  -3.03386
H    -1.24785   0.30981  -6.21062
H    -1.76444   2.66729  -5.69457
H    -3.74684   3.24094  -4.28713
H    -5.18801   1.40699  -3.39098
H    -4.66129  -0.95753  -3.92343
H    -1.26151  -3.51426  -7.34970
H     1.11796  -4.10970  -7.38550
H     2.68170  -3.16329  -5.67635
H     1.78842  -1.60918  -3.93300
H    -0.60170  -1.02041  -3.90062
