32
Generated by autodE on: 2022-10-26. E = -727.918421 Ha
C    -2.18194  -1.27477   1.69394
N    -0.95834  -1.35823   0.86749
C    -0.50411  -2.65025   0.71143
C     0.37393  -3.04824  -0.28890
N     1.10332  -3.43522  -1.12681
C    -0.39512  -0.25023   0.36817
C    -1.17460   0.99074   0.21125
C    -0.58700   2.23098   0.53762
C    -1.29296   3.42084   0.36837
C    -2.59605   3.40156  -0.14283
C    -3.18425   2.18060  -0.48759
C    -2.48189   0.98697  -0.31677
C     1.01718  -0.23824  -0.06480
C     1.38190   0.38970  -1.26994
C     2.72204   0.47758  -1.65186
C     3.72311  -0.04750  -0.83009
C     3.37231  -0.66690   0.37626
C     2.03532  -0.76790   0.75369
H    -3.05545  -1.60067   1.11563
H    -2.05002  -1.95036   2.54864
H    -2.32470  -0.25478   2.05886
H    -0.90371  -3.39320   1.39819
H     0.42843   2.25334   0.93731
H    -0.82450   4.37018   0.63847
H    -3.14692   4.33504  -0.27895
H    -4.19409   2.15683  -0.90391
H    -2.94338   0.04511  -0.61713
H     0.60458   0.80771  -1.91231
H     2.98432   0.96105  -2.59590
H     4.77229   0.02398  -1.12588
H     4.14893  -1.07225   1.02920
H     1.77407  -1.25875   1.69324
