20
Generated by autodE on: 2022-06-23. E = -457.715312 Ha
C    -3.09025  -0.02927   0.74177
N    -1.80379  -0.28846   0.11651
C    -1.74938  -1.04403  -1.06140
C    -0.60580  -1.26408  -1.72917
C     0.72805  -0.71737  -1.28333
C     0.56921   0.09523  -0.00863
C     1.72388   0.74099   0.63605
N     2.92029   0.57911   0.01677
O     1.64128   1.40397   1.69017
C    -0.64653   0.25545   0.58659
H    -3.61917  -0.97260   0.94981
H    -3.73304   0.59246   0.09609
H    -2.93333   0.49861   1.69074
H    -2.70836  -1.44490  -1.39468
H    -0.64292  -1.86956  -2.63768
H     1.44940  -1.54744  -1.13642
H     1.17618  -0.10368  -2.09162
H     3.74086   1.01267   0.42561
H     3.02660   0.05526  -0.84252
H    -0.73168   0.84662   1.49976
