27
Generated by autodE on: 2022-06-23. E = -706.738912 Ha
C     3.79093   1.64944   0.63166
N     2.50843   1.02895   0.37235
C     2.35938  -0.06481  -0.39065
O     3.27030  -0.68460  -0.94523
C     0.93664  -0.54350  -0.55420
C     0.62545  -1.70342  -1.38354
O     0.06010   0.21418  -0.01392
C    -1.30646  -0.00015   0.09328
C    -1.74383  -1.29239   0.55310
C    -3.22475  -1.54565   0.69832
O    -0.92223  -2.16880   0.87921
C    -2.05639   1.23556   0.04045
C    -1.26810   2.51247  -0.17111
O    -3.29082   1.26650   0.13694
H     3.80324   2.68589   0.26046
H     4.00289   1.66511   1.71191
H     4.57468   1.07777   0.12192
H     1.67597   1.44404   0.78249
H     1.46140  -1.90853  -2.06155
H    -0.31789  -1.51183  -1.92556
H     0.43008  -2.58609  -0.74733
H    -3.75567  -1.36155  -0.24693
H    -3.66524  -0.86802   1.44476
H    -3.36481  -2.58825   1.01464
H    -0.48529   2.62863   0.59545
H    -1.95886   3.36436  -0.12868
H    -0.76061   2.49953  -1.14887
