27
Generated by autodE on: 2022-07-27. E = -706.732065 Ha
C     4.11454  -0.37416   0.48071
N     2.69904  -0.19354   0.23560
C     2.21686   0.37958  -0.87733
O     2.88528   0.79122  -1.82856
C     0.71484   0.52273  -0.92092
C     0.07779   1.34779  -1.95211
O     0.11166  -0.05099   0.04012
C    -1.21499  -0.12024   0.42406
C    -2.27236  -0.41372  -0.51590
C    -1.93929  -0.98659  -1.87982
O    -3.46458  -0.31642  -0.18591
C    -1.29069  -0.16459   1.87379
C    -2.63987  -0.28587   2.53623
O    -0.25977  -0.09506   2.56155
H     4.49970   0.38457   1.18193
H     4.65878  -0.28406  -0.46678
H     4.29671  -1.36928   0.91084
H     2.03735  -0.43716   0.96950
H    -0.89578   1.71994  -1.59986
H     0.75850   2.17195  -2.20659
H    -0.08794   0.77335  -2.88005
H    -2.63573  -1.82129  -2.04824
H    -0.91062  -1.35604  -1.98219
H    -2.13141  -0.23919  -2.66535
H    -3.18086  -1.17592   2.18141
H    -3.27252   0.58078   2.29393
H    -2.48585  -0.34391   3.62227
