47
Generated by autodE on: 2022-06-23. E = -1164.459015 Ha. Imaginary frequency = -242.3 cm-1
C     3.88241  -1.12077   1.21978
N     2.54713  -1.11577   0.66252
C     2.32484  -0.71815  -0.59869
O     3.21463  -0.39277  -1.39574
C     0.86699  -0.67105  -1.00437
C     0.58201  -0.49032  -2.45535
O     0.14777  -1.45333  -0.23285
C    -1.08107  -1.50287   0.40143
C    -2.30856  -1.56333  -0.33398
C    -2.29842  -1.88266  -1.81435
O    -3.41223  -1.38143   0.22193
C    -0.91547  -1.67482   1.81619
C    -2.11769  -1.88391   2.70859
O     0.22851  -1.69280   2.33731
C    -0.73857   1.73677  -0.92477
N    -1.96737   1.71886  -0.42013
C    -3.15106   1.83657  -1.27155
C    -2.16610   1.50326   0.95528
C    -1.12851   1.31420   1.78060
C     0.30113   1.37315   1.33266
C     0.42932   1.50809  -0.17544
C     1.65699   2.12565  -0.75843
N     2.70019   2.29234   0.08555
O     1.71659   2.49644  -1.94123
H     3.81989  -1.35807   2.28912
H     4.52558  -1.86978   0.72857
H     4.36217  -0.13630   1.09899
H     1.73772  -1.38394   1.24412
H    -0.46964  -0.27145  -2.65154
H     1.20999   0.31274  -2.85535
H     0.84967  -1.42612  -2.97743
H    -3.16707  -2.52672  -2.01506
H    -1.38417  -2.38491  -2.15175
H    -2.43876  -0.95948  -2.39854
H    -2.74245  -0.98176   2.75605
H    -1.75574  -2.13100   3.71619
H    -2.76050  -2.69389   2.33355
H    -0.65572   1.97807  -1.98405
H    -3.76394   2.68663  -0.93873
H    -2.84049   1.99141  -2.31082
H    -3.74620   0.91600  -1.19563
H    -3.20701   1.48306   1.27293
H    -1.32568   1.15538   2.84195
H     0.78877   2.23025   1.83494
H     0.83414   0.48428   1.71259
H     2.73341   1.84373   0.99376
H     3.58188   2.59411  -0.31728
