18
Generated by autodE on: 2022-05-31. E = -476.545112 Ha
C     3.14512   0.49662  -0.11603
O     1.95218  -0.29672  -0.10760
C     0.79170   0.36958  -0.00424
O     0.74414   1.58653   0.07833
C    -0.35611  -0.55555  -0.00391
C    -0.20532  -2.03824  -0.06007
N    -1.60042  -0.09620   0.05123
C    -1.96533   1.33910   0.10353
O    -2.58067  -0.90090   0.05949
H     3.23242   1.07393   0.81602
H     3.14414   1.18734  -0.97190
H     3.97699  -0.21197  -0.20201
H     0.84706  -2.33169  -0.10392
H    -0.67988  -2.49973   0.82235
H    -0.73625  -2.43918  -0.94005
H    -3.05885   1.35698   0.09890
H    -1.55671   1.86387  -0.76646
H    -1.56689   1.79334   1.01738
