38
Generated by autodE on: 2022-05-31. E = -1451.787430 Ha. Imaginary frequency = -374.0 cm-1
C     2.35145   1.51095   2.91312
N     2.19017   0.95947   1.58142
C     1.23447   1.42044   0.74992
O     0.51512   2.38689   1.04639
C     1.05443   0.74453  -0.55023
C     1.61043  -0.30964  -1.17652
Cl    2.84507  -1.39479  -0.67435
C     0.90787  -0.42858  -2.53408
O     0.69677   0.97333  -2.80781
C     0.00250   1.23343  -1.55291
C    -1.14621   0.20096  -1.64553
C    -0.54977  -0.88260  -2.30258
O    -0.72441  -2.41312  -0.91027
N    -0.91641  -1.79103   0.21094
C     0.10195  -1.99035   1.24781
C    -1.87155  -0.82170   0.16778
C    -3.20346  -1.19257  -0.44804
C    -1.91157   0.17069   1.28595
O    -1.25247   0.14053   2.30792
O    -2.77739   1.15222   1.01116
C    -2.87434   2.21106   1.97542
H     1.42645   1.39235   3.50012
H     2.59425   2.58403   2.87252
H     3.16692   0.98062   3.41919
H     2.74563   0.15488   1.31102
H     1.46653  -0.93791  -3.32523
H    -0.28946   2.28182  -1.45330
H    -2.15077   0.55762  -1.86307
H    -1.03362  -1.55334  -3.00774
H     0.71517  -2.82593   0.89749
H    -0.38903  -2.25892   2.19116
H     0.72532  -1.11054   1.42356
H    -3.06500  -1.82455  -1.33138
H    -3.79132  -1.75633   0.29724
H    -3.77602  -0.30187  -0.72827
H    -3.61506   2.91302   1.57578
H    -1.90047   2.70607   2.09139
H    -3.20731   1.81816   2.94674
