29
Generated by autodE on: 2022-05-29. E = -766.672150 Ha
C     3.68337  -2.25451  -0.07093
O     2.94082  -1.04063   0.08629
C     1.62064  -1.16373   0.33687
O     1.07710  -2.25331   0.43243
C     1.00459   0.15444   0.45713
C    -0.27308   0.58374   0.26893
C    -1.54411  -0.06897  -0.01781
C    -2.54009   0.65309  -0.71329
C    -3.76525   0.06370  -1.02147
C    -4.03312  -1.24958  -0.62171
C    -3.06346  -1.97011   0.08439
C    -1.83044  -1.39189   0.38171
C    -0.13353   2.13920   0.27117
C     0.59907   2.52370  -1.03075
C     1.85156   2.09336  -0.85166
C     1.85033   1.45125   0.55186
O     0.91428   2.29874   1.23391
H     3.62352  -2.86647   0.84118
H     4.72103  -1.95309  -0.25626
H     3.30044  -2.83598  -0.92256
H    -2.34871   1.67877  -1.03296
H    -4.51689   0.63437  -1.57153
H    -4.99690  -1.70833  -0.85469
H    -3.27077  -2.99278   0.40807
H    -1.07713  -1.95632   0.92638
H    -1.03102   2.70492   0.53937
H     0.13063   2.98264  -1.90048
H     2.70040   2.10369  -1.53436
H     2.80554   1.37252   1.07870
