23
Generated by autodE on: 2022-06-24. E = -351.521382 Ha
C     3.64338  -0.81064   0.60619
C     2.57490  -0.23852   0.00876
C     2.73823   0.68330  -1.17267
C     1.22794  -0.51014   0.50690
C     0.07813  -0.00258  -0.00418
C    -1.23442  -0.30427   0.52957
C    -2.42655   0.15874   0.07553
C    -2.58618   1.08853  -1.09373
C    -3.71216  -0.24606   0.73969
H     4.66198  -0.62509   0.25419
H     3.52145  -1.47976   1.46357
H     2.19743   0.29963  -2.05376
H     3.79719   0.80184  -1.44211
H     2.32125   1.68140  -0.95844
H     1.16342  -1.18528   1.36876
H     0.13415   0.67090  -0.86370
H    -1.25053  -0.98045   1.39296
H    -1.63657   1.37411  -1.56428
H    -3.10577   2.01116  -0.78004
H    -3.22636   0.62504  -1.86513
H    -4.38563  -0.74343   0.01866
H    -3.54613  -0.92674   1.58757
H    -4.25975   0.64112   1.10565
