26
Generated by autodE on: 2022-06-24. E = -760.762010 Ha
C    -5.21917   0.37700   0.43853
N    -3.90043  -0.03269   0.00501
C    -2.78027   0.50218   0.54116
O    -2.80624   1.37266   1.43176
C    -1.52307   0.00013   0.01464
N    -0.29997   0.46535   0.48191
C     0.69412  -0.13397  -0.14322
C     2.12176   0.04283   0.02558
C     2.63849   0.94769   0.97502
C     4.01610   1.09594   1.11289
C     4.89116   0.35062   0.31353
C     4.38196  -0.54862  -0.62911
C     3.00536  -0.70587  -0.77653
O     0.19555  -0.99866  -1.02872
C    -1.24832  -0.95840  -0.97404
O    -1.90776  -1.67912  -1.70928
H    -5.96964  -0.18354  -0.13224
H    -5.37362   0.17712   1.51151
H    -5.38417   1.45396   0.27156
H    -3.80078  -0.73984  -0.71814
H    -0.21496   1.17500   1.20922
H     1.97160   1.53600   1.60811
H     4.41062   1.79813   1.85015
H     5.97072   0.47176   0.42679
H     5.06174  -1.13151  -1.25405
H     2.60557  -1.40590  -1.51097
