51
Generated by autodE on: 2022-06-24. E = -1275.339095 Ha
C    -3.64748   0.86862   2.42295
N    -2.58104   0.91433   1.44751
C    -2.15280  -0.13640   0.74594
O    -2.67577  -1.26280   0.77831
C    -0.88885   0.13039  -0.09537
C    -1.11740  -0.24684  -1.58005
O    -0.75811   0.52037  -2.48333
N    -1.67960  -1.43504  -1.81424
C    -1.71682  -2.01281  -3.14267
N    -0.45852   1.52517  -0.01998
C     0.86623   1.60527   0.62205
C     1.64361   2.82651   0.12487
C     0.72172   1.79274   2.14416
O     1.46727   1.30408   2.96921
O    -0.28870   2.60072   2.46732
C    -0.51420   2.83853   3.86469
C     1.51947   0.23689   0.33449
C     2.08982   0.13493  -1.09075
C     2.00631  -1.26208  -1.65484
C     2.63048  -1.61004  -2.93693
N     3.38640  -0.64859  -3.52552
O     2.48024  -2.71922  -3.49489
C     1.28504  -2.23539  -1.02684
N     0.53528  -2.04214   0.08342
C    -0.04795  -3.15618   0.81251
C     0.32103  -0.70008   0.55446
H    -4.48224   1.52539   2.13109
H    -3.27921   1.19538   3.40784
H    -4.02055  -0.15992   2.50308
H    -2.01001   1.75426   1.34516
H    -2.00224  -1.96214  -1.00504
H    -0.69631  -2.22637  -3.50427
H    -2.19978  -1.33195  -3.85958
H    -2.28332  -2.95137  -3.10713
H    -0.38868   1.87104  -0.97847
H     1.76930   2.78721  -0.96580
H     2.63658   2.86366   0.59491
H     1.10010   3.74810   0.37803
H    -1.39330   3.49030   3.92141
H    -0.70731   1.89022   4.38599
H     0.35784   3.33344   4.31565
H     2.29902   0.00570   1.07023
H     1.56014   0.82497  -1.76587
H     3.13665   0.47894  -1.06148
H     3.82445  -0.85306  -4.41658
H     3.55163   0.25372  -3.09875
H     1.28137  -3.24979  -1.43026
H     0.47412  -3.32423   1.77118
H    -1.10814  -2.96562   1.02264
H     0.03696  -4.06846   0.20731
H     0.11724  -0.76067   1.63204
