31
Generated by autodE on: 2022-07-27. E = -817.560402 Ha
C    -2.71427   0.64704   1.78265
N    -1.77741   0.62628   0.67589
C    -1.31501  -0.53836   0.17590
O    -1.86624  -1.62195   0.45002
C    -0.22663  -0.46236  -0.81872
N     0.76443   0.45081  -0.84062
C     1.38210   1.24405   0.03499
C     2.37175   2.23927  -0.48654
C     1.22517   1.02908   1.46966
O     0.64717   0.08602   1.99521
O     1.86860   1.97402   2.18182
C     1.85984   1.81576   3.60447
C    -0.26495  -1.23942  -2.07612
O     0.51712  -0.94891  -3.00755
N    -1.15783  -2.24002  -2.16600
C    -1.25163  -3.07316  -3.34533
H    -2.28513   0.17280   2.68103
H    -3.64140   0.11472   1.52419
H    -2.96067   1.68979   2.01755
H    -1.27574   1.48358   0.47130
H     1.15892   0.47095  -1.79917
H     2.51981   2.10714  -1.56863
H     2.02233   3.27164  -0.31686
H     3.34384   2.13964   0.01995
H     2.41628   2.67016   4.00739
H     0.82907   1.81979   3.98881
H     2.35031   0.87466   3.89426
H    -1.68985  -2.45438  -1.32322
H    -2.06738  -3.79323  -3.20674
H    -0.31730  -3.63042  -3.52753
H    -1.46247  -2.47153  -4.24341
