51
Generated by autodE on: 2022-06-24. E = -1275.263208 Ha. Imaginary frequency = -395.8 cm-1
C    -4.09389   1.56583   1.97066
N    -3.15336   1.57375   0.86876
C    -2.58532   0.42450   0.42650
O    -3.10945  -0.68498   0.68233
C    -1.42106   0.55496  -0.45614
C    -1.38014  -0.18731  -1.73217
O    -0.72892   0.25271  -2.70769
N    -2.02094  -1.37061  -1.77941
C    -1.88739  -2.27346  -2.90177
N    -0.64816   1.70664  -0.53437
C     0.32156   2.09903   0.34063
C     1.29682   3.10872  -0.19841
C     0.07179   2.11918   1.80706
O    -0.84419   1.57517   2.39648
O     1.04967   2.77654   2.45198
C     0.99074   2.76586   3.88392
C     1.41180   0.19674   0.49819
C     2.12622   0.05068  -0.83443
C     1.90510  -1.31127  -1.46081
C     2.54514  -1.67654  -2.73674
N     3.43666  -0.78794  -3.23761
O     2.27718  -2.72620  -3.35641
C     1.02674  -2.20117  -0.93095
N     0.29751  -1.95466   0.19744
C    -0.62849  -2.94690   0.72927
C     0.43312  -0.74527   0.84510
H    -3.60946   1.28502   2.92255
H    -4.52807   2.56803   2.08062
H    -4.90563   0.85178   1.77631
H    -2.61460   2.42200   0.73446
H    -2.53685  -1.63740  -0.94111
H    -0.83956  -2.32744  -3.23436
H    -2.49941  -1.96055  -3.76547
H    -2.21240  -3.27571  -2.59371
H    -0.34118   1.81976  -1.50790
H     1.41951   2.97992  -1.28306
H     2.27564   3.00123   0.28510
H     0.94376   4.13609  -0.01134
H     0.06391   3.24086   4.23645
H     1.86207   3.33673   4.22515
H     1.03964   1.73491   4.26354
H     1.97096   0.64010   1.32361
H     1.77816   0.82214  -1.54881
H     3.20221   0.25028  -0.69442
H     3.70709   0.05319  -2.74355
H     3.89817  -1.00486  -4.11428
H     0.86188  -3.16942  -1.40250
H    -0.22422  -3.41033   1.64476
H    -1.58795  -2.47046   0.96426
H    -0.79088  -3.73024  -0.02078
H    -0.04899  -0.70347   1.82121
