29
Generated by autodE on: 2022-05-30. E = -766.672195 Ha
C     4.05388  -1.41542  -0.53626
O     3.09751  -0.41214  -0.17807
C     1.84222  -0.83414   0.08113
O     1.52770  -2.01262   0.01801
C     0.98656   0.29930   0.41945
C    -0.36185   0.47226   0.35627
C    -1.49551  -0.38697   0.04137
C    -1.48409  -1.78046   0.26392
C    -2.59805  -2.55659  -0.05200
C    -3.74102  -1.96607  -0.60251
C    -3.76850  -0.58549  -0.82516
C    -2.66403   0.19863  -0.49553
C    -0.53884   2.00751   0.57980
C     0.00132   2.70864  -0.68328
C     1.32472   2.53098  -0.62672
C     1.55838   1.72012   0.66551
O     0.52464   2.25268   1.50703
H     3.74694  -1.93325  -1.45694
H     4.16406  -2.15204   0.27328
H     5.00084  -0.88728  -0.69848
H    -0.59546  -2.24285   0.68755
H    -2.57511  -3.63283   0.13445
H    -4.61024  -2.57921  -0.85170
H    -4.65725  -0.11581  -1.25255
H    -2.70288   1.27445  -0.67471
H    -1.50918   2.33008   0.96891
H    -0.61374   3.17164  -1.45388
H     2.10022   2.81144  -1.33844
H     2.54661   1.77408   1.13091
