13
Generated by autodE on: 2022-05-30. E = -340.857049 Ha
C     2.48761   1.17033   0.59149
N     1.55928   0.45924   0.08416
C     0.72221  -0.23629  -0.47319
C    -0.53675  -0.73518   0.12262
O    -0.50479  -1.74307   0.83982
N    -1.66587  -0.10000  -0.24483
C    -1.71284   1.13039  -1.01223
H     2.49372   2.25103   0.41983
H     3.26558   0.68975   1.19275
H    -2.52445  -0.46139   0.16414
H    -2.67081   1.19123  -1.54528
H    -1.60710   2.02659  -0.37883
H    -0.90526   1.13959  -1.75958
