49
Generated by autodE on: 2022-06-24. E = -1162.654274 Ha
C    -3.49934   3.26941   1.89534
N    -2.79156   2.47694   0.90941
C    -1.46252   2.33249   0.95326
O    -0.74145   2.93463   1.76179
C    -0.84470   1.38208  -0.09993
C    -1.11971   1.94095  -1.50793
N     0.60999   1.34388   0.12864
C     1.13903  -0.01764   0.19090
C     1.42976  -0.40594   1.58679
N     1.68326  -0.65590   2.69121
C     2.40779  -0.18970  -0.65901
C     2.41762   0.35251  -1.95249
C     3.52215   0.17708  -2.78695
C     4.63852  -0.53710  -2.33698
C     4.63894  -1.07016  -1.04641
C     3.52909  -0.89742  -0.21228
C    -0.05454  -0.87183  -0.38774
N    -0.08199  -2.27735  -0.08777
C     0.90406  -3.14501  -0.71045
C    -0.75375  -2.70888   1.04835
C    -1.52242  -1.91779   1.81948
C    -1.66059  -0.44836   1.55045
C    -1.31929  -0.10637   0.07455
C    -2.56556  -0.43828  -0.75893
N    -2.51611  -1.52618  -1.53494
O    -3.58246   0.26959  -0.68513
H    -3.41923   2.83114   2.90492
H    -4.55966   3.32159   1.61783
H    -3.09416   4.29130   1.93828
H    -3.30692   1.81258   0.31938
H    -2.19000   2.06852  -1.70728
H    -0.70233   1.26924  -2.27214
H    -0.62483   2.91777  -1.60489
H     0.83580   1.90268   0.95115
H     1.55506   0.92110  -2.30174
H     3.51254   0.60359  -3.79278
H     5.50467  -0.67210  -2.98896
H     5.50647  -1.62416  -0.68040
H     3.54524  -1.32417   0.79186
H     0.03729  -0.76174  -1.47759
H     1.86306  -3.16726  -0.16474
H     0.51228  -4.17191  -0.76135
H     1.10134  -2.79878  -1.73520
H    -0.64988  -3.77776   1.25045
H    -2.04920  -2.35536   2.66910
H    -1.01117   0.14049   2.22069
H    -2.68357  -0.10942   1.76362
H    -3.35485  -1.80743  -2.03478
H    -1.73444  -2.17491  -1.46983
