20
Generated by autodE on: 2022-06-24. E = -457.715333 Ha
C    -2.96484   1.11621   0.22360
N    -1.81426   0.24262   0.05910
C    -1.98778  -1.14583   0.12078
C    -0.95889  -2.00740   0.08762
C     0.48128  -1.56921  -0.01592
C     0.57315  -0.05197  -0.04160
C     1.87243   0.63583  -0.11838
N     2.96778  -0.16328  -0.16834
O     1.99357   1.87781  -0.13638
C    -0.54262   0.72938   0.00156
H    -3.77388   0.81769  -0.46017
H    -3.35429   1.08514   1.25566
H    -2.67491   2.14852  -0.00997
H    -3.02562  -1.47568   0.19348
H    -1.17574  -3.07718   0.13133
H     0.94854  -2.00996  -0.92066
H     1.06688  -1.98729   0.82834
H     2.90939  -1.17331  -0.16599
H     3.88307   0.26968  -0.22443
H    -0.44664   1.81626  -0.01504
