29
Generated by autodE on: 2022-06-24. E = -704.905814 Ha
C    -4.98721  -0.06243   1.52401
N    -4.04431   0.11723   0.43796
C    -2.71874   0.01788   0.63947
O    -2.23834  -0.22155   1.76793
C    -1.81520   0.19655  -0.52067
C    -2.22697   0.42533  -1.93117
N    -0.54693   0.09923  -0.15062
C     0.65276   0.22793  -0.77124
C     0.74483   0.76011  -2.07551
N     0.91208   1.21931  -3.13870
C     1.87910  -0.13515  -0.05246
C     3.14117   0.25935  -0.54924
C     4.31360  -0.06515   0.13127
C     4.26586  -0.78845   1.32810
C     3.02362  -1.19348   1.82717
C     1.84643  -0.88294   1.14609
H    -4.90835  -1.07140   1.95946
H    -6.00352   0.07699   1.13688
H    -4.81032   0.66732   2.32999
H    -4.40079   0.32051  -0.48804
H    -3.29254   0.21242  -2.08225
H    -1.66002  -0.23423  -2.60716
H    -2.04153   1.46393  -2.25349
H    -0.50521  -0.11643   0.86008
H     3.20031   0.83503  -1.47498
H     5.27498   0.25689  -0.27635
H     5.18534  -1.03999   1.86110
H     2.96686  -1.77225   2.75228
H     0.90187  -1.25256   1.55140
