49
Generated by autodE on: 2022-06-24. E = -1162.594583 Ha. Imaginary frequency = -323.6 cm-1
C    -3.58840   3.37282   0.97773
N    -2.56790   2.69304   0.20085
C    -1.41426   2.33037   0.79185
O    -1.11052   2.68523   1.94176
C    -0.48194   1.43241   0.00738
C    -0.35179   1.63464  -1.47300
N     0.59514   1.11387   0.77434
C     1.46883   0.05622   0.51980
C     1.82599  -0.68347   1.66931
N     2.05657  -1.34832   2.60464
C     2.41217   0.08884  -0.61491
C     2.75684   1.30804  -1.23367
C     3.65341   1.33978  -2.30237
C     4.24683   0.16112  -2.76669
C     3.93891  -1.05085  -2.13828
C     3.03273  -1.08918  -1.07836
C    -0.33889  -1.48168  -0.13271
N    -0.18476  -2.60246   0.63271
C     0.84131  -3.58146   0.30284
C    -1.03210  -2.83801   1.71710
C    -1.94463  -1.93884   2.12184
C    -2.00301  -0.57153   1.50086
C    -1.43888  -0.58255   0.08629
C    -2.41565  -0.40426  -1.01926
N    -2.13290  -0.92773  -2.23319
O    -3.48691   0.21643  -0.85118
H    -3.98855   2.72976   1.78085
H    -4.41125   3.66014   0.31112
H    -3.17495   4.27836   1.44229
H    -2.91059   2.07257  -0.53550
H    -1.33059   1.76939  -1.94589
H     0.15469   0.79628  -1.96234
H     0.23257   2.54961  -1.66521
H     0.41095   1.31668   1.75906
H     2.33024   2.23775  -0.85710
H     3.90104   2.29765  -2.76680
H     4.94951   0.18772  -3.60264
H     4.40334  -1.97888  -2.48088
H     2.79855  -2.04169  -0.60437
H     0.14165  -1.54933  -1.10941
H     1.78414  -3.38156   0.83301
H     0.48924  -4.58405   0.58111
H     1.03112  -3.56585  -0.77916
H    -0.91907  -3.82081   2.17701
H    -2.61876  -2.19346   2.94248
H    -1.43354   0.13207   2.13849
H    -3.03058  -0.18333   1.47627
H    -2.74234  -0.68731  -3.00797
H    -1.28798  -1.44813  -2.42780
