48
Generated by autodE on: 2022-10-07. E = -1012.545657 Ha
C    -2.39158   2.34910   2.19075
N    -0.97184   2.08682   1.95792
C    -0.64102   0.81624   1.37677
N    -1.15317  -0.29488   2.10197
N     0.89867   0.71086   1.43594
C     1.50472   0.69672   0.04308
C     1.92708   2.11897  -0.31942
C     2.65986  -0.30803   0.01425
C     2.37646  -1.66402   0.24675
C     3.39680  -2.61452   0.23372
C     4.71591  -2.22339  -0.02111
C     5.00363  -0.87783  -0.25637
C     3.98158   0.07738  -0.23738
N     0.37554   0.16910  -0.71832
C     0.54345   0.10516  -2.15973
C    -0.90051   0.63086  -0.20586
C    -1.26475   1.95165  -0.79255
N    -1.49400   2.95409  -1.32932
C    -2.02502  -0.36536  -0.51863
C    -3.35532   0.05638  -0.63787
C    -4.37365  -0.87501  -0.85833
C    -4.07030  -2.23443  -0.96706
C    -2.74223  -2.65789  -0.85457
C    -1.72402  -1.73005  -0.62981
H    -2.81334   1.59086   2.86331
H    -3.00286   2.37414   1.27270
H    -2.48452   3.32502   2.68612
H    -0.55558   2.85313   1.42782
H    -1.22327  -0.06597   3.09405
H    -2.07082  -0.58013   1.76615
H     1.28882   1.47019   2.00882
H     1.10376  -0.17482   1.91439
H     2.34488   2.13354  -1.33367
H     2.69115   2.48698   0.37847
H     1.07637   2.81112  -0.29441
H     1.34786  -1.97746   0.43528
H     3.16066  -3.66502   0.41737
H     5.51600  -2.96707  -0.03685
H     6.02991  -0.56270  -0.45768
H     4.23239   1.12045  -0.42532
H     0.52422   1.09876  -2.64419
H    -0.25593  -0.50813  -2.59655
H     1.50467  -0.37562  -2.38708
H    -3.60613   1.11531  -0.55886
H    -5.40673  -0.53237  -0.94842
H    -4.86587  -2.96234  -1.14168
H    -2.49495  -3.71824  -0.94202
H    -0.68947  -2.05973  -0.53988
