35
Generated by autodE on: 2022-10-13. E = -767.258932 Ha
C    -0.29006  -1.11968   1.52677
C     0.71052  -0.30280   0.79437
C     2.00278  -0.90819   0.42909
C     2.73964  -1.65004   1.37320
C     3.94841  -2.24657   1.01594
C     4.43123  -2.13423  -0.29247
C     3.69712  -1.41782  -1.24345
C     2.49492  -0.80710  -0.88825
N     0.40785   0.93788   0.42180
C     1.45047   1.91104   0.05171
C    -0.92456   1.39536   0.36296
C    -1.18300   2.67975   0.86468
N    -1.42895   3.75190   1.27801
C    -1.98510   0.64237  -0.29399
C    -1.72413  -0.43897  -1.17087
C    -2.76045  -1.09493  -1.83687
C    -4.09200  -0.70871  -1.65280
C    -4.36853   0.35712  -0.78679
C    -3.34058   1.01723  -0.11761
H     0.21963  -1.84484   2.17467
H    -0.92404  -1.69816   0.82976
H    -0.96248  -0.47724   2.11523
H     2.37506  -1.73910   2.39817
H     4.51693  -2.80364   1.76401
H     5.37439  -2.60948  -0.57155
H     4.05916  -1.33901  -2.27100
H     1.91979  -0.26604  -1.64125
H     2.43081   1.57547   0.40206
H     1.46121   2.06398  -1.03534
H     1.20611   2.86391   0.53919
H    -0.69653  -0.75640  -1.35721
H    -2.51839  -1.91999  -2.51199
H    -4.89992  -1.22929  -2.17151
H    -5.40161   0.67593  -0.62447
H    -3.58293   1.84205   0.55630
