13
Generated by autodE on: 2022-10-07. E = -245.298512 Ha
C     1.94497  -0.19836  -0.29674
N     0.78153   0.47724   0.25089
C    -0.47349   0.05572   0.07835
N    -1.48847   0.76218   0.58615
N    -0.72088  -1.06282  -0.60640
H     1.91207  -0.23219  -1.39762
H     2.03157  -1.22673   0.08872
H     2.83887   0.35868   0.00541
H     0.91762   1.33826   0.77103
H    -2.43993   0.41895   0.51496
H    -1.30834   1.58759   1.14715
H    -1.67491  -1.38366  -0.73057
H     0.03029  -1.61546  -1.00191
