48
Generated by autodE on: 2022-10-07. E = -1012.506881 Ha. Imaginary frequency = -393.7 cm-1
C    -2.38167   2.29669   2.31825
N    -0.97800   1.97358   2.10922
C    -0.59597   0.72807   1.76858
N    -1.35072  -0.33746   2.11181
N     0.78837   0.49034   1.58004
C     1.49294   0.63673  -0.16756
C     1.83354   2.10884  -0.18206
C     2.66673  -0.29829  -0.13269
C     2.43771  -1.66678   0.10476
C     3.50068  -2.56480   0.16259
C     4.81150  -2.10914  -0.02193
C     5.04889  -0.75275  -0.25587
C     3.98447   0.15130  -0.30392
N     0.41563   0.17466  -0.91838
C     0.68994  -0.38848  -2.25007
C    -0.90117   0.67731  -0.68997
C    -1.18565   2.04294  -0.89638
N    -1.43655   3.18800  -0.96182
C    -2.00626  -0.27496  -0.75988
C    -3.34993   0.15663  -0.86657
C    -4.40608  -0.75086  -0.83078
C    -4.16593  -2.12588  -0.70094
C    -2.84510  -2.57167  -0.60380
C    -1.78161  -1.66616  -0.62774
H    -2.77041   1.76366   3.19895
H    -2.99891   2.04144   1.44356
H    -2.46119   3.37391   2.50297
H    -0.40208   2.72841   1.74632
H    -2.35963  -0.22141   2.03533
H    -1.04163  -1.23901   1.75328
H     1.36625   1.13930   2.12537
H     1.04029  -0.46524   1.84971
H     2.27633   2.32436  -1.16800
H     2.56582   2.36841   0.59329
H     0.95243   2.74721  -0.07826
H     1.41489  -2.02436   0.24594
H     3.30794  -3.62291   0.35171
H     5.64662  -2.81206   0.02025
H     6.06914  -0.39159  -0.40201
H     4.19123   1.20407  -0.49275
H     0.83384   0.41971  -2.98854
H    -0.16321  -1.00070  -2.56676
H     1.58407  -1.02105  -2.24384
H    -3.56286   1.22254  -0.97284
H    -5.43163  -0.38083  -0.91038
H    -4.99638  -2.83492  -0.67686
H    -2.63375  -3.63930  -0.50101
H    -0.76039  -2.03775  -0.53380
