37
Generated by autodE on: 2022-07-27. E = -1045.515765 Ha
C    -3.49428   0.70909  -3.45797
N    -2.42526   0.22058  -2.60368
C    -2.16090   0.76496  -1.41501
O    -2.80233   1.68284  -0.89273
C    -1.04455   0.13976  -0.60813
C    -1.45843  -0.91201   0.39363
O    -0.76795  -1.91384   0.58052
N    -2.65811  -0.70515   0.95579
C    -3.17464  -1.60224   1.97115
N     0.19920   0.48568  -0.80201
C     0.51002   1.35173  -1.97107
C     1.24079   0.19834   0.11033
C     2.47742  -0.23481  -0.50130
O     2.58163  -0.52094  -1.69506
O     3.53925  -0.31187   0.32865
C     4.75474  -0.79907  -0.24284
C     0.93300   0.37936   1.51243
O    -0.14603   0.79219   1.94195
O     1.93944   0.07701   2.35576
C     1.68539   0.29152   3.74623
H    -4.36017   0.98786  -2.84303
H    -3.17607   1.59237  -4.03508
H    -3.78539  -0.08567  -4.15556
H    -1.79495  -0.49344  -2.96023
H    -3.10316   0.19924   0.81764
H    -4.21269  -1.32760   2.19315
H    -3.14515  -2.64157   1.61495
H    -2.57992  -1.53833   2.89762
H     1.51346   1.76282  -1.84889
H    -0.21352   2.17653  -1.98901
H     0.44947   0.77122  -2.89754
H     4.62121  -1.81107  -0.65399
H     5.11151  -0.13244  -1.04236
H     5.48382  -0.82244   0.57651
H     1.47647   1.35211   3.95107
H     0.83382  -0.31511   4.08870
H     2.59949  -0.01632   4.26855
