37
Generated by autodE on: 2022-06-25. E = -1045.511316 Ha
C     3.30591  -0.85030  -2.64401
N     2.85039  -0.29457  -1.38878
C     1.53423  -0.16226  -1.12267
O     0.66432  -0.57761  -1.90944
C     1.19987   0.56122   0.12853
C     2.25048   0.92019   1.11334
O     3.41122   1.23492   0.78785
N     1.89393   0.81169   2.41001
C     2.81036   1.15007   3.48071
N    -0.09358   0.91104   0.36782
C    -0.36967   2.22413   1.00096
C    -1.13532   0.13803  -0.00094
C    -2.47479   0.72463  -0.19947
O    -2.69914   1.82279  -0.68163
O    -3.44555  -0.09560   0.22311
C    -4.79515   0.33159  -0.00494
C    -0.93882  -1.33163  -0.08303
O    -0.13873  -1.95377   0.59316
O    -1.77758  -1.91032  -0.94210
C    -1.68407  -3.33538  -1.06709
H     3.14077  -0.16096  -3.49041
H     4.38038  -1.06173  -2.57151
H     2.77128  -1.78548  -2.86504
H     3.49290   0.22753  -0.79086
H     0.97966   0.44102   2.64501
H     3.68934   0.48522   3.48281
H     3.16921   2.18602   3.37853
H     2.28607   1.04730   4.43841
H    -1.03309   2.08903   1.86407
H    -0.85558   2.86088   0.25526
H     0.57115   2.68876   1.30138
H    -5.43360  -0.47474   0.37390
H    -5.00108   1.26612   0.53682
H    -4.97386   0.48559  -1.07917
H    -2.44266  -3.62326  -1.80386
H    -0.68220  -3.61938  -1.42064
H    -1.88563  -3.82435  -0.10314
