57
Generated by autodE on: 2022-06-25. E = -1503.196864 Ha. Imaginary frequency = -177.6 cm-1
C    -3.91214   0.87042  -2.76807
N    -3.15508   0.76680  -1.53440
C    -1.81784   0.93321  -1.52940
O    -1.20297   1.30624  -2.53193
C    -1.08049   0.55862  -0.24239
C    -2.04820   0.31728   0.93489
O    -2.70088  -0.71556   1.12153
N    -2.31685   1.45699   1.60575
C    -3.14684   1.43247   2.79327
N     0.02962   1.33148   0.03904
C     0.15843   2.66996  -0.58651
C     1.11919   0.95673   0.89353
C     2.42169   1.18953   0.31270
O     2.62122   1.43169  -0.88216
O     3.47520   1.13691   1.17032
C     4.77183   1.24059   0.58802
C     0.88075   0.27316   2.12327
O    -0.23497  -0.07229   2.54205
O     1.98508  -0.07047   2.84884
C     1.75336  -0.87700   3.99921
C     0.48746  -1.10491  -1.92439
N     1.77662  -1.26269  -1.73479
C     2.74696  -0.94937  -2.78566
C     2.27679  -1.78209  -0.51999
C     1.43702  -2.20965   0.42953
C    -0.05247  -2.22602   0.25860
C    -0.51928  -1.42357  -0.95735
C    -1.75622  -1.92605  -1.67895
N    -2.67003  -2.56737  -0.92138
O    -1.87820  -1.81485  -2.90735
H    -3.73912   1.84480  -3.24683
H    -3.62340   0.07913  -3.47818
H    -4.97965   0.77277  -2.53607
H    -3.60236   0.31167  -0.74500
H    -1.63053   2.20047   1.53106
H    -3.33654   2.46291   3.11908
H    -4.10781   0.94532   2.57774
H    -2.65578   0.88094   3.61314
H     0.73525   3.29659   0.10498
H    -0.83357   3.12388  -0.70085
H     0.66276   2.65317  -1.55614
H     4.96221   0.41434  -0.11516
H     4.89963   2.19574   0.05651
H     5.48280   1.18251   1.42223
H     1.10083  -0.36925   4.72598
H     1.29759  -1.84266   3.72965
H     2.73998  -1.04984   4.44857
H     0.18207  -0.72415  -2.89675
H     3.51639  -0.28451  -2.37776
H     2.23331  -0.45493  -3.61711
H     3.21268  -1.88204  -3.13618
H     3.36180  -1.78383  -0.43082
H     1.85293  -2.60434   1.35831
H    -0.37426  -3.27973   0.15366
H    -0.52873  -1.87545   1.18406
H    -3.53259  -2.82477  -1.39382
H    -2.74436  -2.25884   0.04995
