73
Generated by autodE on: 2022-06-13. E = -1874.919942 Ha
C    -5.23933   3.13523   3.30099
N    -6.16677   2.02459   3.36452
C    -6.37578   1.20646   2.32331
O    -5.69258   1.20001   1.29779
C    -7.55092   0.21726   2.51832
C    -7.00533  -1.22186   2.74022
C    -7.79565  -2.10963   3.65051
O    -6.01498  -1.59491   2.14290
O    -8.34584   0.59861   3.62283
C    -9.61210   1.12568   3.17478
C   -10.71022   0.64361   4.13863
O   -11.88020   1.00023   3.96885
N   -10.31247  -0.12210   5.15724
C   -11.26867  -0.74935   6.04760
C    -9.50266   2.65993   3.21237
C    -9.93970   3.38281   4.32944
C    -9.73586   4.76397   4.41041
C    -9.08506   5.44137   3.37700
C    -8.63571   4.72471   2.26268
C    -8.84270   3.34697   2.18284
C    -9.74035   0.54838   1.75224
C    -8.52190   0.15638   1.33413
C    -7.98096  -0.34272   0.01338
C    -8.52540  -1.69932  -0.41092
C    -8.09307  -2.21928  -1.75291
O    -9.21882  -2.36977   0.34041
C    -7.81531   0.74811  -1.08363
C    -9.01591   1.21068  -1.90912
C   -10.24343   1.63677  -1.10696
C   -10.99231   0.42801  -0.52306
C   -11.06916   0.33962   1.03201
C   -12.18857   1.32727   1.40316
O   -13.35895   1.01377   1.47105
O   -11.74143   2.57131   1.47579
C   -12.66696   3.59402   1.86338
C   -11.57299  -1.06364   1.45271
O   -11.33424  -1.57680   2.52531
O   -12.29944  -1.65132   0.51155
C   -12.76915  -2.97958   0.79175
H    -5.69119   4.00569   2.79458
H    -4.33853   2.83984   2.74743
H    -4.95352   3.43075   4.31878
H    -6.87430   2.01428   4.09323
H    -7.44004  -3.14203   3.54297
H    -7.65494  -1.78384   4.69407
H    -8.86791  -2.04166   3.41983
H    -9.34220  -0.41592   5.16494
H   -11.87942  -1.49404   5.51073
H   -10.72701  -1.24995   6.85923
H   -11.94661   0.00112   6.47962
H   -10.44933   2.87803   5.15062
H   -10.08918   5.30971   5.28840
H    -8.92761   6.52064   3.43844
H    -8.12446   5.24021   1.44655
H    -8.49504   2.81160   1.29999
H    -6.93285  -0.61379   0.22512
H    -8.34367  -3.28453  -1.83754
H    -8.61339  -1.66030  -2.54706
H    -7.01389  -2.06349  -1.90222
H    -7.38057   1.61615  -0.56800
H    -7.03629   0.39354  -1.77574
H    -8.66879   2.05777  -2.52379
H    -9.31695   0.42434  -2.62242
H    -9.94912   2.34295  -0.31824
H   -10.92623   2.19225  -1.76715
H   -10.55626  -0.50443  -0.89570
H   -12.02786   0.40827  -0.88514
H   -13.07829   3.36534   2.85638
H   -13.48217   3.67463   1.13045
H   -12.08750   4.52358   1.89652
H   -13.40342  -2.98110   1.68917
H   -13.34856  -3.28405  -0.08707
H   -11.91397  -3.65427   0.93906
