36
Generated by autodE on: 2022-07-27. E = -953.953938 Ha
C    -3.12125  -3.00681   1.83872
N    -2.02579  -2.27744   1.23322
C    -2.09417  -0.94664   1.04631
O    -3.06216  -0.26315   1.40484
C    -0.92438  -0.30781   0.37116
O    -0.02611  -1.14966  -0.03605
C     1.19193  -1.08798  -0.59565
C     1.70133  -2.35550  -1.05922
C     0.81884  -3.57580  -0.90421
O     2.83352  -2.44830  -1.55631
C     1.99991   0.16026  -0.64552
O     2.60840   0.50274  -1.66723
N     2.05925   0.87227   0.49914
C     2.62199   2.20872   0.53009
C    -0.87572   1.12979   0.13006
C    -1.19156   2.03757   1.15989
C    -1.13957   3.41017   0.92162
C    -0.79773   3.89227  -0.34580
C    -0.50383   2.99518  -1.37996
C    -0.53164   1.62330  -1.14564
H    -4.05706  -2.85725   1.27724
H    -2.87524  -4.07520   1.84210
H    -3.29457  -2.67817   2.87604
H    -1.20442  -2.78207   0.91949
H     1.29464  -4.41983  -1.41980
H     0.70900  -3.82931   0.16381
H    -0.18954  -3.40866  -1.30992
H     1.53015   0.55944   1.30624
H     2.36527   2.67854   1.48705
H     2.21288   2.81985  -0.28952
H     3.71858   2.18908   0.42726
H    -1.45401   1.66072   2.14804
H    -1.36658   4.10779   1.73054
H    -0.75996   4.96823  -0.52984
H    -0.24562   3.36792  -2.37327
H    -0.29735   0.93209  -1.95651
