46
Generated by autodE on: 2022-10-21. E = -997.861183 Ha
C    -0.87667   3.55512   0.74425
O    -0.56711   2.40594  -0.02755
C    -0.06468   1.27131   0.67015
O     1.13920   1.61948   1.32535
C     2.21141   2.03970   0.49198
C    -1.07877   0.83771   1.75982
C    -1.20323  -0.63957   2.13515
C    -0.03036  -1.27495   2.88304
C     1.32371  -1.27926   2.17357
C     1.35433  -1.84996   0.73547
C     2.83189  -1.96674   0.27669
C     0.77663  -3.20836   0.77273
N     0.33102  -4.27911   0.82659
C     0.60596  -1.05509  -0.33147
C     0.12817   0.21275  -0.40480
C    -0.37319   0.41862  -1.82861
C     0.45728   1.44513  -2.61424
C    -1.90192   0.69644  -1.80935
C    -2.45872   1.71267  -2.75815
O    -2.61300   0.05051  -1.06024
N    -0.20866  -0.87889  -2.50631
C     0.35438  -1.65859  -1.65321
H    -1.80639   3.42811   1.32308
H    -1.01635   4.38045   0.03229
H    -0.05703   3.81294   1.43326
H     3.05659   2.26108   1.15756
H     1.95177   2.94825  -0.07413
H     2.51109   1.25076  -0.21672
H    -0.85156   1.43596   2.65630
H    -2.06245   1.16110   1.39245
H    -2.09042  -0.72125   2.78445
H    -1.44894  -1.22523   1.23594
H     0.10555  -0.75678   3.84767
H    -0.31014  -2.31266   3.13209
H     2.02999  -1.87876   2.76819
H     1.72993  -0.26440   2.11742
H     2.90659  -2.37347  -0.74164
H     3.39367  -2.61855   0.96116
H     3.27987  -0.96303   0.29002
H     0.14965   1.45138  -3.66814
H     1.51739   1.15703  -2.56872
H     0.34769   2.44993  -2.19538
H    -2.01314   2.69905  -2.56029
H    -2.19472   1.44078  -3.79256
H    -3.54962   1.76311  -2.64931
H     0.61449  -2.69262  -1.90587
