14
Generated by autodE on: 2022-10-21. E = -324.799907 Ha
C    -2.09556   1.36235   0.45283
N    -1.33629   0.49538   0.10106
C    -0.40770  -0.38591  -0.11143
C    -0.75789  -1.80963  -0.44302
C     0.97268   0.10815   0.01665
C     2.07089  -0.89584  -0.22221
O     1.21385   1.28198   0.30873
H    -2.58768   2.09730  -0.20086
H    -1.84799  -1.93855  -0.48071
H    -0.34134  -2.10571  -1.41922
H    -0.35284  -2.50435   0.31081
H     1.98153  -1.74214   0.47786
H     1.99538  -1.31437  -1.23891
H     3.04732  -0.41118  -0.09357
