46
Generated by autodE on: 2022-10-21. E = -997.722423 Ha. Imaginary frequency = -250.6 cm-1
C    -1.83778   2.99247   0.74181
O    -1.02155   1.96487   0.20013
C     0.05182   1.50896   1.00172
O     0.98583   2.54074   1.23454
C     1.55317   3.12835   0.07284
C    -0.41020   1.02544   2.39243
C    -1.27933  -0.24398   2.33251
C    -0.64075  -1.52052   2.91381
C     0.79988  -1.88566   2.53650
C     1.13815  -2.12454   1.03212
C     2.56948  -2.68837   0.91044
C     0.18260  -3.09586   0.46370
N    -0.57392  -3.86189   0.02984
C     0.97611  -0.83790   0.30017
C     0.64777   0.35053   0.28224
C     0.09022   0.47234  -2.54934
C     0.66019   1.69712  -3.20166
C    -1.34022   0.32229  -2.19068
C    -2.24516   1.48530  -2.50100
O    -1.77837  -0.73017  -1.72221
N     0.77837  -0.63531  -2.48750
C     1.21853  -1.58535  -1.88720
H    -2.39296   3.42974  -0.09960
H    -2.56194   2.59902   1.47484
H    -1.23551   3.78273   1.21731
H     0.79878   3.66668  -0.52329
H     2.31348   3.84279   0.41709
H     2.03508   2.36834  -0.56573
H    -0.94231   1.85478   2.88041
H     0.50209   0.85929   2.98270
H    -2.21366  -0.07041   2.88922
H    -1.59026  -0.42347   1.29180
H    -0.64514  -1.43831   4.01418
H    -1.30048  -2.37247   2.67682
H     1.50053  -1.10851   2.87713
H     1.06795  -2.80774   3.07637
H     2.85227  -2.83366  -0.14055
H     2.64427  -3.64957   1.43849
H     3.26871  -1.97448   1.36877
H     0.24296   1.84895  -4.21185
H     1.75182   1.61116  -3.28802
H     0.42982   2.59386  -2.61084
H    -1.78870   2.45104  -2.25443
H    -2.45117   1.48274  -3.58586
H    -3.19331   1.36643  -1.96088
H     1.42774  -2.60473  -2.23003
