21
Generated by autodE on: 2022-07-27. E = -570.057018 Ha
C     2.36622   1.39036   2.04458
N     1.64804   0.87640   0.89591
C     0.49510   0.20470   1.04702
O     0.03859  -0.09491   2.15812
C    -0.22553  -0.15989  -0.22405
C    -0.19954   0.75332  -1.40451
C    -1.33766   0.79694  -2.38359
O     0.76015   1.50893  -1.55639
N    -0.94257  -1.28595  -0.26391
C    -0.95147  -2.27646   0.84698
O    -1.64068  -1.62899  -1.24850
H     3.28952   1.87066   1.69863
H     1.76794   2.12933   2.60364
H     2.62775   0.57676   2.73770
H     1.85634   1.21649  -0.04295
H    -2.31156   0.64488  -1.89956
H    -1.29601   1.76478  -2.90230
H    -1.21630  -0.01301  -3.11963
H    -1.22994  -3.22376   0.37580
H     0.02700  -2.33978   1.32906
H    -1.70675  -1.97108   1.58026
