44
Generated by autodE on: 2022-06-20. E = -921.563187 Ha. Imaginary frequency = -439.9 cm-1
C     0.62117   2.41659   1.65683
N    -0.12550   1.88626   0.53812
C    -0.97967   0.85753   0.68908
O    -1.16463   0.32874   1.79873
C    -1.62126   0.35064  -0.56129
C    -1.55175   1.08681  -1.83038
C    -2.52512   0.80255  -2.95071
O    -0.71720   1.99244  -2.01459
N    -2.46212  -0.73022  -0.49669
C    -2.93079  -1.40303   0.70853
O    -2.42538  -1.51425  -1.55059
C    -0.83435  -2.28356  -1.71059
C     0.22786  -1.39039  -1.37580
C     0.92285  -0.61302  -2.45752
C     0.80625  -1.47384  -0.06561
C     1.87123  -0.74202   0.38068
C     2.36711  -0.82429   1.72894
C     3.32787  -0.04246   2.29327
C     4.04724   1.06151   1.57450
C     3.72471  -0.22941   3.72864
H    -0.03329   2.94848   2.36858
H     1.13185   1.61326   2.20838
H     1.37228   3.12148   1.27913
H    -0.01639   2.25008  -0.41210
H    -3.49348   0.42324  -2.60285
H    -2.65889   1.74024  -3.50853
H    -2.09779   0.05546  -3.63616
H    -2.13204  -2.01813   1.15262
H    -3.27580  -0.67427   1.44565
H    -3.75789  -2.05227   0.39353
H    -0.99474  -3.12098  -1.02590
H    -0.95982  -2.53402  -2.76626
H     1.11976   0.42718  -2.15842
H     1.89958  -1.07200  -2.69157
H     0.32585  -0.59180  -3.37933
H     0.32049  -2.15838   0.63864
H     2.34880  -0.03797  -0.30435
H     1.89055  -1.57796   2.36689
H     3.70270   1.21637   0.54428
H     3.92349   2.01194   2.12258
H     5.13323   0.86104   1.55044
H     3.54132   0.69419   4.30694
H     3.17751  -1.05435   4.20767
H     4.80784  -0.43121   3.81290
