56
Generated by autodE on: 2022-06-23. E = -1246.121013 Ha
C    -0.92450  -2.97501   1.44112
C    -0.70310  -1.48813   1.57115
O    -0.18826  -1.02213   2.57403
C    -1.06480  -0.61851   0.34503
C    -2.47183  -0.97759  -0.14925
C    -2.72121  -1.16216  -1.51528
C    -4.00301  -1.48085  -1.97404
C    -5.05554  -1.63586  -1.06815
C    -4.81341  -1.46859   0.29921
C    -3.53359  -1.14174   0.75350
N    -0.04905  -0.93629  -0.67419
C     1.04190   0.04856  -0.78998
C     0.96664   0.72859  -2.16430
C     2.41151  -0.61572  -0.57154
C     2.63986  -1.40065   0.57373
C     3.87377  -2.01260   0.80134
C     4.91837  -1.85657  -0.11534
C     4.70875  -1.08100  -1.25683
C     3.47036  -0.46931  -1.48098
C     0.70787   1.03659   0.37955
N     1.16168   2.40185   0.23400
C     2.59092   2.64191   0.29547
C     0.31923   3.34148  -0.33653
C    -0.98551   3.13008  -0.59817
C    -1.62906   1.79172  -0.38567
C    -0.82365   0.91134   0.60889
C    -1.25395   1.37316   2.01320
N    -0.42525   2.22080   2.64516
O    -2.34748   1.05352   2.49109
H    -1.86434  -3.22193   1.96147
H    -1.02649  -3.31265   0.40166
H    -0.10866  -3.51176   1.94508
H    -1.89388  -1.05788  -2.21675
H    -4.17651  -1.61393  -3.04483
H    -6.05688  -1.89122  -1.42333
H    -5.62586  -1.59367   1.01926
H    -3.36233  -0.99572   1.81921
H     0.25141  -1.90593  -0.67370
H     1.15394  -0.01086  -2.95634
H    -0.02907   1.15008  -2.33164
H     1.69964   1.53972  -2.26839
H     1.85198  -1.53423   1.31406
H     4.01824  -2.61386   1.70229
H     5.88494  -2.33484   0.05992
H     5.51290  -0.94673  -1.98456
H     3.34548   0.13211  -2.38002
H     1.19592   0.63134   1.27509
H     3.12004   2.35866  -0.63234
H     2.77962   3.70849   0.48716
H     3.02690   2.06034   1.12225
H     0.78325   4.31652  -0.50750
H    -1.58516   3.95045  -0.99668
H    -1.73807   1.25572  -1.34138
H    -2.65544   1.89908  -0.00342
H    -0.73025   2.63154   3.52176
H     0.41095   2.57399   2.18535
