20
Generated by autodE on: 2022-06-23. E = -457.715328 Ha
C    -3.04143   0.75683   0.52642
N    -1.82600   0.11321   0.05564
C    -1.90722  -0.87030  -0.93810
C    -0.82206  -1.45451  -1.47032
C     0.58703  -1.11143  -1.05388
C     0.57630  -0.02571   0.00981
C     1.82754   0.49659   0.58132
N     2.97421  -0.04514   0.09907
O     1.86579   1.38454   1.45751
C    -0.59034   0.50142   0.47781
H    -3.76578   0.00728   0.88162
H    -3.51912   1.34809  -0.27292
H    -2.79741   1.42780   1.35951
H    -2.92199  -1.12828  -1.24633
H    -0.96696  -2.21796  -2.23813
H     1.10733  -2.01998  -0.68659
H     1.17808  -0.79456  -1.93739
H     3.85955   0.28427   0.46798
H     2.98174  -0.76943  -0.60754
H    -0.56847   1.28146   1.24071
