56
Generated by autodE on: 2022-06-23. E = -1246.071766 Ha. Imaginary frequency = -489.5 cm-1
C    -2.46675  -2.07989   2.58342
C    -1.13360  -1.94811   1.91078
O    -0.10563  -2.33651   2.48205
C    -1.01546  -1.31326   0.57346
C    -2.16898  -1.29013  -0.35110
C    -2.08795  -1.98936  -1.57225
C    -3.17681  -2.03742  -2.44254
C    -4.37481  -1.39661  -2.10888
C    -4.47122  -0.70906  -0.89508
C    -3.38123  -0.65382  -0.02504
N     0.27238  -1.34611   0.12989
C     0.91743  -0.36245  -0.61630
C     0.26212   0.08451  -1.90017
C     2.40358  -0.59071  -0.68615
C     3.11614  -1.00003   0.45895
C     4.50222  -1.14390   0.43025
C     5.21431  -0.87520  -0.74453
C     4.52131  -0.46986  -1.88673
C     3.13050  -0.32993  -1.85871
C     0.72662   1.19902   0.54232
N     1.24753   2.29312  -0.20936
C     2.64060   2.65360   0.01090
C     0.37748   3.29195  -0.61968
C    -0.95926   3.22357  -0.48679
C    -1.62922   2.02199   0.12824
C    -0.64757   1.24541   0.97300
C    -1.02831   0.98248   2.36297
N    -0.07207   0.55028   3.24941
O    -2.18264   1.21480   2.78789
H    -2.80488  -1.08097   2.90808
H    -3.23468  -2.48877   1.91321
H    -2.35377  -2.72005   3.46785
H    -1.16316  -2.50797  -1.82860
H    -3.09176  -2.58704  -3.38311
H    -5.22858  -1.43557  -2.78937
H    -5.40010  -0.20086  -0.62539
H    -3.45873  -0.09216   0.90430
H     0.85881  -1.77211   0.85303
H     0.33566  -0.70552  -2.66357
H    -0.79518   0.31881  -1.75992
H     0.76069   0.98233  -2.27998
H     2.59434  -1.18163   1.40215
H     5.03102  -1.45599   1.33380
H     6.30145  -0.98000  -0.76588
H     5.06401  -0.25846  -2.81115
H     2.61612  -0.00909  -2.76353
H     1.44405   0.89556   1.30626
H     2.98821   3.29938  -0.80817
H     2.78327   3.19559   0.96608
H     3.27369   1.75933   0.02607
H     0.86771   4.15815  -1.07117
H    -1.57476   4.05190  -0.84436
H    -2.07310   1.38251  -0.65909
H    -2.47772   2.32801   0.75548
H    -0.44878   0.13605   4.09734
H     0.75543   0.07993   2.89935
