44
Generated by autodE on: 2022-06-01. E = -1584.773121 Ha
C    -0.50641   1.23337   5.35950
N    -0.38916   0.40318   4.17495
C    -1.19390   0.56602   3.11988
O    -2.06821   1.42984   3.04738
C    -0.98089  -0.42100   1.95695
N     0.13382  -1.33628   2.16377
N     0.90768  -1.27768   1.17201
C     0.43838  -0.35909   0.19566
C    -0.71392   0.21536   0.62576
C    -1.61824   1.23440   0.02200
Cl   -3.16022   0.34151  -0.50681
C    -1.11712   2.07083  -1.14569
C     0.04836   3.01081  -0.81374
C     1.31405   2.40112  -0.20293
C     2.00470   1.27035  -0.96893
C     1.29972  -0.12057  -1.01904
C     0.52801  -0.31892  -2.33983
O     0.92117   0.10610  -3.40543
O    -0.57851  -1.03136  -2.18522
C    -1.38681  -1.25724  -3.34837
C     2.38875  -1.23318  -1.03825
O     3.54580  -1.07784  -0.72764
O     1.87966  -2.38728  -1.45997
C     2.76204  -3.52162  -1.48354
H     0.30878   0.98179   6.04812
H    -0.43602   2.29938   5.09660
H    -1.46830   1.06952   5.87120
H     0.27199  -0.36774   4.15633
H    -1.90359  -1.02961   1.92202
H    -1.97645   1.88347   0.83046
H    -1.96591   2.68552  -1.47937
H    -0.87306   1.43262  -2.00197
H    -0.31619   3.79227  -0.12623
H     0.31722   3.52509  -1.75159
H     1.11849   2.07958   0.83262
H     2.05512   3.21237  -0.11616
H     2.20950   1.57146  -2.00688
H     2.97767   1.09738  -0.49253
H    -1.69671  -0.29804  -3.78661
H    -2.26281  -1.81472  -2.99991
H    -0.82787  -1.84189  -4.09285
H     3.11529  -3.74252  -0.46630
H     2.16710  -4.35606  -1.87110
H     3.62062  -3.32375  -2.14031
