12
Generated by autodE on: 2022-06-01. E = -356.942380 Ha
C    -2.85793   0.07922  -0.02519
N    -1.58997  -0.23466   0.60057
C    -0.41548   0.02267  -0.01858
O    -0.35192   0.54073  -1.14406
C     0.77711  -0.35818   0.74785
N     1.94165  -0.14511   0.20469
N     2.94017   0.05317  -0.29639
H    -3.00043  -0.48589  -0.96098
H    -3.66802  -0.18107   0.66694
H    -2.93266   1.15180  -0.26632
H    -1.58299  -0.66665   1.51827
H     0.77172  -0.80872   1.74094
