32
Generated by autodE on: 2022-06-01. E = -1227.740485 Ha
C    -0.87922  -0.25242   4.10114
O    -0.23977  -0.10461   2.82132
C    -0.53963  -1.00525   1.89038
O    -1.31258  -1.92133   2.04682
C     0.24448  -0.72916   0.59175
C     1.71188  -1.04385   0.90183
O     2.04455  -2.00062   1.56872
O     2.55146  -0.19535   0.32577
C     3.95712  -0.44751   0.50445
C    -0.01075   0.63058   0.12757
C    -0.51370   1.50731  -0.54089
C    -1.30652   2.09412  -1.60338
Cl   -0.18404   2.63706  -2.96870
C    -2.28070   1.01630  -2.11022
C    -1.67613  -0.37914  -2.36377
C    -1.59911  -1.37657  -1.17256
C    -0.21857  -1.68341  -0.55664
H    -0.50956   0.57377   4.71856
H    -0.60833  -1.21812   4.55089
H    -1.97080  -0.18887   3.98945
H     4.21323  -0.42369   1.57287
H     4.22298  -1.42629   0.08081
H     4.47517   0.35521  -0.03177
H    -1.83994   3.00694  -1.31171
H    -3.08485   0.94317  -1.35805
H    -2.74364   1.40193  -3.03133
H    -0.68263  -0.26439  -2.82901
H    -2.30721  -0.84617  -3.13499
H    -1.97515  -2.34478  -1.53713
H    -2.30118  -1.07319  -0.37919
H    -0.21109  -2.69949  -0.13792
H     0.55223  -1.64744  -1.34203
