52
Generated by autodE on: 2022-10-22. E = -1314.060427 Ha
C    -7.08068   3.39791   8.28783
N    -7.12149   4.29566   7.15069
C    -7.37377   3.84533   5.91149
O    -7.53343   2.65075   5.64354
C    -7.46522   4.90425   4.85613
N    -7.77860   6.13486   5.21432
N    -7.83318   6.83622   4.05162
C    -8.06310   8.16054   4.14724
N    -8.25864   9.28270   4.37514
C    -7.56949   6.04588   2.93714
C    -7.28799   4.78431   3.43199
C    -6.80869   3.51350   2.72238
C    -5.67333   2.98608   3.50579
N    -4.71376   2.61047   4.03890
C    -7.94733   2.48011   2.62468
C    -9.24377   2.91396   2.32302
C   -10.27660   1.98755   2.15242
C   -10.02442   0.61901   2.28118
C    -8.72898   0.18263   2.57596
C    -7.69634   1.10787   2.74443
C    -6.24573   3.69687   1.27161
C    -4.99943   4.56526   1.06970
C    -4.97453   5.98282   1.65083
C    -6.04192   6.97506   1.18162
C    -7.51125   6.67492   1.55011
O    -8.16203   7.93248   1.55947
C    -9.59074   7.91319   1.55730
O    -8.19802   5.79492   0.69898
C    -8.11143   6.04218  -0.70198
H    -6.34951   2.59237   8.12140
H    -8.06279   2.93169   8.46967
H    -6.78727   3.96631   9.17825
H    -7.04466   5.29724   7.29639
H    -9.44845   3.97904   2.21056
H   -11.28369   2.34098   1.91885
H   -10.83272  -0.10460   2.15270
H    -8.51900  -0.88455   2.67959
H    -6.68994   0.75567   2.97987
H    -6.00857   2.68104   0.92336
H    -7.07923   4.04831   0.66266
H    -4.12596   4.03053   1.47768
H    -4.83637   4.62169  -0.01998
H    -4.00071   6.42400   1.38426
H    -4.97604   5.93412   2.75140
H    -5.98456   7.12469   0.09392
H    -5.82723   7.94991   1.64282
H    -9.90882   8.92916   1.82482
H    -9.98927   7.65909   0.56380
H   -10.00121   7.20364   2.29413
H    -7.17712   5.63880  -1.12439
H    -8.18163   7.11630  -0.93061
H    -8.96339   5.52136  -1.15904
