13
Generated by autodE on: 2022-10-22. E = -449.162414 Ha
C    -2.09820  -0.68699   2.23031
N    -1.59065  -1.71801   1.34332
C    -0.69683  -1.56150   0.36151
O    -0.27425  -2.43237  -0.39446
C    -0.17476  -0.19514   0.18182
N     0.34537   0.78969  -0.15481
N     0.81291   1.95032  -0.37843
C     1.68898   2.08583  -1.36568
N     2.46528   2.34410  -2.20302
H    -3.18006  -0.54811   2.08687
H    -1.59674   0.26866   2.02589
H    -1.90981  -0.95687   3.27959
H    -1.94794  -2.66667   1.44844
