52
Generated by autodE on: 2022-10-22. E = -1313.905887 Ha. Imaginary frequency = -273.0 cm-1
C    -6.97537   2.33276   7.05689
N    -7.23798   3.53937   6.29504
C    -8.43011   3.79355   5.74689
O    -9.46233   3.15121   5.91545
C    -8.45554   4.95707   4.82609
N    -8.95219   6.02044   4.61297
N    -8.86334   7.09209   3.93125
C    -9.96291   7.71753   3.53503
N   -10.85226   8.37787   3.15795
C    -7.25959   6.00075   2.31433
C    -7.02309   4.93678   2.88281
C    -6.42257   3.57583   2.81533
C    -5.33011   3.50605   3.80562
N    -4.44166   3.46640   4.55039
C    -7.44974   2.46280   3.06614
C    -8.78192   2.64344   2.67224
C    -9.72118   1.63063   2.87673
C    -9.34028   0.42985   3.48112
C    -8.01041   0.24316   3.86925
C    -7.06836   1.25330   3.65967
C    -5.73166   3.42215   1.40798
C    -6.62888   3.41044   0.16539
C    -7.48529   4.64180  -0.19626
C    -6.81172   6.01957  -0.06851
C    -7.35737   6.86485   1.10725
O    -6.55463   8.01627   1.16150
C    -6.84012   8.94644   2.19956
O    -8.72532   7.17795   0.96831
C    -9.10580   7.91556  -0.18520
H    -7.16969   2.47946   8.13143
H    -7.61598   1.51960   6.69112
H    -5.92241   2.05532   6.92024
H    -6.46058   4.15554   6.07280
H    -9.09258   3.58554   2.21951
H   -10.75821   1.78863   2.57256
H   -10.07765  -0.35766   3.65218
H    -7.70229  -0.69005   4.34594
H    -6.03578   1.09999   3.97909
H    -4.98286   4.22499   1.33453
H    -5.17972   2.47001   1.43707
H    -5.93601   3.22036  -0.67174
H    -7.29324   2.53243   0.20592
H    -7.81082   4.50062  -1.23836
H    -8.41308   4.64346   0.39407
H    -6.95153   6.61864  -0.97984
H    -5.72593   5.93190   0.07878
H    -6.64741   8.51043   3.19280
H    -7.88335   9.29747   2.15988
H    -6.16816   9.80124   2.04356
H    -8.41004   8.74490  -0.38626
H   -10.10067   8.33017   0.02991
H    -9.17220   7.27266  -1.07891
