14
Generated by autodE on: 2022-05-26. E = -308.537350 Ha
C     3.19755  -0.13931   0.34786
C     1.99045  -0.08789   0.21631
C     0.56743  -0.02528   0.06139
C    -0.20396  -1.20565   0.07152
C    -1.58893  -1.13927  -0.07912
C    -2.22221   0.09769  -0.24143
C    -1.46372   1.27330  -0.25248
C    -0.07819   1.21758  -0.10260
H     4.26704  -0.18581   0.46497
H     0.29283  -2.16932   0.19852
H    -2.17816  -2.05901  -0.06999
H    -3.30713   0.14552  -0.35942
H    -1.95501   2.24070  -0.37897
H     0.51606   2.13318  -0.11074
