20
Generated by autodE on: 2022-05-26. E = -532.686751 Ha
C     4.75353  -0.07336   0.03819
C     3.27106  -0.26739   0.21015
O     2.80488  -1.14111   0.94785
N     2.50918   0.61299  -0.52798
N     1.24515   0.44040  -0.37750
C     0.09305   0.32698  -0.27724
C    -1.31567   0.19233  -0.15655
C    -2.17264   1.01649  -0.91486
C    -3.55123   0.86898  -0.78174
C    -4.07835  -0.08681   0.09446
C    -3.22502  -0.90360   0.84533
C    -1.84371  -0.77195   0.72727
H     4.99009   0.75558  -0.64024
H     5.20791   0.11316   1.02417
H     5.19390  -1.00548  -0.35048
H    -1.75038   1.75780  -1.59481
H    -4.21968   1.50438  -1.36623
H    -5.16060  -0.19590   0.19272
H    -3.63897  -1.64833   1.52812
H    -1.16582  -1.40109   1.30612
