31
Generated by autodE on: 2022-06-17. E = -839.129123 Ha
N    -0.23405  -1.44977   2.49815
C    -0.31869  -1.02696   1.42092
C    -0.46270  -0.53618   0.02807
C    -1.85208   0.09827  -0.08647
C    -2.96056  -0.72037  -0.35364
C    -4.24039  -0.16897  -0.44595
C    -4.43089   1.20340  -0.26008
C    -3.33257   2.01912   0.02344
C    -2.05021   1.47058   0.11388
N    -0.32998  -1.70884  -0.85181
C     1.10130  -1.88117  -1.06607
C     1.66330  -0.44997  -1.24029
C     3.15146  -0.38505  -1.00856
O     3.91430  -1.05336  -1.69549
C     3.67841   0.47421   0.07046
C     2.87742   1.16102   0.90604
C     1.40355   1.11313   0.83062
O     0.73077   1.64531   1.70421
C     0.75026   0.41990  -0.34749
H    -2.82215  -1.79285  -0.49138
H    -5.09231  -0.81770  -0.66230
H    -5.43214   1.63440  -0.33225
H    -3.47007   3.09179   0.17784
H    -1.20806   2.11625   0.35973
H    -0.77168  -1.46030  -1.73929
H     1.55251  -2.35615  -0.18019
H     1.29421  -2.52111  -1.93459
H     1.51389  -0.15900  -2.29122
H     4.76649   0.49903   0.17287
H     3.28430   1.76589   1.72042
H     0.33737   1.23942  -0.95345
