12
Generated by autodE on: 2022-06-17. E = -381.636096 Ha
O     0.67872  -2.57867   0.01813
C     0.36637  -1.39245   0.00999
C     1.39803  -0.32712  -0.00538
C     1.05600   0.97304  -0.01442
C    -0.36638   1.39245  -0.01048
O    -0.67872   2.57867  -0.01788
C    -1.39802   0.32712   0.00543
C    -1.05600  -0.97304   0.01447
H     2.43858  -0.65992  -0.00848
H     1.79816   1.77483  -0.02542
H    -2.43857   0.65992   0.00883
H    -1.79816  -1.77483   0.02577
