19
Generated by autodE on: 2022-06-17. E = -457.433211 Ha
C    -2.44271  -2.16274   1.05311
N    -1.32758  -1.49378   0.91289
C    -0.97110  -0.50751   0.02185
C    -1.93870  -0.12834  -0.92218
N    -2.75786   0.17556  -1.70343
C     0.34843   0.11366   0.06134
C     0.67519   1.12829  -0.86960
C     1.92496   1.74435  -0.85841
C     2.89671   1.37414   0.07858
C     2.58972   0.37238   1.00509
C     1.34047  -0.24923   1.00088
H    -3.28411  -1.96238   0.38903
H    -2.49370  -2.91108   1.84177
H    -0.59108  -1.74568   1.57670
H    -0.06647   1.43526  -1.61052
H     2.14092   2.52488  -1.59245
H     3.87570   1.85804   0.08673
H     3.33179   0.06574   1.74658
H     1.15512  -1.02490   1.74782
