31
Generated by autodE on: 2022-06-17. E = -839.084503 Ha. Imaginary frequency = -247.2 cm-1
N     0.62186  -0.63410   2.62972
C     0.04614  -0.74674   1.62247
C    -0.67754  -0.90483   0.40707
C    -1.95029  -0.20688   0.23474
C    -2.72851  -0.35598  -0.93280
C    -3.91672   0.35425  -1.08552
C    -4.34922   1.24063  -0.09124
C    -3.57701   1.40889   1.06122
C    -2.39101   0.69403   1.22689
N    -0.28142  -1.92460  -0.40690
C     0.99075  -2.30729  -0.56713
C     1.72923  -0.42651  -1.54341
C     3.10016  -0.52753  -1.00406
O     3.95324  -1.26069  -1.50573
C     3.41031   0.28680   0.19731
C     2.53803   1.19143   0.67828
C     1.21912   1.42910   0.03490
O     0.48185   2.34014   0.44164
C     0.86415   0.55711  -1.07054
H    -2.40736  -1.01338  -1.74303
H    -4.50584   0.22218  -1.99577
H    -5.27892   1.79916  -0.21918
H    -3.89969   2.10082   1.84234
H    -1.80098   0.83309   2.13406
H    -0.91871  -2.16108  -1.16866
H     1.66079  -2.21843   0.28825
H     1.18094  -3.08904  -1.30181
H     1.57545  -0.86901  -2.52935
H     4.39111   0.12438   0.65136
H     2.76419   1.80463   1.55420
H    -0.06012   0.79240  -1.59890
