12
Generated by autodE on: 2022-06-17. E = -356.940305 Ha
C    -2.55422  -0.01131   0.62400
N    -1.50460   0.92859   0.27735
C    -0.21605   0.62890  -0.01009
O     0.61801   1.50065  -0.30663
C     0.13936  -0.79344   0.05026
N     1.37587  -1.10810  -0.22352
N     2.45576  -1.35073  -0.46611
H    -2.74834  -0.73173  -0.18694
H    -3.47801   0.55201   0.80444
H    -2.31649  -0.57492   1.54034
H    -1.73296   1.91675   0.22488
H    -0.52123  -1.62231   0.29955
