32
Generated by autodE on: 2022-06-17. E = -814.622256 Ha. Imaginary frequency = -478.3 cm-1
C     2.50864   1.75273   2.23410
N     1.91333   0.55154   1.68158
C     2.10994   0.21281   0.39224
O     2.89656   0.81505  -0.35213
C     1.27348  -0.88074  -0.17237
N     0.67571  -1.77578   0.65547
N    -0.42748  -2.07732   0.91601
C    -1.59097  -0.66073  -0.20395
N    -2.32751  -0.05344   0.81070
C    -3.24002  -0.88359   1.58027
C    -1.78967   1.08348   1.41622
C    -0.86099   1.84360   0.81203
C    -0.40725   1.53309  -0.59102
C    -0.57863   0.04792  -0.90393
C    -0.31551  -0.43586  -2.29031
N     0.36397   0.40819  -3.10001
O    -0.69142  -1.54997  -2.68880
H     3.59299   1.75884   2.05511
H     2.32795   1.77488   3.31588
H     2.08239   2.66525   1.78371
H     1.10976   0.16107   2.16407
H     1.71807  -1.34853  -1.05575
H    -2.09330  -1.48180  -0.71348
H    -3.99440  -0.25206   2.06981
H    -2.71853  -1.47314   2.35454
H    -3.75827  -1.58076   0.90715
H    -2.18434   1.31446   2.40813
H    -0.47428   2.72946   1.31805
H    -1.00111   2.12106  -1.32176
H     0.63226   1.86210  -0.73995
H     0.64812   0.06910  -4.01342
H     0.80692   1.24638  -2.74362
