18
Generated by autodE on: 2022-05-28. E = -530.749469 Ha
C     4.15227  -0.11769  -0.15005
O     2.92822   0.62743  -0.24503
C     1.79840  -0.05325  -0.05615
O     1.73881  -1.24592   0.19148
C     0.62232   0.81744  -0.18794
N    -0.54395   0.26230  -0.03310
N    -1.71912   0.84265  -0.11151
C    -2.72310  -0.08475   0.11496
C    -4.10647   0.49458   0.08549
O    -2.50368  -1.27992   0.34615
H     4.95778   0.60234  -0.33245
H     4.17364  -0.91536  -0.90669
H     4.25439  -0.55928   0.85179
H     0.69647   1.88214  -0.40874
H    -0.56407  -0.76099   0.17572
H    -4.19623   1.26517  -0.69302
H    -4.30950   0.97935   1.05587
H    -4.84651  -0.30115  -0.06933
