18
Generated by autodE on: 2022-07-26. E = -530.734543 Ha
C     3.17759  -0.10302  -0.08835
O     2.01439  -0.92950  -0.26537
C     0.92759  -0.32723  -0.73766
O     0.87292   0.83131  -1.09544
C    -0.18212  -1.29691  -0.90210
N    -1.43391  -1.01460  -0.68526
N    -2.03689   0.03645  -0.11689
C    -1.37366   0.62935   0.91334
C    -2.08798   1.82308   1.49005
O    -0.29666   0.24195   1.40135
H     2.95520   0.71247   0.61453
H     3.95376  -0.75931   0.32066
H     3.49948   0.31668  -1.05208
H     0.02680  -2.27440  -1.34239
H    -2.09952  -1.72453  -1.01094
H    -1.49515   2.72463   1.26180
H    -3.09822   1.94217   1.07929
H    -2.13148   1.73069   2.58601
