31
Generated by autodE on: 2022-05-28. E = -1297.867451 Ha. Imaginary frequency = -256.7 cm-1
C     3.67007   1.56849  -0.19797
O     2.59536   1.06331  -1.00035
C     1.35219   1.35327  -0.58910
O     1.11389   2.01587   0.40524
C     0.38382   0.74670  -1.50621
N    -0.93477   0.87870  -1.43025
N    -1.65275   1.03767  -0.33757
C    -1.58488   2.14372   0.47041
C    -1.32994   3.48289  -0.18730
O    -1.90853   2.07368   1.65672
C    -1.01369  -0.81336   0.78382
C    -2.00228  -1.75717   0.06884
C    -1.76200  -3.17283   0.63340
C    -0.57276  -3.54824   0.14939
C    -0.09974  -2.35053  -0.70460
O    -1.35352  -1.87707  -1.21732
C     0.20447  -1.20293   0.28488
Cl    1.71791  -1.17089   1.14484
H     4.59099   1.18396  -0.65099
H     3.57967   1.21548   0.83841
H     3.67204   2.66855  -0.20964
H     0.75846   0.32211  -2.43692
H    -1.43865   0.39974  -2.18141
H    -0.81227   3.41027  -1.15120
H    -2.30715   3.96702  -0.35018
H    -0.74926   4.10900   0.50309
H    -1.20964  -0.32291   1.73393
H    -3.03640  -1.41390  -0.02620
H    -2.42395  -3.68956   1.32775
H     0.00016  -4.45619   0.33451
H     0.63521  -2.53556  -1.49445
