33
Generated by autodE on: 2022-06-17. E = -748.169528 Ha
C    -1.11393  -2.40638  -1.28173
C    -1.22386  -1.86094  -0.06250
C    -1.94768  -2.54146   1.06460
C    -0.67755  -0.48694   0.27093
C     0.67498  -0.11172  -0.40425
C     1.84149   0.01655   0.51512
C     2.97163  -0.71402   0.47184
C     3.27172  -1.78371  -0.54139
C     4.05335  -0.50344   1.49631
N     0.36194   1.16631  -1.14809
O     0.15218   2.19488  -0.08692
C    -1.05797   1.91447   0.46787
O    -1.53366   2.54886   1.37133
C    -1.56763   0.67979  -0.26994
C    -3.05801   0.53457  -0.33838
O    -0.96153   0.94526  -1.56204
H    -0.60659  -1.90011  -2.10650
H    -1.54792  -3.38728  -1.49631
H    -1.27023  -2.69512   1.92244
H    -2.77552  -1.91061   1.43120
H    -2.35864  -3.51464   0.76014
H    -0.59653  -0.39380   1.36287
H     0.89145  -0.81110  -1.21645
H     1.72695   0.75281   1.31697
H     2.46512  -1.94904  -1.26705
H     3.47096  -2.74088  -0.02961
H     4.19210  -1.53297  -1.09639
H     4.23965  -1.43391   2.06063
H     5.00687  -0.24474   1.00372
H     3.80002   0.29375   2.21010
H    -3.50129   1.41219  -0.83020
H    -3.45819   0.46608   0.68311
H    -3.33318  -0.37224  -0.89261
