23
Generated by autodE on: 2022-06-17. E = -351.521383 Ha
C     0.08616  -3.77188   0.25825
C     0.47238  -2.49637   0.48125
C     1.65848  -2.17829   1.35544
C    -0.26484  -1.39257  -0.13049
C     0.02021  -0.07425   0.01655
C    -0.74482   0.98305  -0.61228
C    -0.52689   2.31888  -0.51327
C     0.57965   2.94121   0.29015
C    -1.41444   3.29782  -1.22861
H    -0.77535  -3.99949  -0.37714
H     0.61956  -4.61626   0.70366
H     1.36505  -1.54348   2.20801
H     2.42557  -1.61759   0.79579
H     2.11973  -3.09463   1.74997
H    -1.11867  -1.67595  -0.75778
H     0.86997   0.21528   0.64070
H    -1.58810   0.65323  -1.23117
H     0.16177   3.62530   1.04983
H     1.22077   3.56246  -0.36001
H     1.21878   2.21088   0.80272
H    -0.82591   3.92676  -1.92065
H    -2.20810   2.79739  -1.80254
H    -1.88701   3.99368  -0.51214
