33
Generated by autodE on: 2022-06-17. E = -748.113138 Ha. Imaginary frequency = -362.3 cm-1
C    -1.66934  -2.35576  -1.22703
C    -1.67230  -1.86795   0.02873
C    -2.73090  -2.25007   1.02981
C    -0.66090  -0.91141   0.52201
C     0.65081  -0.85579   0.00462
C     1.74759  -0.38749   0.82968
C     3.06849  -0.46455   0.53326
C     3.61497  -1.03685  -0.74148
C     4.09991   0.05176   1.49364
N     0.41166   0.89833  -1.37609
O     0.45957   1.81576  -0.32683
C    -0.73884   1.81652   0.35622
O    -0.91848   2.44260   1.37956
C    -1.57878   0.93023  -0.42680
C    -3.05509   0.88766  -0.40562
O    -0.92533   0.70428  -1.57825
H    -0.91159  -2.07077  -1.96077
H    -2.44132  -3.05671  -1.55572
H    -2.27575  -2.74641   1.90411
H    -3.24879  -1.35595   1.41354
H    -3.47850  -2.92776   0.59360
H    -0.79031  -0.58290   1.55771
H     0.88534  -1.48840  -0.85099
H     1.46235   0.07678   1.77989
H     2.84473  -1.42428  -1.41994
H     4.32872  -1.84988  -0.52219
H     4.18856  -0.26312  -1.28160
H     4.79774  -0.75332   1.78485
H     4.71688   0.83330   1.01558
H     3.64773   0.47032   2.40434
H    -3.46254   1.74001  -0.97473
H    -3.40082   0.96936   0.63331
H    -3.42761  -0.04398  -0.85358
