33
Generated by autodE on: 2022-06-28. E = -802.400136 Ha
C     3.13478   1.60174  -1.78355
C     2.17108   1.31548  -0.68623
C     1.46582   2.13724   0.11565
C     1.40066   3.62191   0.18400
C     0.52967   1.21872   0.90754
O     1.32864   0.02711   1.03366
C     1.66641  -0.09129  -0.35779
C     0.26918  -0.19032  -1.01143
C    -0.55691   0.78750  -0.11216
C    -1.70789  -0.13961   0.32683
C    -2.93867   0.48216   0.91075
O    -1.14662  -1.12836   1.29117
C    -0.33826  -1.89845   0.54383
O     0.34654  -2.79399   0.96085
N    -0.47425  -1.49047  -0.85268
N    -1.84140  -0.96024  -0.87255
C    -2.84781  -2.01364  -0.86017
H     4.09614   1.08621  -1.61598
H     3.33064   2.67901  -1.88570
H     2.74521   1.23225  -2.74880
H     2.11419   4.09677  -0.50498
H     1.60680   3.98374   1.20603
H     0.38690   3.97626  -0.07501
H     0.17775   1.56680   1.88571
H     2.34576  -0.93345  -0.53442
H     0.27808   0.05688  -2.07677
H    -0.97832   1.64450  -0.64978
H    -3.41682   1.12332   0.15695
H    -2.66419   1.10293   1.77540
H    -3.65213  -0.28636   1.23925
H    -3.84137  -1.54653  -0.88232
H    -2.73285  -2.61856  -1.76904
H    -2.79465  -2.68114   0.01925
