33
Generated by autodE on: 2022-06-28. E = -802.346762 Ha. Imaginary frequency = -451.7 cm-1
C     3.15987   1.79676  -1.86302
C     2.14299   1.52819  -0.81221
C     1.31619   2.34081  -0.13091
C     1.12734   3.81445  -0.16275
C     0.41374   1.38693   0.69589
O     1.33959   0.33146   0.98671
C     1.72315   0.09749  -0.37554
C     0.36092  -0.11991  -1.03175
C    -0.53149   0.68031  -0.31249
C    -1.75161  -0.58379   0.66148
C    -2.79537   0.24035   1.33340
O    -0.85912  -1.23883   1.47213
C    -0.22980  -2.18335   0.65003
O     0.74478  -2.80897   1.03181
N    -0.91959  -2.25994  -0.52021
N    -2.00986  -1.47480  -0.34894
C    -2.85315  -1.20063  -1.49216
H     4.14223   1.37400  -1.59001
H     3.28402   2.87450  -2.04551
H     2.86775   1.31975  -2.81596
H     1.84541   4.30664  -0.83511
H     1.23323   4.25497   0.84391
H     0.10694   4.06480  -0.50609
H    -0.04043   1.79407   1.60676
H     2.47123  -0.69854  -0.46487
H     0.23834  -0.48708  -2.04812
H    -1.33166   1.24023  -0.80437
H    -3.39088   0.78864   0.59270
H    -2.31228   0.96442   2.00269
H    -3.45926  -0.40539   1.92917
H    -2.35506  -0.51205  -2.19464
H    -3.06117  -2.14774  -2.00466
H    -3.79722  -0.75791  -1.15411
