72
Generated by autodE on: 2022-06-28. E = -1708.986830 Ha
C    -2.68902   0.23751   2.14240
O    -1.71987  -0.43567   1.34357
C    -1.32156   0.10724   0.10605
C    -2.56915   0.76921  -0.51859
O    -3.52774   0.05790  -0.78573
C    -2.67119   2.24275  -0.58533
C    -4.06501   2.78018  -0.68380
C    -1.52787   2.96877  -0.61633
C    -1.43185   4.45542  -0.74327
C    -0.21610   2.24578  -0.69893
O     0.66288   2.70924  -1.39514
C    -0.07593   1.05453   0.29492
O    -0.23051   1.66900   1.55787
C     0.71208   2.64325   1.98700
C     1.20989   0.09653   0.15853
C     1.81452  -0.35672   1.52134
C     1.00779  -0.65253   2.63336
C     1.55470  -1.17484   3.80791
C     2.92346  -1.44129   3.89940
C     3.73277  -1.19288   2.78987
C     3.18259  -0.66277   1.61892
C     2.31759   0.72752  -0.71688
C     2.48677   0.33976  -2.04957
C     3.45498   0.93916  -2.86161
C     4.28253   1.93958  -2.34946
C     4.13791   2.32232  -1.01130
C     3.17220   1.71859  -0.20679
N     0.65070  -1.10245  -0.48181
C     1.46320  -2.29719  -0.57284
C    -0.78016  -1.07739  -0.77339
C    -0.81014  -0.66910  -2.26530
C    -0.41672  -1.66263  -3.32678
O    -1.04810   0.49029  -2.57508
C    -1.50414  -2.38239  -0.48301
C    -2.54281  -2.83115  -1.30933
C    -3.22577  -4.01611  -1.02026
C    -2.87911  -4.77010   0.10345
C    -1.85000  -4.32495   0.94005
C    -1.17101  -3.14092   0.64996
H    -2.53708  -0.11549   3.17202
H    -2.56414   1.32810   2.12365
H    -3.71087  -0.02236   1.82287
H    -4.54910   2.40866  -1.60140
H    -4.09453   3.87536  -0.69079
H    -4.67162   2.41417   0.16057
H    -2.40803   4.94817  -0.67627
H    -0.77619   4.85633   0.04752
H    -0.96296   4.72157  -1.70407
H     0.24412   3.16732   2.83118
H     0.95276   3.37852   1.20334
H     1.64290   2.17104   2.33610
H    -0.06177  -0.48704   2.57524
H     0.89785  -1.38040   4.65692
H     3.35046  -1.84952   4.81860
H     4.80189  -1.41613   2.82597
H     3.84112  -0.50140   0.76752
H     1.84963  -0.43390  -2.47007
H     3.55840   0.61819  -3.90111
H     5.03805   2.41225  -2.98164
H     4.78174   3.09820  -0.58969
H     3.08242   2.03552   0.83089
H     2.44270  -2.06850  -1.02006
H     0.97562  -3.04019  -1.21290
H     1.64828  -2.77179   0.40618
H    -0.05578  -2.61991  -2.93863
H    -1.30690  -1.85314  -3.94729
H     0.33936  -1.20439  -3.98132
H    -2.84291  -2.24810  -2.18016
H    -4.03235  -4.34802  -1.67813
H    -3.40925  -5.69861   0.32862
H    -1.57549  -4.90127   1.82679
H    -0.38098  -2.79657   1.31550
