46
Generated by autodE on: 2022-06-28. E = -1019.528700 Ha
C     3.57199  -0.90893  -2.16448
C     2.20891  -0.24073  -2.20404
O     1.69026  -0.04480  -3.34215
C     1.57808   0.14583  -0.99992
C     1.90329  -0.32883   0.35408
C     1.75254   0.52785   1.46873
C     1.99315   0.07859   2.76579
C     2.40186  -1.24167   2.99506
C     2.55501  -2.10431   1.90590
C     2.29912  -1.65884   0.60679
N     0.40626   0.96023  -1.09822
C     0.55088   2.24653  -1.79739
C    -0.71628   0.60581  -0.49148
C    -1.74710   1.57488  -0.09814
C    -1.40361   2.81178   0.48309
C    -2.40060   3.68945   0.90668
C    -3.74912   3.35264   0.74810
C    -4.09974   2.12318   0.17835
C    -3.10816   1.23311  -0.22919
C    -0.91613  -0.81409  -0.14042
C    -1.31496  -1.17801   1.15430
C    -1.48103  -2.52606   1.48340
C    -1.27525  -3.51220   0.51602
C    -0.89816  -3.15029  -0.78530
C    -0.70830  -1.81079  -1.11221
H     4.18351  -0.46944  -2.96847
H     3.47146  -1.98377  -2.39049
H     4.09742  -0.80240  -1.20695
H     1.43217   1.56052   1.31023
H     1.86760   0.76607   3.60629
H     2.58960  -1.59407   4.01195
H     2.85360  -3.14322   2.06845
H     2.36848  -2.36371  -0.22232
H     1.10062   2.95707  -1.16593
H    -0.43115   2.65366  -2.06091
H     1.12019   2.05189  -2.71146
H    -0.35510   3.07095   0.63166
H    -2.12325   4.63900   1.36954
H    -4.52772   4.04464   1.07701
H    -5.15154   1.85537   0.05688
H    -3.38064   0.27106  -0.66619
H    -1.46835  -0.40392   1.90799
H    -1.77339  -2.80427   2.49824
H    -1.41105  -4.56571   0.77113
H    -0.74992  -3.91993  -1.54605
H    -0.39727  -1.52196  -2.11781
