46
Generated by autodE on: 2022-07-27. E = -1019.527029 Ha
C    -2.95065   1.50079  -1.23197
C    -1.79439   1.17723  -0.30069
O    -1.14451   2.15579   0.15981
C    -1.47304  -0.17936  -0.01136
C    -2.21495  -1.38233  -0.39135
C    -3.62431  -1.41835  -0.51430
C    -4.29178  -2.58514  -0.88803
C    -3.58569  -3.76947  -1.12731
C    -2.19482  -3.76670  -0.97878
C    -1.52277  -2.59757  -0.62168
N    -0.31624  -0.37154   0.79809
C    -0.50592  -1.09272   2.06830
C     0.81842   0.24479   0.51558
C     1.81246   0.52937   1.56801
C     3.16325   0.18946   1.37411
C     4.10715   0.48487   2.35736
C     3.71892   1.14940   3.52617
C     2.38194   1.51803   3.71034
C     1.42993   1.20751   2.73958
C     1.13393   0.68118  -0.85676
C     0.89238  -0.15256  -1.96544
C     1.24814   0.26383  -3.24557
C     1.83398   1.52206  -3.44286
C     2.07577   2.35492  -2.34824
C     1.73434   1.93523  -1.06025
H    -2.69010   2.42660  -1.76584
H    -3.87351   1.69862  -0.66224
H    -3.16209   0.70783  -1.96108
H    -4.21018  -0.52978  -0.28303
H    -5.38162  -2.57257  -0.97306
H    -4.11280  -4.68278  -1.41252
H    -1.62338  -4.68268  -1.15041
H    -0.43590  -2.62351  -0.51871
H     0.45568  -1.43932   2.46148
H    -1.00048  -0.43974   2.80016
H    -1.15189  -1.95690   1.87906
H     3.46388  -0.31955   0.45648
H     5.15151   0.20168   2.20903
H     4.46178   1.38906   4.29041
H     2.08038   2.05637   4.61159
H     0.39156   1.51681   2.86613
H     0.44295  -1.13443  -1.82122
H     1.07235  -0.39823  -4.09638
H     2.10704   1.84603  -4.44985
H     2.53363   3.33575  -2.49452
H     1.91947   2.58708  -0.20548
