26
Generated by autodE on: 2022-06-28. E = -689.456742 Ha
C    -2.61291   2.01277  -1.05381
O    -2.21689   0.65887  -0.79365
C    -0.95807   0.38031  -0.39785
C    -0.76138  -0.59803   0.53297
O    -1.83594  -1.17425   1.11022
C    -1.83921  -2.58112   1.39051
C     0.60763  -0.89966   1.02040
O     0.76635  -1.64548   1.98250
C     1.77498  -0.25415   0.35108
C     3.14222  -0.64132   0.82186
C     1.58143   0.68347  -0.60854
C     2.72177   1.39211  -1.27084
C     0.20286   1.00208  -1.08298
O     0.02320   1.74106  -2.04663
H    -3.68850   2.06096  -0.83366
H    -2.43881   2.28309  -2.10355
H    -2.07878   2.71595  -0.39754
H    -2.88906  -2.90005   1.32885
H    -1.44995  -2.78681   2.39630
H    -1.24956  -3.13570   0.64535
H     3.09173  -1.42997   1.58169
H     3.66663   0.22835   1.25225
H     3.75867  -0.99463  -0.02066
H     3.35476   1.89545  -0.52216
H     3.37129   0.67507  -1.80068
H     2.36282   2.13596  -1.99172
