72
Generated by autodE on: 2022-06-28. E = -1708.931778 Ha. Imaginary frequency = -342.6 cm-1
C    -3.09379  -0.22728   2.47947
O    -1.85540  -0.44909   1.79918
C    -1.36614   0.47071   0.91949
C    -2.26893   1.18935   0.04531
O    -3.44791   0.83119  -0.13041
C    -1.74129   2.38984  -0.67451
C    -2.54798   2.92005  -1.81746
C    -0.58058   2.97371  -0.28488
C    -0.02268   4.18716  -0.96344
C     0.14900   2.43599   0.88846
O     0.86678   3.16074   1.57103
C    -0.02551   0.98190   1.25627
O     0.33168   0.69812   2.56979
C    -0.37033   1.37275   3.61152
C     1.39581  -0.08800   0.36100
C     2.60038  -0.25804   1.29301
C     3.41499  -1.39567   1.14735
C     4.60409  -1.52887   1.86541
C     5.02226  -0.51210   2.72854
C     4.24224   0.64068   2.84820
C     3.04808   0.77149   2.13436
C     2.05484   0.46774  -0.89698
C     2.39536  -0.42036  -1.93197
C     3.13026   0.01337  -3.03508
C     3.55829   1.34196  -3.12245
C     3.26429   2.21858  -2.07470
C     2.53961   1.78048  -0.96378
N     0.60800  -1.25541   0.18321
C     0.59291  -2.22047   1.31685
C    -0.48949  -1.26940  -0.62965
C    -0.78639  -0.36583  -1.78281
C    -1.96932  -0.73662  -2.65324
O    -0.15623   0.65022  -2.06308
C    -1.28877  -2.53322  -0.61209
C    -2.64518  -2.55125  -0.25547
C    -3.36173  -3.74997  -0.28037
C    -2.73882  -4.93834  -0.67219
C    -1.39060  -4.92346  -1.04529
C    -0.66925  -3.72949  -1.01367
H    -3.02441  -0.78236   3.42529
H    -3.24527   0.84012   2.69669
H    -3.94733  -0.60110   1.89733
H    -1.94918   2.90476  -2.74238
H    -2.83958   3.96935  -1.64529
H    -3.45627   2.32585  -1.96945
H     0.33802   3.92233  -1.97205
H     0.81480   4.61046  -0.39551
H    -0.79136   4.96541  -1.09083
H    -0.70926   0.62637   4.34538
H     0.30099   2.09001   4.10974
H    -1.24621   1.92073   3.23464
H     3.13092  -2.18368   0.44935
H     5.21056  -2.42864   1.73755
H     5.95382  -0.61171   3.29053
H     4.56353   1.45478   3.50246
H     2.46629   1.68355   2.23119
H     2.06369  -1.45831  -1.88653
H     3.36697  -0.69393  -3.83373
H     4.12809   1.68485  -3.98906
H     3.61105   3.25414  -2.11072
H     2.37315   2.47548  -0.14566
H     1.18714  -3.11032   1.07820
H     1.00650  -1.73602   2.20259
H    -0.43145  -2.51993   1.53822
H    -1.98131  -0.04361  -3.50412
H    -2.91291  -0.62975  -2.09861
H    -1.91271  -1.77259  -3.01462
H    -3.14002  -1.62559   0.03040
H    -4.41649  -3.75172   0.00407
H    -3.30367  -5.87322  -0.69383
H    -0.89821  -5.84472  -1.36506
H     0.38231  -3.71863  -1.30828
