51
Generated by autodE on: 2022-06-05. E = -1486.396787 Ha
C    -1.87953  -4.66906  -0.23661
N    -1.01099  -3.51391  -0.35288
C    -1.23690  -2.33821   0.25650
O    -2.20120  -2.12237   0.99982
C    -0.16404  -1.25897   0.03050
N    -0.50988   0.00584   0.67071
C    -1.21315   0.84192  -0.29970
C    -2.70092   0.42640  -0.38321
O    -3.20325  -0.20154  -1.28852
O    -3.34749   0.80385   0.71830
C    -4.70107   0.34442   0.86941
C    -1.21254   2.33320   0.03411
O    -1.67939   3.15626  -0.72707
O    -0.68973   2.61761   1.21837
C    -0.70042   3.99941   1.61959
C    -0.52376   0.52483  -1.63518
C     0.75026   1.31636  -2.08141
O     1.34532   0.33244  -2.94017
C     1.53978  -0.66358  -1.92998
C     2.28030   0.13906  -0.85908
C     3.30279  -0.44844   0.02894
O     4.20578   0.14946   0.57976
O     3.13219  -1.77362   0.12860
C     4.06239  -2.48773   0.95665
C     1.76235   1.38780  -0.94090
C     1.98231   2.65721  -0.19377
C     2.65580   2.65805   1.14355
O     1.57935   3.69348  -0.71221
C     0.06591  -0.89933  -1.45256
H    -2.70590  -4.42280   0.44012
H    -2.29527  -4.95139  -1.21650
H    -1.33193  -5.53317   0.17065
H    -0.18724  -3.59488  -0.94164
H     0.75682  -1.66354   0.47867
H    -1.06599  -0.14171   1.51229
H    -5.32481   0.71122   0.04224
H    -5.05321   0.75225   1.82344
H    -4.71867  -0.75427   0.89139
H    -0.23683   4.02547   2.61168
H    -1.73463   4.36822   1.66764
H    -0.12111   4.60151   0.90716
H    -1.24318   0.57590  -2.45690
H     0.55478   2.25624  -2.60345
H     2.05488  -1.54542  -2.32121
H     5.08458  -2.37004   0.56969
H     4.01600  -2.11688   1.99047
H     3.75631  -3.53891   0.91403
H     3.73064   2.47082   1.00444
H     2.26988   1.84831   1.77848
H     2.50743   3.63347   1.62402
H    -0.40264  -1.62122  -2.12987
