27
Generated by autodE on: 2022-07-27. E = -798.086528 Ha
C    -0.22518  -4.47542  -0.45363
N     0.58466  -3.45922   0.18849
C     0.60372  -2.19231  -0.26021
O    -0.02506  -1.82040  -1.26076
C     1.50801  -1.28577   0.48378
N     1.37584   0.01541   0.50618
C     0.37766   0.87416   0.12560
C    -1.01806   0.45868   0.01090
O    -1.86477   0.98499  -0.69216
O    -1.30801  -0.55906   0.84755
C    -2.58637  -1.18076   0.68924
C     0.82770   2.25081   0.07104
O     1.99037   2.58077   0.31015
O    -0.12697   3.14220  -0.23529
C     0.27294   4.51619  -0.27582
H    -1.29224  -4.20081  -0.42991
H    -0.09025  -5.42498   0.07726
H     0.06743  -4.61034  -1.50665
H     1.13004  -3.69910   1.01103
H     2.41467  -1.68209   0.94354
H     2.19647   0.53899   0.84352
H    -2.59055  -2.04100   1.36938
H    -2.72253  -1.52018  -0.34753
H    -3.39582  -0.48565   0.95637
H     1.06561   4.67067  -1.02265
H    -0.62344   5.08173  -0.55700
H     0.63368   4.84772   0.70915
