38
Generated by autodE on: 2022-05-31. E = -1195.020980 Ha
C     1.66900   3.43506  -0.55890
N     1.20543   2.11516  -0.94368
C     1.83321   1.00605  -0.51807
O     2.91245   1.02828   0.07594
C     1.11360  -0.32467  -0.80099
N     0.43400  -0.26646  -2.11075
N    -0.77956  -0.48992  -2.06285
C    -1.29044  -0.63054  -0.67794
C    -2.20908   0.57335  -0.47327
O    -2.06196   1.63728  -1.03724
O    -3.18460   0.30226   0.38138
C    -4.06261   1.38729   0.73032
C    -0.02633  -0.73422   0.22389
C    -0.17301   0.08741   1.51356
F     0.93299   0.11112   2.27346
F    -0.49354   1.38054   1.29430
F    -1.15471  -0.42827   2.27709
C     0.42360  -2.18724   0.60412
C     0.28907  -3.14424  -0.60238
C     1.47082  -2.73362  -1.53068
C     2.09416  -1.54094  -0.77915
C     1.95862  -2.02572   0.67124
H     1.48378   3.62720   0.51172
H     1.13632   4.18847  -1.15232
H     2.74757   3.52955  -0.74445
H     0.24798   2.03715  -1.27921
H    -1.91274  -1.52975  -0.61238
H    -4.77442   0.97525   1.45399
H    -4.58957   1.75294  -0.16191
H    -3.48390   2.20523   1.18235
H    -0.07591  -2.55060   1.51015
H     0.40462  -4.17690  -0.24513
H    -0.68849  -3.09337  -1.09901
H     2.21965  -3.53545  -1.59500
H     1.15807  -2.49610  -2.55427
H     3.09776  -1.25860  -1.11415
H     2.32011  -1.30964   1.41298
H     2.46408  -2.98959   0.82977
