27
Generated by autodE on: 2022-05-31. E = -818.182967 Ha
C     3.75426   1.39591   0.96175
N     2.36410   1.48453   0.56282
C     1.71647   0.43011   0.02518
O     2.27867  -0.65546  -0.17414
C     0.28893   0.66002  -0.31741
C    -0.69051  -0.26985  -0.38412
C    -0.61073  -1.73344  -0.07917
F    -0.01905  -2.43898  -1.06338
F     0.05898  -2.00553   1.05809
F    -1.84716  -2.25482   0.07634
C    -2.00614   0.45445  -0.60742
C    -2.31598   1.17721   0.74647
C    -1.19843   2.25387   0.82628
C    -0.38806   2.01490  -0.49119
C    -1.52120   1.63911  -1.46528
H     4.07506   2.36936   1.35156
H     3.89970   0.63395   1.74458
H     4.39485   1.12597   0.10744
H     1.86030   2.34891   0.72777
H    -2.82597  -0.16014  -0.99495
H    -3.31501   1.63471   0.70066
H    -2.30270   0.47380   1.59059
H    -0.56150   2.15346   1.71625
H    -1.61785   3.27035   0.82250
H     0.27248   2.84147  -0.77962
H    -1.15347   1.33107  -2.45482
H    -2.27690   2.43119  -1.57471
