11
Generated by autodE on: 2022-05-31. E = -376.804973 Ha
C    -2.75365   0.24178   0.17739
O    -1.47480   0.78661  -0.16885
C    -0.40947  -0.00826   0.04277
O    -0.48523  -1.13732   0.50212
C     0.81425   0.66738  -0.34908
N     1.94396   0.02544  -0.20241
N     2.91247  -0.54352  -0.06950
H    -2.96481  -0.66269  -0.41215
H    -3.48731   1.02225  -0.05649
H    -2.79508  -0.00557   1.24850
H     0.86211   1.67722  -0.75515
