38
Generated by autodE on: 2022-05-31. E = -1194.950974 Ha. Imaginary frequency = -398.1 cm-1
C     1.58659   3.44740  -0.75650
N     1.09375   2.08465  -0.76842
C     1.91261   1.04406  -0.51458
O     3.13664   1.20439  -0.37657
C     1.32846  -0.33136  -0.42713
N     0.28039  -0.25993  -2.40289
N    -0.80257  -0.44446  -2.05325
C    -1.55861  -0.57657  -0.94007
C    -2.29839   0.66840  -0.60948
O    -1.97279   1.77673  -1.00083
O    -3.30869   0.42466   0.21426
C    -3.98062   1.56755   0.77098
C     0.26093  -0.76869   0.39362
C    -0.25906  -0.03794   1.60010
F     0.63670  -0.09311   2.61734
F    -0.52000   1.27029   1.41285
F    -1.39155  -0.59522   2.07733
C     0.54761  -2.26599   0.66089
C     0.42847  -3.10122  -0.64082
C     1.65053  -2.63082  -1.47901
C     2.27459  -1.53783  -0.57982
C     2.09025  -2.19659   0.80960
H     1.95731   3.73821   0.24099
H     0.76672   4.12045  -1.03722
H     2.41231   3.57637  -1.47314
H     0.08836   1.94505  -0.83879
H    -2.08890  -1.52482  -0.83366
H    -4.74617   1.16524   1.44347
H    -4.44549   2.16412  -0.02630
H    -3.26471   2.18657   1.32999
H    -0.02045  -2.67662   1.50386
H     0.50662  -4.16799  -0.38684
H    -0.53155  -2.96850  -1.15421
H     2.37803  -3.44525  -1.61091
H     1.38512  -2.26964  -2.48040
H     3.28934  -1.24051  -0.86315
H     2.41525  -1.55477   1.63905
H     2.56446  -3.18735   0.89623
