31
Generated by autodE on: 2022-05-28. E = -871.719284 Ha
C    -3.46006   2.72980   1.49632
N    -2.13950   2.18838   1.24710
C    -1.96950   0.98197   0.66445
O    -2.93880   0.27568   0.32859
C    -0.59912   0.52026   0.41745
C     0.57693   1.18108   0.50374
N     1.62317   0.37041   0.12585
C     2.97284   0.59652   0.39195
O     3.34625   1.68061   0.84866
N     3.78526  -0.43243   0.07586
C     5.20003  -0.39106   0.38474
N     1.13839  -0.87623  -0.37806
C    -0.28439  -0.92544   0.03724
C    -1.13131  -1.42837  -1.12208
O    -1.00853  -1.02084  -2.25939
O    -1.99450  -2.36404  -0.74802
C    -2.92954  -2.81293  -1.74156
H    -3.35765   3.75446   1.87417
H    -4.01318   2.13389   2.24143
H    -4.05921   2.75144   0.57282
H    -1.33062   2.70934   1.56592
H     0.78464   2.20025   0.82633
H     3.34314  -1.31914  -0.14941
H     5.70652  -1.20041  -0.15621
H     5.63109   0.56788   0.06512
H     5.39774  -0.51279   1.46376
H     1.14034  -0.77582  -1.40011
H    -0.43305  -1.59910   0.89632
H    -3.56523  -1.97430  -2.06107
H    -2.40039  -3.22890  -2.61040
H    -3.53624  -3.58664  -1.25777
