11
Generated by autodE on: 2022-05-28. E = -285.486740 Ha
C     2.14293  -0.87716  -0.23273
C     1.11132  -0.24580  -0.14773
C    -0.07129   0.60984  -0.06815
O     0.03613   1.82883  -0.24941
N    -1.24170   0.00374   0.20591
C    -1.48022  -1.40994   0.42419
H     3.05729  -1.44354  -0.30717
H    -2.04124   0.63311   0.24623
H    -0.53122  -1.95841   0.39493
H    -1.94827  -1.57642   1.40645
H    -2.14484  -1.82114  -0.35170
