20
Generated by autodE on: 2022-07-26. E = -586.133960 Ha
C     3.95634  -0.24877  -0.44953
N     2.56526  -0.18623  -0.03806
C     2.16881   0.73545   0.88886
O     2.95337   1.55158   1.38137
N     0.83223   0.74553   1.29279
N    -0.01197   0.26088   0.42970
C    -1.29861   0.06729   0.60849
C    -2.04877  -0.41746  -0.54524
O    -1.55134  -0.63783  -1.64103
O    -3.34060  -0.59702  -0.25611
C    -4.17503  -1.08251  -1.31758
H     4.05099  -0.97081  -1.27069
H     4.62048  -0.56036   0.37494
H     4.29392   0.73506  -0.80437
H     2.02697  -1.04206  -0.13895
H     0.31370   0.02324  -0.52861
H    -1.74958   0.27152   1.57830
H    -4.17105  -0.37880  -2.16275
H    -3.82703  -2.06771  -1.66075
H    -5.18336  -1.16273  -0.89580
