20
Generated by autodE on: 2022-05-28. E = -586.145268 Ha
C    -4.70773   0.19005  -0.01867
N    -3.45582  -0.21957   0.57756
C    -2.24804   0.05294   0.04928
O    -2.06510   0.67434  -1.01120
N    -1.19986  -0.45114   0.83660
N    -0.06275  -0.16343   0.28156
C     1.13980  -0.46218   0.70771
C     2.25896  -0.01586  -0.11486
O     2.14253   0.60705  -1.16073
O     3.43334  -0.37391   0.41740
C     4.60987   0.01274  -0.30580
H    -4.50107   0.69526  -0.96939
H    -5.35546  -0.67903  -0.21463
H    -5.25481   0.88598   0.63784
H    -3.46736  -0.72882   1.45574
H    -0.12817   0.37159  -0.61438
H     1.26724  -1.01873   1.63504
H     4.60719  -0.43020  -1.31249
H     4.66843   1.10787  -0.38989
H     5.45906  -0.36816   0.27306
