42
Generated by autodE on: 2022-06-18. E = -937.469862 Ha
C     3.76077   0.19189  -3.44694
C     3.26188   0.04396  -2.20302
C     4.13983   0.11439  -0.98162
C     1.82500  -0.18597  -2.01803
C     1.21040  -0.35711  -0.83547
C    -0.26623  -0.56303  -0.68949
C    -0.63844  -1.89589   0.05249
C    -1.94857  -2.49460  -0.49345
C     0.45911  -2.96411   0.04660
C    -0.89611  -1.33991   1.44445
C    -0.99687  -2.20177   2.59360
N    -1.06882  -2.93429   3.49216
N    -1.05556  -0.07554   1.55910
C    -0.93156   0.52136   0.22658
C    -2.33216   0.95306  -0.29891
C    -3.31098   1.46090   0.71498
O    -2.57533   0.89869  -1.48588
C    -0.12565   1.83988   0.24455
O    -0.00569   2.48511  -0.79887
N     0.39461   2.18613   1.42839
C     1.20047   3.37263   1.63535
H     3.11182   0.14121  -4.32665
H     4.82664   0.36747  -3.61773
H     4.08516  -0.82040  -0.39926
H     3.81327   0.92385  -0.30750
H     5.18956   0.29203  -1.25450
H     1.22025  -0.21157  -2.93214
H     1.79135  -0.32988   0.09102
H    -0.73586  -0.53368  -1.67894
H    -2.75852  -1.75219  -0.52946
H    -1.77876  -2.87050  -1.51364
H    -2.27989  -3.33596   0.13465
H     1.37759  -2.61818   0.54021
H     0.70716  -3.23737  -0.98931
H     0.10910  -3.87044   0.56441
H    -4.17322   1.91180   0.20748
H    -2.83242   2.18732   1.38886
H    -3.64993   0.61924   1.34012
H     0.19031   1.57840   2.21680
H     2.20600   3.10368   1.99397
H     0.73252   4.03974   2.37552
H     1.29444   3.90751   0.68300
