23
Generated by autodE on: 2022-06-18. E = -351.521381 Ha
C    -1.94534   1.70988   2.75531
C    -1.53237   0.69492   1.96461
C    -2.07229  -0.70187   2.13671
C    -0.54274   0.94155   0.91771
C    -0.04891   0.01249   0.06102
C     0.93319   0.31260  -0.96086
C     1.47491  -0.55293  -1.85478
C     1.13527  -2.01414  -1.93690
C     2.49019  -0.08455  -2.85867
H    -2.68434   1.55363   3.54611
H    -1.55137   2.72292   2.62793
H    -2.80388  -0.74811   2.95568
H    -1.26182  -1.41690   2.35553
H    -2.56219  -1.05515   1.21411
H    -0.18128   1.97361   0.83415
H    -0.40420  -1.01860   0.13840
H     1.26566   1.35684  -1.00479
H     0.38951  -2.33789  -1.19959
H     0.75311  -2.26105  -2.94320
H     2.04438  -2.62553  -1.79742
H     3.43660  -0.64404  -2.74856
H     2.14043  -0.27765  -3.88883
H     2.70739   0.98922  -2.76048
