19
Generated by autodE on: 2022-06-18. E = -585.859075 Ha
C     3.53279   0.05176   0.57915
N     2.13503   0.16529   0.21057
C     1.23455  -0.75982   0.60903
O     1.55618  -1.72999   1.30049
C    -0.18114  -0.53722   0.17839
N    -0.51127   0.62462  -0.32613
C    -0.82118   1.66985  -0.77605
C    -1.17636   2.87059  -1.29097
N    -1.48435   3.90976  -1.73764
C    -1.24301  -1.56128   0.28649
C    -2.62044  -1.15360  -0.17721
O    -1.01649  -2.68407   0.72083
H     4.05856   0.95697   0.25203
H     4.00978  -0.82399   0.10859
H     3.64319  -0.04914   1.66937
H     1.86736   0.90444  -0.42946
H    -3.31162  -1.99163  -0.02438
H    -2.60433  -0.88058  -1.24487
H    -2.97654  -0.27290   0.38092
