42
Generated by autodE on: 2022-06-18. E = -937.390377 Ha. Imaginary frequency = -355.2 cm-1
C     2.87798   1.88069  -3.09368
C     2.69542   0.90504  -2.17437
C     3.81056   0.47149  -1.25827
C     1.39141   0.27355  -2.03252
C     1.09501  -0.70721  -1.13570
C    -0.20427  -1.30230  -1.00675
C    -0.51718  -2.38420  -0.18481
C    -1.74245  -3.20633  -0.51535
C     0.56162  -3.09535   0.60303
C    -1.40245  -1.32372   1.61261
C    -1.90947  -2.19947   2.57664
N    -2.28622  -3.03703   3.29522
N    -1.34064  -0.12333   1.46459
C    -0.96266   0.86025   0.66514
C    -1.87911   1.30230  -0.38799
C    -3.24257   0.66648  -0.44817
O    -1.53441   2.16249  -1.21012
C     0.37954   1.43824   0.97552
O     1.11054   0.89096   1.81520
N     0.70516   2.53861   0.27759
C     1.98549   3.20263   0.37653
H     2.06129   2.20012  -3.74815
H     3.84322   2.38049  -3.21120
H     4.04225  -0.59817  -1.39190
H     3.52294   0.60305  -0.20245
H     4.72645   1.04954  -1.44443
H     0.59762   0.63793  -2.69381
H     1.88023  -1.06391  -0.46650
H    -0.97266  -0.96017  -1.70651
H    -2.16575  -3.70442   0.37017
H    -1.46057  -4.00725  -1.22240
H    -2.52655  -2.59919  -0.99104
H     0.12261  -3.74651   1.37342
H     1.15750  -3.73928  -0.06770
H     1.24755  -2.39323   1.09729
H    -3.80399   1.09953  -1.28525
H    -3.16338  -0.42291  -0.58382
H    -3.78693   0.83930   0.49390
H     0.04663   2.80261  -0.45889
H     2.56790   2.75300   1.18880
H     1.84699   4.27391   0.59189
H     2.54963   3.11197  -0.56551
