41
Generated by autodE on: 2022-06-18. E = -903.214466 Ha
C     4.77756   1.09386   0.19805
O     3.40813   1.06984  -0.23405
C     2.49369   0.74415   0.67900
O     2.75441   0.54206   1.85002
C     1.11581   0.61746   0.07567
N     0.09954   0.80676   1.10383
C    -1.01645  -0.09885   0.80849
C    -1.80787  -0.38821   2.08975
C    -1.97361   0.51441  -0.22004
C    -2.98973  -0.26642  -0.79393
C    -3.88106   0.28358  -1.71737
C    -3.77393   1.62979  -2.08399
C    -2.77363   2.41792  -1.50955
C    -1.88444   1.86427  -0.58230
C    -0.31727  -1.36879   0.20619
C     0.14356  -2.28499   1.30482
O    -0.15000  -3.46371   1.37130
C     0.88651  -0.80050  -0.61435
C     0.49760  -0.60440  -2.08480
C     2.11113  -1.72908  -0.56677
H     5.36746   1.36982  -0.68334
H     4.91542   1.83632   0.99678
H     5.07893   0.10108   0.56240
H     1.03261   1.38547  -0.70701
H     0.50931   0.53339   1.99800
H    -1.15116  -0.75298   2.89513
H    -2.29981   0.53017   2.44258
H    -2.58155  -1.14621   1.90432
H    -3.08614  -1.32009  -0.52268
H    -4.66247  -0.34304  -2.15445
H    -4.46724   2.05990  -2.81078
H    -2.68085   3.47180  -1.78402
H    -1.10507   2.47986  -0.13337
H    -0.98570  -1.95811  -0.43394
H     0.79305  -1.82684   2.08706
H     1.33124  -0.13319  -2.62947
H    -0.38785   0.03486  -2.19799
H     0.28557  -1.57517  -2.55889
H     1.83887  -2.72634  -0.94464
H     2.51535  -1.85494   0.44795
H     2.91860  -1.33664  -1.20093
