14
Generated by autodE on: 2022-06-18. E = -270.683223 Ha
C    -1.56108  -0.05388   0.29194
C    -0.43701   0.60036  -0.45925
C    -0.81996   1.71417  -1.38166
C     0.86626   0.22744  -0.33396
C     1.36980  -0.83512   0.52323
O     0.70659  -1.56116   1.26041
H    -1.61984  -1.12789   0.05338
H    -2.52499   0.41623   0.05203
H    -1.39537   0.00385   1.37923
H    -1.34028   2.50729  -0.81625
H     0.04348   2.15032  -1.90255
H    -1.54690   1.34890  -2.12844
H     1.62541   0.75651  -0.91744
H     2.47758  -0.97124   0.47537
