27
Generated by autodE on: 2022-06-18. E = -632.488372 Ha
C     5.21336   0.13485   0.25825
O     4.06906  -0.67323  -0.00530
C     2.85560  -0.05747   0.10373
O     2.75767   1.13932   0.41676
C     1.77053  -0.92637  -0.17495
N     0.52376  -0.37999  -0.07804
C    -0.66431  -0.91326  -0.29861
C    -0.70183  -2.33471  -0.74610
C    -1.86047  -0.09467  -0.09281
C    -3.07808  -0.43544  -0.72170
C    -4.21733   0.35170  -0.55352
C    -4.17737   1.49598   0.24898
C    -2.98081   1.84285   0.88739
C    -1.84039   1.05939   0.72508
H     5.27451   0.98246  -0.44224
H     6.08636  -0.51678   0.12512
H     5.19842   0.52675   1.28731
H     1.89552  -1.96810  -0.45067
H     0.55830   0.60755   0.19771
H    -0.19064  -2.45680  -1.71803
H    -0.16039  -2.97186  -0.02441
H    -1.72473  -2.71446  -0.83475
H    -3.13007  -1.31284  -1.36744
H    -5.14370   0.06944  -1.05941
H    -5.07137   2.10921   0.38212
H    -2.93857   2.72516   1.53034
H    -0.93439   1.33852   1.26823
