27
Generated by autodE on: 2022-07-27. E = -632.483120 Ha
C     4.94127   0.58667  -0.20934
O     3.55096   0.56964  -0.52221
C     2.71858   0.07929   0.44374
O     3.15430  -0.32642   1.53354
C     1.35625   0.09833   0.05481
N     0.47965  -0.44008   0.95565
C    -0.82458  -0.64865   0.99375
C    -1.34213  -1.43940   2.15847
C    -1.74833  -0.17857  -0.04079
C    -2.97642  -0.85498  -0.22550
C    -3.89784  -0.42387  -1.17823
C    -3.63319   0.70697  -1.95806
C    -2.43681   1.40541  -1.76790
C    -1.50305   0.96934  -0.82814
H     5.44778   1.01099  -1.08568
H     5.14597   1.21173   0.67403
H     5.32166  -0.42929  -0.01920
H     1.02911   0.43261  -0.92187
H     0.98856  -0.78229   1.78029
H    -0.56420  -1.56385   2.92577
H    -2.21500  -0.94870   2.61625
H    -1.66445  -2.44758   1.84602
H    -3.20663  -1.73742   0.37229
H    -4.83190  -0.97476  -1.31115
H    -4.35693   1.04528  -2.70302
H    -2.22711   2.30307  -2.35435
H    -0.59645   1.55387  -0.68105
