41
Generated by autodE on: 2022-06-18. E = -903.172191 Ha. Imaginary frequency = -310.3 cm-1
C     4.64682   1.54302  -0.19536
O     3.25646   1.32794  -0.47070
C     2.50194   0.89319   0.54993
O     2.94034   0.72797   1.68211
C     1.13259   0.57265   0.14156
N     0.28549   0.41657   1.23033
C    -1.01317   0.16179   1.21446
C    -1.63647  -0.39327   2.44977
C    -1.89612   0.65745   0.13911
C    -3.03689  -0.08022  -0.23226
C    -3.91154   0.41206  -1.19932
C    -3.68042   1.65805  -1.79389
C    -2.56473   2.40867  -1.41256
C    -1.67806   1.91500  -0.45397
C    -0.15771  -1.79582  -0.54913
C    -0.61043  -2.60782   0.51105
O    -1.76187  -3.09826   0.63708
C     1.17575  -1.31699  -0.71434
C     1.55988  -0.94458  -2.13378
C     2.29573  -1.98516   0.06546
H     5.09311   1.87826  -1.13876
H     4.77332   2.31422   0.57820
H     5.12391   0.61009   0.13880
H     0.74318   1.10896  -0.71914
H     0.78439   0.16446   2.08780
H    -0.87943  -0.62019   3.21345
H    -2.38093   0.30841   2.85856
H    -2.16753  -1.32856   2.20405
H    -3.20257  -1.06800   0.19847
H    -4.78045  -0.18166  -1.49244
H    -4.37081   2.04406  -2.54733
H    -2.38444   3.38982  -1.85776
H    -0.82749   2.52565  -0.14791
H    -0.88708  -1.54970  -1.32569
H     0.13884  -2.82119   1.30902
H     2.44945  -0.30023  -2.16022
H     0.73555  -0.43079  -2.65056
H     1.79539  -1.86233  -2.70053
H     2.37201  -3.04535  -0.22781
H     2.13979  -1.94928   1.15249
H     3.26445  -1.51389  -0.15567
