42
Generated by autodE on: 2022-05-29. E = -1107.670567 Ha
C     6.24519   0.29235   0.01780
N     5.00022  -0.42605   0.17762
C     3.79632   0.16163   0.25438
O     3.59791   1.38290   0.19646
C     2.63690  -0.78127   0.41770
N     2.77909  -2.05043   0.46961
C     1.46738  -2.67739   0.64174
C     0.40090  -1.56097   0.64409
C    -0.44250  -1.49473  -0.66706
O     0.48499  -0.91581  -1.58921
C     0.70069   0.29402  -0.86042
C    -0.72924   0.76807  -0.61283
C    -1.02325   2.17280  -0.32074
O    -2.11394   2.71911  -0.28674
O     0.12201   2.84034  -0.07709
C     0.00962   4.23403   0.23130
C    -1.47160  -0.37069  -0.48649
C    -2.85777  -0.65172  -0.12034
C    -3.90023   0.28118  -0.30369
C    -5.21036  -0.03968   0.04923
C    -5.51153  -1.29078   0.59782
C    -4.49021  -2.22844   0.78090
C    -3.18060  -1.91862   0.41684
C     1.23358  -0.25159   0.50693
H     6.91849   0.11233   0.87080
H     6.76423  -0.01770  -0.90279
H     6.02995   1.36582  -0.04194
H     5.00890  -1.44038   0.24221
H     1.31172  -3.41311  -0.16324
H     1.47185  -3.24755   1.58375
H    -0.23810  -1.59456   1.53354
H    -0.81970  -2.45330  -1.03748
H     1.36964   0.97688  -1.39066
H    -0.58680   4.38209   1.14351
H    -0.45989   4.77766  -0.60162
H     1.03435   4.59067   0.38753
H    -3.67117   1.25615  -0.72702
H    -6.00466   0.69399  -0.10724
H    -6.53904  -1.53647   0.87608
H    -4.71495  -3.20940   1.20564
H    -2.40005  -2.66565   0.56662
H     1.11656   0.49185   1.30490
