29
Generated by autodE on: 2022-05-29. E = -766.672144 Ha
C     3.76958  -2.06175  -0.52698
O     2.98248  -0.94152  -0.10853
C     1.66166  -1.15791   0.06264
O     1.15367  -2.25192  -0.12912
C     0.99739   0.07140   0.48596
C    -0.29446   0.48974   0.39233
C    -1.54109  -0.11239  -0.06255
C    -1.78168  -1.50224  -0.01467
C    -2.99323  -2.02683  -0.46182
C    -3.98621  -1.18346  -0.97248
C    -3.76388   0.19648  -1.02294
C    -2.56088   0.72899  -0.56189
C    -0.21249   1.99937   0.78331
C     0.51178   2.72168  -0.37102
C     1.77851   2.30410  -0.28682
C     1.79400   1.33249   0.91226
O     0.82364   1.95029   1.77044
H     3.70579  -2.87654   0.20932
H     3.42953  -2.43129  -1.50562
H     4.80102  -1.69726  -0.59919
H    -1.00964  -2.16107   0.37616
H    -3.16533  -3.10448  -0.41030
H    -4.93271  -1.59991  -1.32495
H    -4.53390   0.86264  -1.41849
H    -2.40532   1.80817  -0.60856
H    -1.13096   2.44893   1.17225
H     0.03116   3.36615  -1.10600
H     2.62961   2.51421  -0.93348
H     2.74868   1.15821   1.41655
