23
Generated by autodE on: 2022-06-16. E = -592.066602 Ha
C     1.94825  -1.81008   0.47865
C     1.68390  -0.34106   0.52238
O     2.37288   0.47398   1.09671
C     0.39866   0.15471  -0.18352
C     0.61320   1.51072  -0.72650
N     0.78539   2.55993  -1.18815
O     0.03895  -0.72693  -1.22959
O    -1.37909  -0.45744  -1.41744
C    -1.92658  -0.47148  -0.08295
C    -2.39382  -1.85834   0.31228
C    -0.79938   0.08838   0.82235
C    -1.11083   1.39431   1.53536
H     1.04692  -2.37521   0.76098
H     2.19394  -2.09400  -0.55806
H     2.78600  -2.05478   1.14357
H    -2.76714   0.23704  -0.13759
H    -2.81812  -1.83499   1.32804
H    -1.55026  -2.56582   0.30528
H    -3.16875  -2.21815  -0.38081
H    -0.54624  -0.67529   1.57164
H    -1.92150   1.23475   2.26148
H    -0.22759   1.75511   2.08417
H    -1.42807   2.17605   0.82917
