23
Generated by autodE on: 2022-06-16. E = -591.978587 Ha. Imaginary frequency = -155.6 cm-1
C     2.03727  -1.84150   0.54443
C     1.75105  -0.37915   0.43503
O     2.31592   0.49643   1.06705
C     0.65988   0.03153  -0.50336
C     0.46962   1.41244  -0.82047
N     0.38895   2.54390  -1.07144
O     0.12686  -0.87026  -1.26548
O    -0.97232  -0.46224  -1.92005
C    -2.10759  -0.34699   0.39899
C    -2.36280  -1.81084   0.24964
C    -1.14762   0.15180   1.24111
C    -1.07717   1.57014   1.71139
H     1.12811  -2.37680   0.86182
H     2.32300  -2.24243  -0.44116
H     2.84445  -2.00108   1.26961
H    -2.81411   0.35093  -0.06200
H    -3.02618  -2.15070   1.06681
H    -1.42872  -2.38881   0.33575
H    -2.85311  -2.05571  -0.70126
H    -0.55349  -0.57697   1.80547
H    -1.56168   1.64909   2.70099
H    -0.03567   1.90160   1.84683
H    -1.58962   2.26024   1.02595
