29
Generated by autodE on: 2022-10-23. E = -800.015617 Ha
C     2.16722   1.42073  -3.16951
N     1.86883   0.03372  -3.48688
C     0.92395  -0.69479  -2.87396
O     0.70681  -1.89738  -3.04250
C     0.03897   0.05701  -1.96074
N    -0.04798   0.18950  -0.77531
C    -0.23149   0.36138   0.50183
C     0.35590   1.58306   1.08401
O     0.32343   1.88866   2.26400
O     0.95706   2.34100   0.15071
C     1.57809   3.54884   0.60674
C    -0.95685  -0.67777   1.25652
C    -1.47857  -0.44571   2.54472
C    -2.17734  -1.45159   3.21527
C    -2.37494  -2.70146   2.62179
C    -1.86276  -2.94039   1.34172
C    -1.15945  -1.94443   0.66657
H     1.23767   1.96894  -2.95570
H     2.64928   1.89228  -4.03509
H     2.83312   1.51299  -2.29671
H     2.50406  -0.48454  -4.09033
H     2.01355   4.01695  -0.28366
H     0.83433   4.21872   1.06241
H     2.36586   3.32593   1.34101
H    -1.33825   0.52410   3.01665
H    -2.57539  -1.25058   4.21286
H    -2.92135  -3.48463   3.15219
H    -2.00500  -3.91369   0.86614
H    -0.75370  -2.15379  -0.32557
