46
Generated by autodE on: 2022-05-30. E = -1183.561936 Ha
C     3.76361  -0.24453  -1.86008
N     2.53981  -0.71104  -1.24825
C     2.21510  -0.44080   0.02178
O     2.99489   0.08169   0.82851
C     0.76555  -0.83317   0.44099
C     0.91434  -1.47237   1.84119
N     0.17779  -1.74291  -0.54584
C     0.66165  -3.11225  -0.53975
C    -1.27965  -1.55165  -0.66973
C    -2.07482  -2.34318   0.39451
C    -1.75717  -2.04044  -2.04460
C    -1.45828  -0.00183  -0.48172
C    -2.84037   0.34729   0.07872
C    -1.20826   0.81178  -1.82136
C    -1.51000   2.27893  -1.56185
C    -0.48210   2.72040  -0.82927
C     0.44145   1.52140  -0.67584
O     0.22242   0.83317  -1.90871
C    -0.17802   0.45732   0.33965
C    -0.44614   1.08856   1.70298
F    -1.21501   2.19390   1.64610
F     0.70429   1.47874   2.29476
F    -1.07352   0.26189   2.56372
H     4.59152  -0.31797  -1.14187
H     3.68165   0.80839  -2.18371
H     3.99740  -0.86132  -2.73834
H     1.75179  -1.00339  -1.82326
H     1.61819  -2.31285   1.76804
H     1.33308  -0.76776   2.56557
H    -0.03565  -1.85716   2.22208
H     0.34929  -3.70970   0.33676
H     1.75996  -3.12143  -0.56927
H     0.30903  -3.63247  -1.44191
H    -3.15325  -2.29954   0.18997
H    -1.90826  -1.96937   1.41234
H    -1.78406  -3.40257   0.36533
H    -1.78492  -3.13955  -2.07680
H    -2.77890  -1.68359  -2.24408
H    -1.09701  -1.69536  -2.85190
H    -3.02017  -0.08608   1.06765
H    -3.61188  -0.03857  -0.60561
H    -2.98082   1.42984   0.16378
H    -1.65673   0.37225  -2.71488
H    -2.41880   2.80481  -1.85252
H    -0.33086   3.69438  -0.36689
H     1.49806   1.74557  -0.50812
