27
Generated by autodE on: 2022-05-30. E = -499.430410 Ha
C     3.43527   1.01321   0.57614
N     2.45960   0.34796  -0.26191
C     1.12288   0.32400   0.14251
O     0.75450   1.14866   1.02857
C     0.28939  -0.63998  -0.48516
C     0.82856  -1.72334  -1.38427
N    -1.06165  -0.71116  -0.09284
C    -1.56789  -2.01309   0.37719
C    -1.85549   0.34466  -0.02983
C    -1.48337   1.61294  -0.69997
C    -3.16315   0.26138   0.69348
H     4.41778   0.97364   0.08508
H     3.53637   0.56220   1.58264
H     3.16707   2.06981   0.71892
H     2.79783  -0.48590  -0.72835
H     0.01572  -2.24649  -1.90890
H     1.43486  -2.49349  -0.86682
H     1.47099  -1.29757  -2.17482
H    -2.55998  -2.22629  -0.04083
H    -0.87132  -2.79926   0.07428
H    -1.63114  -2.00876   1.47524
H    -2.38785   2.15770  -1.00827
H    -0.89337   2.25410  -0.02103
H    -0.83165   1.40715  -1.56547
H    -3.56730   1.26869   0.85693
H    -3.90720  -0.30658   0.10656
H    -3.06886  -0.24092   1.66845
