27
Generated by autodE on: 2022-07-27. E = -499.426628 Ha
C     2.54191   1.84205  -0.53858
N     1.27150   1.17872  -0.32211
C     1.15162   0.27223   0.72727
O     2.02954   0.30269   1.63916
C     0.09724  -0.68533   0.74774
C     0.14119  -1.77193   1.78920
N    -0.84764  -0.80387  -0.28929
C    -0.98487  -2.12597  -0.93234
C    -1.58786   0.19879  -0.74106
C    -1.69147   1.46430   0.02479
C    -2.36058   0.05285  -2.01410
H     2.83335   2.41699   0.35204
H     3.37022   1.14335  -0.76553
H     2.44090   2.54142  -1.38033
H     0.74876   0.96777  -1.16613
H    -0.84237  -2.24884   1.92164
H     0.42674  -1.33728   2.75962
H     0.87504  -2.57718   1.58396
H    -2.03918  -2.42488  -0.99659
H    -0.55850  -2.08713  -1.94487
H    -0.42978  -2.86639  -0.35116
H    -0.92874   2.20061  -0.28580
H    -2.68175   1.91510  -0.13813
H    -1.51199   1.27308   1.09593
H    -1.76238  -0.40731  -2.81549
H    -2.70799   1.03568  -2.35751
H    -3.25038  -0.58568  -1.86800
