45
Generated by autodE on: 2022-06-19. E = -885.466473 Ha
C    -0.01825  -1.92179   2.26836
C     0.21698  -2.57203   0.93570
O     1.26782  -3.12658   0.65753
C    -0.93883  -2.59159  -0.06889
C    -0.49044  -2.37430  -1.51794
C    -0.50985  -0.81953  -1.67023
C    -1.18830  -0.42970  -2.99148
C     0.91060  -0.29665  -1.59976
C     1.52224   0.14863  -0.48788
C     2.91191   0.56594  -0.42642
C     3.57884   0.97849   0.67850
C     5.02505   1.38110   0.60196
C     2.97074   1.06845   2.05077
N    -1.30924  -0.41794  -0.48226
C    -1.71396   0.85260  -0.13025
C    -2.65775   1.03939   0.90983
C    -3.05063   2.32060   1.29674
C    -2.53600   3.45794   0.66584
C    -1.61008   3.28107  -0.36837
C    -1.19901   2.00932  -0.76646
N    -1.90412  -1.52698   0.17106
H    -0.29699  -0.86580   2.13559
H     0.88447  -2.00335   2.88754
H    -0.86950  -2.40810   2.77192
H    -1.43335  -3.56734   0.06805
H    -1.22439  -2.83032  -2.19685
H     0.49670  -2.80214  -1.72922
H    -1.21802   0.65842  -3.13944
H    -2.21948  -0.81424  -3.01050
H    -0.63942  -0.87280  -3.83674
H     1.47041  -0.36267  -2.53974
H     0.93453   0.20424   0.43051
H     3.46515   0.53121  -1.37269
H     5.64299   0.75440   1.26993
H     5.42536   1.29964  -0.41938
H     5.16098   2.42159   0.94802
H     3.53580   0.43786   2.75980
H     1.91767   0.76150   2.08906
H     3.04291   2.10116   2.43541
H    -3.07152   0.16622   1.41013
H    -3.77809   2.42611   2.10639
H    -2.85061   4.45842   0.97012
H    -1.18969   4.15119  -0.87999
H    -0.46154   1.91597  -1.55952
H    -2.77135  -1.76826  -0.32352
