22
Generated by autodE on: 2022-07-27. E = -533.904728 Ha
C    -0.12627   2.70439  -1.78956
C    -1.54846   2.21261  -1.83520
O    -2.41389   2.82157  -2.48270
C    -1.94327   1.01017  -1.13171
N    -1.18210   0.21460  -0.37481
N     0.05195   0.36398  -0.02779
C     0.63029  -0.69623   0.66760
C     0.14880  -2.02500   0.67528
C     0.81252  -3.00588   1.41313
C     1.96820  -2.69668   2.13869
C     2.46532  -1.38750   2.11372
C     1.80963  -0.39945   1.38382
H    -0.03213   3.57836  -2.44824
H     0.57346   1.91260  -2.09794
H     0.15498   2.97519  -0.76000
H    -2.97998   0.68717  -1.21958
H    -1.69129  -0.61191  -0.02226
H    -0.72326  -2.31395   0.08337
H     0.42962  -4.02927   1.40566
H     2.48447  -3.47240   2.70828
H     3.37200  -1.13519   2.66889
H     2.18651   0.62494   1.36114
