22
Generated by autodE on: 2022-06-19. E = -533.911714 Ha
C    -4.66475   0.31465   0.53858
C    -3.18227   0.15522   0.74876
O    -2.68487   0.11433   1.88763
C    -2.35145   0.08604  -0.42977
N    -1.03761   0.00491  -0.22560
N    -0.11737  -0.09653  -1.11654
C     1.19903  -0.08704  -0.65567
C     2.17889  -0.49456  -1.58475
C     3.52531  -0.52812  -1.22960
C     3.92614  -0.14700   0.05647
C     2.96271   0.27783   0.97908
C     1.61232   0.31724   0.63373
H    -5.01498  -0.25582  -0.33443
H    -4.88735   1.37917   0.34855
H    -5.20648   0.00286   1.44189
H    -2.72338   0.10492  -1.45289
H    -0.79994   0.01638   0.78616
H     1.85351  -0.79186  -2.58359
H     4.26827  -0.85419  -1.96130
H     4.98181  -0.17021   0.33517
H     3.26716   0.59602   1.97907
H     0.89485   0.69081   1.36809
