45
Generated by autodE on: 2022-06-19. E = -885.417757 Ha. Imaginary frequency = -448.1 cm-1
C    -0.36190   1.84921  -3.15281
C    -1.82179   1.49905  -3.09125
O    -2.67203   2.20993  -3.62600
C    -2.28476   0.30253  -2.34579
C    -2.61750   1.24108  -0.53689
C    -1.72888   0.69682   0.41573
C    -2.11675  -0.59143   1.08662
C    -0.58333   1.44105   0.85793
C     0.30401   1.05335   1.82127
C     1.47431   1.82103   2.17918
C     2.46295   1.45314   3.03592
C     3.63279   2.35791   3.30105
C     2.49778   0.14158   3.76859
N    -0.34231  -0.49642  -1.38316
C     0.29766  -1.53559  -0.75021
C    -0.15269  -2.87921  -0.67498
C     0.55275  -3.81404   0.07884
C     1.71153  -3.45015   0.78023
C     2.16953  -2.12978   0.70706
C     1.48145  -1.18569  -0.05266
N    -1.46855  -0.74453  -2.02134
H    -0.22571   2.68200  -3.85585
H     0.24530   0.98257  -3.45069
H    -0.01124   2.14376  -2.15191
H    -3.27810  -0.02319  -2.66186
H    -3.65933   0.91087  -0.50322
H    -2.48864   2.29417  -0.80300
H    -2.67501  -1.24094   0.39275
H    -1.25417  -1.15804   1.46196
H    -2.78421  -0.39758   1.94523
H    -0.40225   2.39150   0.34141
H     0.13427   0.10963   2.34291
H     1.57474   2.79403   1.68237
H     4.58334   1.86322   3.03007
H     3.71094   2.59565   4.37770
H     3.56271   3.30305   2.74241
H     3.42516  -0.40679   3.52502
H     1.64781  -0.51407   3.54029
H     2.52084   0.30893   4.86046
H    -1.04977  -3.20570  -1.20506
H     0.19313  -4.84535   0.12176
H     2.25394  -4.19259   1.36966
H     3.07446  -1.83208   1.24234
H     1.84382  -0.16179  -0.13003
H    -1.95655  -1.63130  -1.85853
