19
Generated by autodE on: 2022-07-26. E = -440.401872 Ha
C    -0.26346  -2.56594   0.69516
C     0.28896  -1.17646   0.81202
N     1.15878  -0.98993   1.78352
O     1.79849   0.06204   2.13482
C    -0.13243  -0.11933  -0.11184
C    -1.05791  -0.43921  -1.13316
C    -1.49268   0.52692  -2.03802
C    -1.01960   1.84061  -1.95159
C    -0.10596   2.17443  -0.94816
C     0.33635   1.21353  -0.03816
H    -1.35972  -2.56661   0.80053
H    -0.02856  -3.00530  -0.28713
H     0.15442  -3.22287   1.47160
H     1.35117  -1.83360   2.34606
H    -1.44419  -1.45398  -1.22490
H    -2.20691   0.25110  -2.81730
H    -1.36173   2.59727  -2.66151
H     0.27020   3.19740  -0.86982
H     1.04610   1.47577   0.74048
