23
Generated by autodE on: 2022-06-10. E = -554.982740 Ha
C     3.55478   1.24660  -0.63979
N     2.22841   1.06901  -0.08345
C     1.46705  -0.00211  -0.39491
O     1.87328  -0.89764  -1.15647
C     0.12385  -0.09345   0.19763
C    -0.80824   0.82616   0.51811
C    -0.84184   2.30839   0.47908
C    -2.07613  -0.01754   0.82206
C    -2.56079  -0.58509  -0.53081
C    -1.63920  -1.49410  -0.86465
C    -0.61116  -1.45467   0.28729
O    -1.47890  -1.18811   1.40374
H     3.52688   1.24524  -1.74061
H     3.95745   2.20803  -0.29843
H     4.23931   0.44349  -0.32020
H     1.88533   1.73493   0.59894
H     0.07394   2.74638   0.06102
H    -0.99925   2.72058   1.49083
H    -1.70090   2.64117  -0.12949
H    -2.82301   0.44427   1.47771
H    -3.43492  -0.23836  -1.08084
H    -1.54894  -2.10102  -1.76488
H     0.01270  -2.34084   0.44200
