20
Generated by autodE on: 2022-06-23. E = -457.715344 Ha
C    -3.09600   0.29732   0.65146
N    -1.81792  -0.17203   0.14165
C    -1.79314  -1.14691  -0.86382
C    -0.65594  -1.55953  -1.44554
C     0.70267  -1.01689  -1.07674
C     0.57312   0.05921  -0.01108
C     1.75483   0.76796   0.50534
N     2.94730   0.40692  -0.03224
O     1.69920   1.65246   1.38418
C    -0.63855   0.40282   0.50988
H    -3.71809  -0.55260   0.97146
H    -2.92528   0.94936   1.51726
H    -3.65314   0.86568  -0.11280
H    -2.77034  -1.54921  -1.13711
H    -0.71720  -2.32894  -2.21861
H     1.21147  -0.62109  -1.97928
H     1.36000  -1.84067  -0.72937
H     3.03320  -0.30249  -0.74860
H     3.78675   0.87462   0.29172
H    -0.70224   1.17902   1.27424
