24
Generated by autodE on: 2022-06-23. E = -681.317552 Ha
C     2.41380  -1.26500  -1.17275
N     1.33305  -0.54802  -0.46091
C     0.18351  -0.27891  -1.08622
C     0.13039  -0.40465  -2.50302
N     0.00022  -0.47329  -3.65913
C    -1.06557   0.13244  -0.42126
C    -1.84122   1.16823  -0.97197
C    -3.05627   1.51924  -0.38507
C    -3.51702   0.82932   0.74078
C    -2.75833  -0.21604   1.27954
C    -1.53680  -0.56465   0.70840
C     1.62320  -0.18858   0.84185
C     0.92302   0.82594   1.52579
N     0.40214   1.67405   2.13658
C     2.72343  -0.77172   1.50463
N     3.62522  -1.22973   2.08952
H     2.09331  -1.50786  -2.18855
H     3.30903  -0.63186  -1.19384
H     2.62642  -2.19613  -0.63190
H    -1.48277   1.70264  -1.85407
H    -3.64661   2.33363  -0.81012
H    -4.47047   1.10340   1.19776
H    -3.12110  -0.76467   2.15121
H    -0.95142  -1.38258   1.13238
