44
Generated by autodE on: 2022-06-23. E = -1139.025106 Ha. Imaginary frequency = -370.5 cm-1
C    -3.72683  -1.53860   0.37803
N    -2.74792  -0.51620   0.00846
C    -2.57910  -0.14287  -1.31277
C    -1.70762   0.82086  -1.69038
C    -1.60418   1.11357  -3.14215
N    -0.80214   2.14560  -3.48539
O    -2.21243   0.45197  -3.99895
C    -0.92800   1.61545  -0.66579
C    -0.95897   0.96767   0.70968
C    -1.92947  -0.02595   0.96308
C     0.00432  -2.15712   0.57354
C     0.11265  -2.85017   1.79547
N     0.17021  -3.45996   2.79367
C    -0.77184  -2.74802  -0.43631
N    -1.45123  -3.20029  -1.27671
N     0.87285  -1.08860   0.23463
C     1.12201  -0.92569  -1.19650
C     0.87496   0.03775   1.03665
C     0.65384  -0.16529   2.45636
N     0.47261  -0.18933   3.60405
C     1.98897   1.04085   0.83760
C     1.79319   2.41731   1.02639
C     2.86123   3.30696   0.88968
C     4.13769   2.83576   0.57418
C     4.34497   1.46311   0.40695
C     3.28176   0.57075   0.54275
H    -4.19192  -1.94076  -0.52778
H    -4.50230  -1.09965   1.02339
H    -3.22745  -2.35231   0.92210
H    -3.18448  -0.68094  -2.04000
H    -0.31254   2.71304  -2.80462
H    -0.70482   2.37811  -4.46833
H     0.11250   1.75558  -0.99895
H    -1.34225   2.63878  -0.59257
H    -0.82173   1.64273   1.55618
H    -2.12896  -0.36663   1.97972
H     1.59348  -1.83555  -1.58892
H     0.17408  -0.75239  -1.73625
H     1.77585  -0.06991  -1.37831
H     0.81024   2.80997   1.28113
H     2.68903   4.37603   1.03157
H     4.97018   3.53458   0.46598
H     5.34177   1.08099   0.17594
H     3.45527  -0.49975   0.42624
