44
Generated by autodE on: 2022-05-30. E = -1055.443443 Ha
C     5.44801  -0.57277  -1.49467
C     4.02276  -0.93832  -1.20634
O     3.42277  -1.78419  -1.85101
C     3.33277  -0.26173  -0.02784
N     3.88119   1.05804   0.31184
C     2.91851   1.89575   0.37440
C     1.53744   1.37755   0.09959
C     0.62899   1.26183   1.37441
O     1.19511   0.12047   2.02452
C     0.98681  -0.79508   0.93918
C    -0.49092  -0.58343   0.61281
C    -1.32749  -1.63867   0.03930
C    -2.72032  -1.68359   0.25335
C    -3.49255  -2.70673  -0.29410
C    -2.89432  -3.70917  -1.06784
C    -1.51284  -3.68355  -1.27878
C    -0.73391  -2.66448  -0.72548
C    -0.71681   0.73086   0.87286
C    -1.84680   1.61538   0.56027
C    -2.59257   1.46152  -0.62565
C    -3.64692   2.32475  -0.92189
C    -3.97771   3.36274  -0.04271
C    -3.23768   3.53586   1.13072
C    -2.17784   2.67568   1.42637
C     1.80667  -0.12495  -0.19913
H     6.05211  -0.62638  -0.57571
H     5.49092   0.47370  -1.83701
H     5.86002  -1.23569  -2.26671
H     3.57075  -0.94100   0.81314
H     3.10541   2.94861   0.62222
H     1.03450   1.94782  -0.69393
H     0.61963   2.13825   2.03135
H     1.29690  -1.81010   1.21116
H    -3.19445  -0.91510   0.86550
H    -4.56979  -2.72641  -0.11176
H    -3.50226  -4.50894  -1.49716
H    -1.03501  -4.46312  -1.87699
H     0.34346  -2.65632  -0.90537
H    -2.33182   0.66442  -1.32314
H    -4.21038   2.19182  -1.84861
H    -4.80459   4.03763  -0.27596
H    -3.48522   4.34663   1.82003
H    -1.60761   2.81762   2.34684
H     1.47569  -0.45729  -1.18816
