11
Generated by autodE on: 2022-05-30. E = -285.463900 Ha
C     2.19287   0.19099  -1.18679
N     1.43823  -0.01844  -0.28074
C     0.55078  -0.34803   0.61124
C    -0.86380  -0.08334   0.40272
C    -1.27343   0.57845  -0.89166
O    -1.68726  -0.39472   1.26843
H     2.78943   1.07985  -1.42494
H     0.88909  -0.83453   1.52959
H    -0.84664   1.59285  -0.95459
H    -2.36823   0.63974  -0.93882
H    -0.89351   0.01542  -1.75962
