33
Generated by autodE on: 2022-05-30. E = -769.851093 Ha
C     0.38776   2.72363  -1.55783
C    -0.93556   2.54645  -1.62397
C    -1.34850   2.15494  -0.18969
O    -0.42428   2.94314   0.57775
C     0.74816   2.43937  -0.08290
C     0.56206   0.90978   0.12988
C     1.68836  -0.02718   0.16250
C     1.62207  -1.27481  -0.49202
C     2.70900  -2.14770  -0.47759
C     3.88920  -1.79608   0.18864
C     3.97448  -0.55755   0.83137
C     2.88896   0.32097   0.81334
C    -0.78066   0.72985   0.08131
C    -1.63326  -0.45217   0.17998
C    -1.28321  -1.55954   0.98117
C    -2.11819  -2.67222   1.06277
C    -3.32325  -2.70812   0.34937
C    -3.68948  -1.61311  -0.43834
C    -2.85874  -0.49297  -0.51610
H     1.10420   2.94613  -2.34792
H    -1.60457   2.58294  -2.48319
H    -2.38786   2.33009   0.10721
H     1.66893   2.88694   0.30487
H     0.71298  -1.55116  -1.02770
H     2.63818  -3.10696  -0.99613
H     4.73976  -2.48167   0.19963
H     4.89262  -0.27175   1.35029
H     2.96720   1.28353   1.32278
H    -0.35392  -1.53635   1.55197
H    -1.83084  -3.51752   1.69288
H    -3.97534  -3.58220   0.41469
H    -4.62959  -1.62810  -0.99499
H    -3.15557   0.35446  -1.13823
