44
Generated by autodE on: 2022-05-30. E = -1055.317582 Ha. Imaginary frequency = -292.1 cm-1
C     4.91189   0.05476  -1.75064
C     4.53158  -0.96702  -0.70400
O     4.58460  -2.18213  -0.93531
C     4.09795  -0.49168   0.59624
N     4.05600   0.79168   0.88456
C     3.51243   1.86154   0.83869
C     1.47616   1.22468  -0.21084
C     0.59086   1.23493   1.05823
O     1.08719   0.07001   1.73484
C     0.87163  -0.82578   0.63284
C    -0.64295  -0.58110   0.37255
C    -1.54019  -1.63005  -0.10617
C    -2.91963  -1.62761   0.19104
C    -3.75105  -2.64473  -0.27384
C    -3.22855  -3.69081  -1.04528
C    -1.86171  -3.71427  -1.33646
C    -1.02407  -2.70069  -0.86536
C    -0.81572   0.74131   0.62475
C    -1.93457   1.65847   0.39026
C    -2.78821   1.50682  -0.72224
C    -3.83195   2.40284  -0.94940
C    -4.04780   3.47356  -0.07339
C    -3.20191   3.64487   1.02645
C    -2.15204   2.75208   1.25250
C     1.63996  -0.10220  -0.48621
H     5.87215   0.52425  -1.47837
H     4.16731   0.86081  -1.82745
H     5.02110  -0.44588  -2.72149
H     3.94918  -1.20739   1.40774
H     3.80978   2.88845   1.07013
H     1.57292   2.06699  -0.89464
H     0.63085   2.12769   1.69070
H     1.16566  -1.85258   0.87333
H    -3.33531  -0.82555   0.80243
H    -4.81576  -2.62582  -0.02852
H    -3.88323  -4.48595  -1.40954
H    -1.44196  -4.52831  -1.93238
H     0.04151  -2.73103  -1.10289
H    -2.61843   0.68544  -1.41963
H    -4.47813   2.26991  -1.82054
H    -4.86685   4.17410  -0.25228
H    -3.35879   4.47988   1.71354
H    -1.50079   2.89443   2.11726
H     1.95366  -0.57077  -1.41651
