23
Generated by autodE on: 2022-06-21. E = -351.521385 Ha
C     3.60376   1.13469   0.14548
C     2.55782   0.28599   0.25299
C     2.75018  -1.14288   0.69264
C     1.20735   0.74920  -0.05959
C     0.07819   0.00000   0.00766
C    -1.23833   0.51165  -0.31448
C    -2.41255  -0.16708  -0.26861
C    -3.70457   0.50615  -0.63636
C    -2.54525  -1.60683   0.13966
H     4.62452   0.81509   0.37308
H     3.46066   2.17156  -0.17410
H     2.39357  -1.84705  -0.07739
H     2.17263  -1.35860   1.60690
H     3.80894  -1.35850   0.89409
H     1.12122   1.79631  -0.37397
H     0.15496  -1.04501   0.32008
H    -1.27389   1.56206  -0.62792
H    -4.41713   0.47382   0.20747
H    -3.55796   1.55654  -0.92785
H    -4.19779  -0.02279  -1.47171
H    -3.22821  -1.69718   1.00285
H    -1.59178  -2.07989   0.40753
H    -3.00409  -2.19438  -0.67515
