24
Generated by autodE on: 2022-06-21. E = -721.579155 Ha
C    -2.30134  -2.75541  -0.08984
N    -3.21408  -1.62949  -0.18701
C    -2.87891  -0.33449  -0.20386
O    -3.64009   0.62819  -0.28708
C    -1.44513  -0.04869  -0.11205
N    -0.34205   0.31503  -0.03895
C     0.91798   0.74946   0.04383
C     1.08078   2.20257   0.01268
C     2.46848   2.78077   0.10213
O     0.08871   2.93036  -0.08554
C     1.96663  -0.25839   0.15419
O     3.16390  -0.03165   0.23607
O     1.46236  -1.51073   0.15750
C     2.40639  -2.58246   0.26200
H    -2.38706  -3.40029  -0.97668
H    -1.26339  -2.40243  -0.02155
H    -2.52039  -3.35309   0.80705
H    -4.21369  -1.81670  -0.25289
H     2.39353   3.87554   0.06522
H     3.09597   2.41712  -0.72525
H     2.96223   2.46726   1.03400
H     1.81580  -3.50595   0.24932
H     2.97455  -2.51036   1.20096
H     3.10520  -2.56961  -0.58729
