47
Generated by autodE on: 2022-06-21. E = -1073.094958 Ha. Imaginary frequency = -365.8 cm-1
C    -0.52784  -3.05714   1.17186
C     0.18425  -2.77161   0.05627
C     1.31771  -3.65168  -0.40951
C    -0.07101  -1.59512  -0.76387
C    -1.18253  -0.75532  -0.63665
C    -1.50349   0.23263  -1.67558
C    -2.69664   0.83776  -1.86867
C    -3.92782   0.57397  -1.04748
C    -2.87137   1.85640  -2.95933
C    -0.60715   0.51295   0.93486
C    -1.74725   1.34372   1.41458
O    -2.50209   0.87789   2.26788
N    -1.84886   2.53436   0.81357
C    -2.97113   3.43179   1.01649
N     0.57515   0.44181   1.18480
C     1.69441  -0.08778   0.65500
C     2.50070  -0.98100   1.49098
C     1.97270  -1.23038   2.88124
O     3.52274  -1.53747   1.08710
C     2.08646   0.51470  -0.62909
O     1.50723   1.46842  -1.13276
O     3.13412  -0.08636  -1.20792
C     3.55024   0.44038  -2.47444
H    -1.33500  -2.41212   1.52816
H    -0.30331  -3.94686   1.76545
H     2.23673  -3.05966  -0.53719
H     1.52029  -4.46558   0.30086
H     1.08442  -4.09629  -1.39209
H     0.59628  -1.43989  -1.61527
H    -2.01573  -1.13120  -0.03669
H    -0.67268   0.50661  -2.33260
H    -4.35048   1.52171  -0.67537
H    -3.75621  -0.08280  -0.18553
H    -4.71065   0.11476  -1.67710
H    -3.70323   1.57893  -3.63047
H    -1.95983   1.97961  -3.56225
H    -3.13844   2.83795  -2.52753
H    -1.16236   2.76207   0.09791
H    -3.77856   2.88865   1.52205
H    -3.33009   3.79877   0.04492
H    -2.68479   4.29616   1.63656
H     0.99009  -1.72892   2.80875
H     1.82600  -0.28885   3.43136
H     2.67070  -1.88056   3.42384
H     4.42366  -0.15166  -2.77193
H     2.74865   0.33218  -3.21988
H     3.82362   1.50161  -2.38474
