45
Generated by autodE on: 2022-06-19. E = -960.506051 Ha
C    -1.31126   1.89777  -2.97247
C    -1.93798   1.66293  -1.81119
C    -3.41563   1.40868  -1.71678
C    -1.21001   1.59416  -0.47966
C     0.20232   2.12589  -0.52561
C     0.48151   3.53324  -0.64825
N     0.67377   4.67485  -0.74296
N     1.15296   1.27243  -0.47275
C     0.55901  -0.07074  -0.40729
C     0.66458  -0.72474  -1.81790
C     1.88142  -0.40462  -2.63301
O    -0.19892  -1.48978  -2.20023
C     1.33884  -1.00099   0.51591
C     2.49174  -0.57685   1.18660
C     3.16907  -1.44812   2.04687
C     2.70506  -2.75139   2.23946
C     1.55764  -3.18254   1.56367
C     0.88058  -2.31444   0.70683
C    -0.94233   0.13610   0.00867
C    -1.17193   0.00734   1.48349
C    -1.91505  -0.92134   2.11115
C    -2.64925  -2.03789   1.42101
C    -2.03317  -0.92687   3.61175
H    -1.86727   1.91327  -3.91414
H    -0.23387   2.07293  -3.03550
H    -3.61471   0.44058  -1.22627
H    -3.89184   1.40373  -2.70750
H    -3.90119   2.17969  -1.09432
H    -1.79983   2.15078   0.26559
H     1.78365   0.61985  -3.02700
H     1.96427  -1.10856  -3.47114
H     2.78807  -0.42776  -2.01144
H     2.85623   0.43950   1.04036
H     4.06478  -1.10198   2.56825
H     3.23462  -3.43050   2.91176
H     1.18645  -4.20024   1.70556
H    -0.01359  -2.65758   0.18467
H    -1.55605  -0.57730  -0.54722
H    -0.66152   0.75817   2.09920
H    -3.70946  -2.04893   1.72711
H    -2.60929  -1.98163   0.32557
H    -2.22837  -3.01190   1.72702
H    -1.47789  -0.09728   4.07383
H    -3.08971  -0.85912   3.92550
H    -1.64785  -1.87567   4.02594
