22
Generated by autodE on: 2022-06-19. E = -608.905145 Ha
C     2.17612  -2.36030  -0.15507
C     0.82718  -1.87463  -0.61316
O     0.16464  -2.47650  -1.44550
C     0.32434  -0.59969  -0.01191
N     1.13035   0.01066   0.78974
C     1.82999   0.51571   1.63719
C     2.84600   1.45979   1.67370
N     3.70733   2.23166   1.84963
C    -0.98355   0.02017  -0.31402
C    -2.08271  -0.74664  -0.74646
C    -3.31138  -0.13244  -0.99551
C    -3.46750   1.24544  -0.81934
C    -2.38108   2.01321  -0.38644
C    -1.15057   1.40828  -0.13613
H     2.95776  -1.63157  -0.42327
H     2.39199  -3.32317  -0.63400
H     2.19861  -2.47239   0.94081
H    -1.97611  -1.82049  -0.88072
H    -4.15636  -0.74105  -1.32591
H    -4.43118   1.71992  -1.01816
H    -2.49025   3.09123  -0.24776
H    -0.30691   2.02069   0.18944
