12
Generated by autodE on: 2022-06-17. E = -157.299004 Ha
C    -1.60846  -0.47141   0.11774
C    -0.63769   0.66784   0.02672
C     0.70026   0.59959  -0.06083
C     1.55394  -0.63294  -0.08811
H    -2.33104  -0.43800  -0.71680
H    -1.11928  -1.45586   0.10278
H    -2.20720  -0.40322   1.04329
H    -1.09039   1.66759   0.03372
H     1.24922   1.54810  -0.11944
H     2.27345  -0.62973   0.74978
H     2.15965  -0.66992  -1.01087
H     0.96971  -1.56236  -0.02901
