26
Generated by autodE on: 2022-07-27. E = -628.374474 Ha
C    -3.51254   1.23146  -0.81554
C    -2.38527   0.28429  -0.53571
C    -2.61552  -1.10152  -0.66115
N    -2.84514  -2.23602  -0.83020
N    -1.15279   0.71462  -0.19663
C    -0.87357   2.15295  -0.38444
C    -0.19835  -0.07859   0.39709
C    -0.63088  -1.13696   1.22110
N    -0.94686  -1.99407   1.95367
C     1.24076   0.12020   0.19641
C     1.75724   0.64492  -1.00808
C     3.13197   0.80513  -1.18147
C     4.02392   0.42724  -0.17246
C     3.52528  -0.11686   1.01687
C     2.15235  -0.26754   1.20213
H    -4.42105   0.66217  -1.04797
H    -3.28873   1.88498  -1.67424
H    -3.72231   1.87781   0.05339
H    -1.62993   2.72344   0.16965
H    -0.92773   2.41780  -1.44766
H     0.11234   2.38927   0.01967
H     1.08263   0.91102  -1.82309
H     3.50969   1.21409  -2.12158
H     5.10011   0.54809  -0.31478
H     4.21168  -0.42024   1.81088
H     1.77431  -0.68404   2.13823
