26
Generated by autodE on: 2022-06-17. E = -628.373532 Ha
C     3.11827   1.33172  -1.12227
C     1.88775   0.88897  -0.38518
C     1.00137   1.88070   0.07814
N     0.32812   2.75736   0.45981
N     1.64658  -0.41247  -0.11711
C     2.78035  -1.33660  -0.32768
C     0.44777  -0.93308   0.29298
C     0.45692  -2.17102   0.97167
N     0.39413  -3.19227   1.54054
C    -0.86514  -0.30609   0.05713
C    -1.88729  -0.43559   1.01778
C    -3.16703   0.06376   0.77116
C    -3.45428   0.70222  -0.43849
C    -2.44721   0.83302  -1.40250
C    -1.16746   0.33888  -1.16117
H     3.21612   0.81509  -2.09098
H     3.05865   2.41046  -1.31399
H     4.03849   1.14061  -0.54552
H     3.65412  -0.98608   0.23340
H     3.01792  -1.36763  -1.39901
H     2.50261  -2.33999   0.00315
H    -1.67309  -0.93162   1.96689
H    -3.94282  -0.04420   1.53285
H    -4.45463   1.09658  -0.63049
H    -2.66150   1.32334  -2.35506
H    -0.39881   0.44804  -1.92869
