8
Generated by autodE on: 2022-10-20. E = -191.933355 Ha
C     1.70557   0.24379  -0.68326
C     0.68114  -0.07230  -0.11447
O    -0.38891  -0.44320   0.51464
C    -1.60758   0.26689   0.18334
H     2.61497   0.52003  -1.18538
H    -2.39624  -0.18305   0.79726
H    -1.83469   0.14049  -0.88544
H    -1.49511   1.33392   0.42563
