22
Generated by autodE on: 2022-10-20. E = -550.233414 Ha
C     0.25577   2.92127  -0.19939
N     0.71929   1.70215  -0.21172
C     0.13859   0.45519  -0.05944
C    -1.31829   0.34675  -0.02811
O    -2.06195   1.35522  -0.01018
N    -1.84525  -0.90184  -0.02259
C    -3.27343  -1.11578  -0.02116
C     1.04189  -0.68238   0.02429
O     0.66774  -1.86462  -0.15065
N     2.36844  -0.42686   0.28147
C     3.31004  -1.52875   0.36136
H    -0.79526   3.09569   0.00814
H     0.96371   3.72147  -0.41469
H     1.72093   1.64043  -0.41733
H    -1.18320  -1.67180  -0.12330
H    -3.47201  -2.19284   0.05323
H    -3.75479  -0.73752  -0.94030
H    -3.75734  -0.61287   0.83198
H     2.59891   0.38431   0.84711
H     3.27841  -2.12796  -0.55948
H     4.32265  -1.12121   0.47839
H     3.10095  -2.20368   1.20972
