30
Generated by autodE on: 2022-10-20. E = -742.162826 Ha. Imaginary frequency = -389.0 cm-1
C     1.34224   3.46235  -0.30415
N     0.92780   2.14058  -0.73125
C    -0.12887   1.51489  -0.16231
O    -0.77553   2.07732   0.75061
C    -0.50483   0.18510  -0.65734
C    -1.89361  -0.32691  -0.59243
O    -2.20765  -1.35552  -1.23069
N    -2.76861   0.32774   0.18911
C    -4.13353  -0.12376   0.34716
C     0.64692  -0.81400   1.36978
C     1.63446  -1.33467   0.82870
O     2.77159  -2.00804   0.79778
C     3.24271  -2.43558   2.09046
C     1.58752  -0.80515  -1.36372
N     0.27688  -0.60249  -1.44592
H     0.58712   4.23099  -0.54077
H     1.51468   3.48280   0.78222
H     2.27862   3.72019  -0.81463
H     1.33752   1.76233  -1.57755
H    -2.40134   1.13878   0.68997
H    -4.17793  -1.14562   0.75881
H    -4.65387   0.55317   1.03619
H    -4.67350  -0.12857  -0.61382
H    -0.15153  -0.39503   1.95342
H     2.50595  -3.10683   2.55874
H     4.18588  -2.96962   1.91868
H     3.41267  -1.56158   2.73850
H     1.98882  -1.64109  -1.93833
H     2.26083   0.00596  -1.10015
H    -0.28812  -1.38118  -1.81075
