51
Generated by autodE on: 2022-06-25. E = -1279.089724 Ha
C     3.91164  -0.96433  -1.77893
O     2.89876  -0.50214  -0.87320
C     1.85749   0.13187  -1.40398
O     1.72637   0.32349  -2.59338
C     0.83257   0.54330  -0.32557
C     1.41215   1.67721   0.56226
O     0.76816   2.24636   1.41896
O     2.61113   2.08757   0.15192
C     3.20195   3.18131   0.86906
N    -0.40285   1.00179  -0.93475
C    -0.39447   2.29870  -1.58496
C    -1.59897   0.58576  -0.19319
C    -2.41784   1.75976   0.37741
C    -2.56304  -0.22978  -1.08435
C    -2.23354  -0.42510  -2.53814
O    -3.61960  -0.62879  -0.61815
C    -1.00819  -0.25819   1.00570
N    -1.80117  -1.33022   1.53322
C    -2.87305  -1.02794   2.46307
C    -1.74769  -2.55587   0.91269
C    -0.81139  -2.89711   0.00034
C     0.26913  -1.94975  -0.43355
C     0.39291  -0.70784   0.49478
C     1.33455  -0.99464   1.67049
N     1.13353  -2.15991   2.30308
O     2.20759  -0.19520   2.02568
H     4.66901  -1.45487  -1.15730
H     3.48387  -1.67932  -2.49615
H     4.35300  -0.11653  -2.32192
H     2.55368   4.06769   0.82180
H     3.36285   2.89747   1.91914
H     4.16069   3.38208   0.37764
H    -1.27066   2.39677  -2.24177
H    -0.40066   3.15229  -0.88105
H     0.49830   2.38413  -2.21689
H    -3.23714   1.37395   0.99597
H    -1.77531   2.39760   0.99763
H    -2.85862   2.37087  -0.42303
H    -2.89991  -1.18409  -2.96828
H    -2.40938   0.53441  -3.05538
H    -1.17874  -0.67165  -2.70354
H    -0.84857   0.46394   1.81491
H    -3.80612  -0.73250   1.95384
H    -2.56338  -0.20600   3.12497
H    -3.08237  -1.90824   3.08872
H    -2.50832  -3.27104   1.23510
H    -0.82704  -3.90097  -0.42656
H     1.24023  -2.46648  -0.46664
H     0.09047  -1.61219  -1.46582
H     0.43616  -2.82646   1.98044
H     1.73137  -2.40126   3.08758
