20
Generated by autodE on: 2022-06-25. E = -457.715343 Ha
C    -2.92443  -1.06080  -0.64528
N    -1.80082  -0.32166  -0.09317
C    -2.03752   0.85405   0.63043
C    -1.04692   1.64241   1.07661
C     0.41343   1.34432   0.84212
C     0.57130   0.06970   0.02931
C     1.90141  -0.43830  -0.34346
N     2.95933   0.29965   0.07743
O     2.08042  -1.48071  -1.00595
C    -0.51004  -0.65349  -0.37721
H    -2.56835  -2.01739  -1.04802
H    -3.67042  -1.26736   0.13728
H    -3.41959  -0.50006  -1.45647
H    -3.09061   1.07935   0.80827
H    -1.31116   2.53913   1.64183
H     0.89928   2.20192   0.33318
H     0.94557   1.26293   1.81241
H     2.85469   1.14420   0.62503
H     3.89490  -0.01750  -0.15180
H    -0.36846  -1.56277  -0.96348
