31
Generated by autodE on: 2022-06-25. E = -821.340600 Ha
C    -1.89893   3.21138   1.34048
O    -1.04260   2.08879   1.13764
C    -1.50847   1.11084   0.30332
O    -2.57165   1.25290  -0.29577
C    -0.60068  -0.00061   0.23029
C    -0.66467  -1.07111  -0.71971
O     0.21703  -1.92810  -0.86858
O    -1.78691  -1.09745  -1.47180
C    -1.87097  -2.13321  -2.45256
N     0.50088  -0.03607   1.14070
C     0.19119   0.00591   2.58604
C     1.72731  -0.27180   0.76721
C     2.80623  -0.52522   1.76061
C     2.11603  -0.20450  -0.70216
C     3.04575  -1.26334  -1.21678
O     1.76927   0.75708  -1.36089
H    -2.86934   2.90145   1.75767
H    -1.38009   3.86483   2.05307
H    -2.07296   3.75264   0.39821
H    -2.81671  -1.96755  -2.98333
H    -1.87805  -3.12727  -1.98065
H    -1.02983  -2.07799  -3.15984
H     0.47428  -0.95524   3.03756
H    -0.88118   0.16201   2.71328
H     0.75043   0.81502   3.07152
H     2.88724   0.31777   2.46536
H     2.57612  -1.42582   2.35491
H     3.77460  -0.66535   1.26849
H     2.95746  -2.20210  -0.65572
H     4.08128  -0.89376  -1.12284
H     2.83898  -1.42898  -2.28245
