51
Generated by autodE on: 2022-06-25. E = -1279.005998 Ha. Imaginary frequency = -330.0 cm-1
C     2.75223  -1.19872  -3.00563
O     2.45762  -0.33929  -1.90052
C     1.24455   0.22646  -1.88428
O     0.41820  -0.00411  -2.76139
C     0.99411   1.09416  -0.73288
C     2.15429   1.78214  -0.11865
O     3.27032   1.86088  -0.60495
O     1.87260   2.29690   1.08681
C     2.95237   2.90855   1.79551
N    -0.28729   1.58089  -0.51604
C    -0.46308   2.97458  -0.06273
C    -1.39200   0.74684  -0.45889
C    -2.67521   1.38712   0.03450
C    -1.77101  -0.15268  -1.65092
C    -2.29335   0.61903  -2.84639
O    -1.88363  -1.35903  -1.58372
C    -0.77375  -0.58420   1.09340
N    -1.67406  -1.64939   1.26188
C    -3.06229  -1.41337   1.59827
C    -1.23283  -2.94912   1.08758
C    -0.03841  -3.25371   0.54093
C     0.79385  -2.15852  -0.07980
C     0.57529  -0.91206   0.75280
C     1.70844  -0.52032   1.63176
N     1.41354   0.01627   2.84085
O     2.89233  -0.73616   1.31470
H     3.78473  -1.53524  -2.85482
H     2.07282  -2.06325  -3.01929
H     2.66737  -0.65450  -3.95753
H     3.76630   2.18486   1.94600
H     3.33692   3.78068   1.24644
H     2.53964   3.22224   2.76145
H    -1.32895   3.40481  -0.57928
H    -0.61852   3.04272   1.02156
H     0.41312   3.56399  -0.34010
H    -3.49227   0.65840   0.00514
H    -2.97509   2.23595  -0.59982
H    -2.57045   1.75071   1.06572
H    -2.15746   0.01373  -3.75174
H    -3.37413   0.77911  -2.69548
H    -1.81002   1.59650  -2.96145
H    -0.94073   0.21277   1.82494
H    -3.70520  -1.34576   0.70375
H    -3.16015  -0.48179   2.17314
H    -3.43292  -2.24165   2.21981
H    -1.91122  -3.71389   1.47390
H     0.30957  -4.28887   0.53702
H     0.48883  -2.00740  -1.12775
H     1.86118  -2.41046  -0.08919
H     0.46622   0.23864   3.11639
H     2.17269   0.43733   3.36684
