57
Generated by autodE on: 2022-10-23. E = -2239.802816 Ha
C     3.96233  -1.26582   6.29953
N     2.97122  -1.23300   5.24589
C     3.28765  -0.90564   3.98945
O     4.37016  -0.46320   3.61425
C     2.09971  -1.13252   2.99030
C     2.31442  -0.29374   1.77859
N     2.30782   0.46054   0.89650
C     1.88022  -2.62223   2.64083
C     0.59883  -2.95147   2.90149
C    -0.13077  -4.28406   2.72154
O    -1.37024  -4.06349   3.37019
C    -2.29775  -5.13706   3.39802
O     0.53499  -5.35942   3.34882
C     0.81069  -5.23072   4.74033
C    -0.35617  -4.66839   1.23603
C     0.63303  -4.17032   0.18005
C     2.01084  -4.82736   0.17354
C     2.76542  -4.83927   1.50164
C     3.03068  -3.49167   2.16696
Cl    4.09528  -2.53720   1.03214
Cl    4.06465  -3.88125   3.65424
C    -0.18524  -1.74981   3.43991
C    -1.19962  -1.24276   2.37892
C    -2.12785  -0.10271   2.71013
O    -1.16256  -1.68877   1.24664
C    -0.76627  -2.07420   4.86661
C    -2.23881  -2.09179   5.15096
O     0.04711  -2.23953   5.75803
N     0.85982  -0.76064   3.61377
C     0.62223   0.61416   3.99348
H     4.61731  -2.14951   6.20609
H     3.45492  -1.30351   7.27177
H     4.59365  -0.36661   6.25968
H     2.03025  -1.59851   5.41456
H    -2.77496  -5.28750   2.41622
H    -3.06966  -4.86200   4.12929
H    -1.81859  -6.07562   3.71549
H     1.46129  -4.36939   4.94989
H     1.33220  -6.15092   5.03515
H    -0.11522  -5.13518   5.32785
H    -0.42801  -5.76687   1.20311
H    -1.34250  -4.26581   0.97460
H     0.17002  -4.35511  -0.80274
H     0.72954  -3.07809   0.25606
H     1.90718  -5.88396  -0.12495
H     2.63128  -4.34533  -0.59824
H     2.23516  -5.45874   2.23025
H     3.75388  -5.29359   1.34714
H    -1.83311   0.75724   2.08749
H    -3.14704  -0.38989   2.40991
H    -2.12659   0.20250   3.76012
H    -2.85890  -2.22462   4.25929
H    -2.44791  -2.88891   5.87783
H    -2.49762  -1.13182   5.62870
H     1.54717   1.04068   4.40876
H    -0.14031   0.65590   4.78386
H     0.30167   1.25863   3.15512
