29
Generated by autodE on: 2022-10-23. E = -779.152381 Ha
C     3.22345  -0.23983   2.40568
N     2.52620  -0.71214   1.22413
C     1.55117   0.01525   0.65937
O     1.22189   1.13534   1.04649
C     0.93414  -0.58464  -0.58205
C     1.73986  -1.42680  -1.39197
N     2.43824  -2.12387  -2.01278
N    -0.24157  -0.16950  -1.05005
C    -0.55001  -0.41660  -2.47527
C    -1.23546   0.31861  -0.21802
C    -1.41386  -0.37758   1.05926
C    -2.66456  -0.13561   1.86710
O    -0.58337  -1.19810   1.46782
C    -2.06318   1.43916  -0.66673
C    -1.51427   2.36390  -1.73851
O    -3.14512   1.71538  -0.14215
H     4.04564  -0.92924   2.63038
H     3.63435   0.76577   2.23486
H     2.54771  -0.19148   3.27522
H     2.69031  -1.66274   0.90604
H    -1.57033  -0.08989  -2.68598
H    -0.49367  -1.49901  -2.65951
H     0.17295   0.10705  -3.11246
H    -2.68918   0.90761   2.21689
H    -3.57422  -0.29015   1.27254
H    -2.64564  -0.81528   2.72904
H    -2.00036   2.15019  -2.70361
H    -1.78832   3.39065  -1.45681
H    -0.42639   2.29928  -1.86650
