28
Generated by autodE on: 2022-10-23. E = -1460.554781 Ha
C    -0.19381  -3.83294   0.36535
O    -1.05469  -2.81607   0.86259
C    -1.14783  -1.66947   0.05796
O    -1.58333  -1.98166  -1.24991
C    -2.89536  -2.52534  -1.35927
C     0.13880  -0.95585  -0.11467
C     0.86234   0.01478  -0.16369
C     1.21691   1.41239  -0.08858
Cl    2.42427   1.87307  -1.37127
Cl    1.97976   1.74734   1.54039
C    -0.06130   2.25295  -0.25481
C    -1.24793   1.84958   0.64265
C    -2.19767   0.71856   0.15712
C    -2.06620  -0.67493   0.80258
H     0.82204  -3.43805   0.18440
H    -0.57553  -4.26949  -0.57125
H    -0.14357  -4.61356   1.13606
H    -2.96580  -2.97024  -2.36140
H    -3.07239  -3.31024  -0.60741
H    -3.67005  -1.74700  -1.26125
H     0.22013   3.30007  -0.06883
H    -0.35057   2.17399  -1.31448
H    -0.88182   1.62935   1.65893
H    -1.85422   2.76242   0.74150
H    -2.13684   0.62015  -0.93956
H    -3.22391   1.05728   0.36284
H    -1.67740  -0.59256   1.82844
H    -3.05406  -1.15251   0.87993
