57
Generated by autodE on: 2022-10-23. E = -2239.696069 Ha. Imaginary frequency = -114.9 cm-1
C     5.06648   0.37743   4.62499
N     3.88130  -0.35739   4.22184
C     2.77685   0.25972   3.80479
O     2.64989   1.48159   3.69770
C     1.60476  -0.62630   3.39502
C     1.38902  -0.63506   1.98956
N     1.31230  -0.58878   0.82733
C     1.73406  -3.19955   2.97484
C     0.53191  -3.47221   3.00225
C    -0.41899  -4.56470   2.63571
O    -1.71377  -4.22481   3.05331
C    -2.75107  -5.14227   2.74006
O    -0.00006  -5.76920   3.25371
C     0.05622  -5.76287   4.67529
C    -0.31462  -4.80459   1.11084
C     1.02609  -4.52421   0.41359
C     2.29444  -5.31204   0.79378
C     2.96195  -5.14763   2.17458
C     3.06590  -3.71431   2.70797
Cl    4.00967  -2.66857   1.56004
Cl    4.00887  -3.75878   4.30287
C    -0.58663  -1.36687   3.88705
C    -1.21780  -0.75215   2.66769
C    -1.14732   0.75312   2.53655
O    -1.89649  -1.40915   1.89424
C    -1.45983  -2.11259   4.84239
C    -2.95092  -1.99198   4.67448
O    -0.97633  -2.75024   5.77169
N     0.62856  -0.90131   4.28841
C     1.03720  -0.88816   5.70912
H     5.88201  -0.33755   4.78681
H     4.89018   0.93861   5.55666
H     5.36202   1.09139   3.84206
H     3.88152  -1.37254   4.28872
H    -3.00591  -5.12214   1.66767
H    -3.63020  -4.82607   3.31788
H    -2.48401  -6.17096   3.02905
H     0.84083  -5.08099   5.04263
H     0.30146  -6.78870   4.98162
H    -0.90832  -5.47160   5.11822
H    -0.62467  -5.84682   0.93816
H    -1.06721  -4.15099   0.64531
H     0.85158  -4.74268  -0.65282
H     1.23487  -3.44510   0.45000
H     2.09751  -6.39119   0.68015
H     3.04891  -5.05986   0.03193
H     2.40359  -5.70529   2.93785
H     3.97745  -5.56853   2.12891
H    -1.16165   1.02745   1.47286
H    -2.06680   1.14071   3.00920
H    -0.29115   1.22062   3.03697
H    -3.27046  -2.27958   3.66725
H    -3.44480  -2.62406   5.42293
H    -3.24451  -0.93946   4.82744
H     1.67094  -0.01020   5.87378
H     1.59506  -1.80414   5.94134
H     0.15706  -0.80636   6.34677
