25
Generated by autodE on: 2022-07-27. E = -593.354550 Ha
C     4.13859  -1.18042   0.16828
O     2.74510  -1.37868  -0.07808
C     1.94063  -0.31239   0.13951
O     2.40403   0.75264   0.52998
C     0.54086  -0.63065  -0.15678
C     0.17034  -1.96809  -0.70846
N    -0.44220   0.27390   0.04457
C    -0.14302   1.60615   0.62327
C    -1.73415  -0.01113  -0.26920
C    -2.91727   0.79957  -0.11452
C    -4.17796   0.10602  -0.60234
O    -3.00345   1.94826   0.35663
H     4.54255  -0.38854  -0.48007
H     4.62453  -2.13675  -0.05951
H     4.31588  -0.90855   1.21959
H    -0.56952  -2.47298  -0.06165
H     1.04887  -2.61057  -0.79695
H    -0.29401  -1.87334  -1.70684
H     0.38048   1.47605   1.57471
H     0.50589   2.15827  -0.06402
H    -1.08935   2.12759   0.76341
H    -1.90286  -0.99042  -0.70112
H    -4.08556  -0.17226  -1.66454
H    -4.35401  -0.82352  -0.03701
H    -5.03634   0.77836  -0.47397
