62
Generated by autodE on: 2022-06-09. E = -2264.031862 Ha. Imaginary frequency = -191.5 cm-1
C    -2.16282   0.73058  -2.53270
N    -3.31628   1.30415  -1.87272
C    -3.25645   2.07086  -0.77000
O    -2.20283   2.35475  -0.19459
C    -4.63572   2.49879  -0.18996
C    -5.16038   1.17946   0.43609
C    -4.64384   0.72748   1.65896
C    -5.06637  -0.48581   2.21082
C    -6.00279  -1.27804   1.54226
C    -6.50290  -0.84994   0.30913
C    -6.08191   0.36333  -0.23902
C    -4.41801   3.63739   0.85654
C    -5.60486   4.54266   1.21394
C    -6.89403   3.95600   1.81105
C    -7.82003   3.06955   0.95755
C    -8.02920   3.48568  -0.50343
Cl   -8.78109   5.15571  -0.53814
Cl   -9.25288   2.31101  -1.23199
C    -6.79056   3.42282  -1.27478
C    -5.61160   3.02935  -1.18474
C    -4.67483   4.04023  -3.30443
C    -4.88858   2.87497  -4.23428
C    -3.29905   4.38386  -2.86249
O    -3.00635   5.11943  -1.93339
O    -2.36387   3.75779  -3.58941
C    -1.00294   3.94338  -3.17817
N    -5.64806   4.97501  -3.21489
C    -5.41490   6.27121  -2.55541
C    -6.93667   4.56615  -3.38199
C    -8.10331   5.43295  -3.59701
C    -9.35908   4.68722  -3.98357
O    -8.11195   6.66547  -3.55604
H    -1.25942   1.01353  -1.98062
H    -2.07840   1.09624  -3.56701
H    -2.23411  -0.36857  -2.55489
H    -4.22794   1.12282  -2.27899
H    -3.89591   1.31527   2.19132
H    -4.65633  -0.81099   3.16997
H    -6.33660  -2.22358   1.97581
H    -7.23210  -1.45905  -0.23034
H    -6.49491   0.68755  -1.19463
H    -4.00289   3.19573   1.77132
H    -3.63184   4.28768   0.45184
H    -5.86333   5.16889   0.34795
H    -5.21441   5.24754   1.96690
H    -7.48878   4.81413   2.16212
H    -6.64704   3.36752   2.71077
H    -7.44569   2.03999   0.92185
H    -8.80968   3.02982   1.43624
H    -5.26018   3.23953  -5.20810
H    -5.62562   2.15529  -3.85140
H    -3.95063   2.34067  -4.40425
H    -0.70405   4.99356  -3.31027
H    -0.87825   3.65726  -2.12549
H    -0.40169   3.29460  -3.82493
H    -6.26688   6.91359  -2.77657
H    -4.49283   6.72274  -2.93037
H    -5.32894   6.11088  -1.47300
H    -7.05864   3.57125  -3.79501
H    -9.33456   4.51553  -5.07405
H    -9.43486   3.71049  -3.48997
H   -10.23810   5.30172  -3.74816
