49
Generated by autodE on: 2022-06-21. E = -1020.943919 Ha
C     0.18877   0.59404   2.74910
C     0.01888  -0.59000   2.14373
C     0.26544  -1.89056   2.85534
C    -0.43016  -0.71202   0.69823
C    -1.52585   0.31635   0.30093
C    -2.60654  -0.25382  -0.58466
C    -3.93423  -0.06685  -0.46977
C    -4.88392  -0.69527  -1.45469
C    -4.59373   0.77166   0.59029
C    -0.70477   1.32884  -0.46968
C    -1.24606   2.68724  -0.81873
C    -0.41352   3.57713  -1.69195
O    -2.33314   3.02218  -0.37349
N     0.46777   0.96276  -0.82245
C     0.71208  -0.40843  -0.34973
C     0.61752  -1.34868  -1.58562
C     1.22639  -0.85392  -2.86504
O     0.09088  -2.44136  -1.49694
C     2.13464  -0.56677   0.18515
C     2.68646  -1.84363   0.36903
C     3.97563  -1.99251   0.88775
C     4.73176  -0.86707   1.22665
C     4.18887   0.40830   1.04201
C     2.90050   0.55718   0.52276
H     0.52887   0.65172   3.78738
H     0.00569   1.54365   2.23888
H     0.62292  -1.73599   3.88394
H     1.00793  -2.49994   2.31508
H    -0.66132  -2.48980   2.89064
H    -0.77867  -1.73651   0.52653
H    -1.97088   0.78756   1.18452
H    -2.24509  -0.87192  -1.41390
H    -5.49279   0.07830  -1.95552
H    -4.35681  -1.27548  -2.22637
H    -5.59688  -1.36353  -0.94032
H    -5.41954   0.21246   1.06197
H    -5.04498   1.67120   0.13601
H    -3.90626   1.10436   1.37841
H    -0.92966   4.53305  -1.84701
H    -0.22912   3.08481  -2.65990
H     0.57082   3.74823  -1.22966
H     2.16969  -0.32150  -2.68099
H     0.53061  -0.13397  -3.32608
H     1.37839  -1.69491  -3.55420
H     2.10723  -2.73142   0.11005
H     4.38926  -2.99434   1.02495
H     5.74017  -0.98285   1.63077
H     4.77056   1.29520   1.30472
H     2.48143   1.55335   0.38124
