39
Generated by autodE on: 2022-06-18. E = -972.444837 Ha
C    -3.40383   1.38235   2.04569
N    -2.33958   1.04784   1.12172
C    -2.34306  -0.06849   0.39009
O    -3.27117  -0.87830   0.32526
C    -1.02876  -0.33049  -0.38738
C    -1.41446  -0.86178  -1.71905
N    -1.66910  -1.19837  -2.79993
N    -0.19394   0.84565  -0.50719
C    -0.55175   1.86220  -1.48155
C     1.21798   0.51113  -0.42354
C     1.92019   1.34511   0.64008
O     1.38353   2.15306   1.36960
O     3.22931   1.08789   0.65677
C     4.02244   1.80414   1.61632
C     1.28577  -1.00283  -0.16100
C     1.66678  -1.78522  -1.39897
O     1.84247  -1.30248  -2.49728
C    -0.12635  -1.36999   0.40026
C    -0.14779  -1.07946   1.90834
C    -0.55378  -2.82032   0.17312
H    -3.40227   2.46490   2.22688
H    -3.28006   0.86189   3.01056
H    -4.37278   1.09084   1.61831
H    -1.46713   1.57532   1.11999
H    -1.62383   2.09377  -1.41322
H    -0.32537   1.55372  -2.52064
H     0.00797   2.78327  -1.26287
H     1.73770   0.72245  -1.37458
H     5.05181   1.45341   1.48031
H     3.67765   1.58617   2.63734
H     3.96109   2.88625   1.43193
H     2.04402  -1.27147   0.59102
H     1.81069  -2.87565  -1.23094
H    -1.13580  -1.29658   2.33903
H     0.11581  -0.04069   2.14412
H     0.58375  -1.73664   2.40033
H    -0.56544  -3.10775  -0.88731
H    -1.56641  -2.97207   0.57302
H     0.13161  -3.49777   0.70333
