25
Generated by autodE on: 2022-06-18. E = -701.702403 Ha
C    -3.88033  -1.69461   1.17205
N    -3.16067  -0.62620   0.50953
C    -1.80877  -0.63674   0.43570
O    -1.15385  -1.56451   0.94418
C    -1.19048   0.50171  -0.27647
C    -2.03342   1.47326  -0.85581
N    -2.78623   2.24222  -1.31396
N     0.16953   0.67084  -0.42152
C     0.57642   1.87631  -1.18811
C     1.07770  -0.15825   0.07164
C     2.53256  -0.04651  -0.03662
O     3.21599   0.80551  -0.58512
O     3.07622  -1.09964   0.60484
C     4.50580  -1.17598   0.61239
H    -3.59951  -1.77294   2.23480
H    -3.67949  -2.66923   0.69880
H    -4.95512  -1.48661   1.10655
H    -3.69067   0.13814   0.10630
H     0.14717   1.80949  -2.19502
H     1.66338   1.91873  -1.24096
H     0.18345   2.76314  -0.67673
H     0.68883  -1.01409   0.61435
H     4.93861  -0.29451   1.10829
H     4.89588  -1.24182  -0.41411
H     4.75653  -2.08524   1.17101
