25
Generated by autodE on: 2022-07-27. E = -701.703558 Ha
C    -2.33675  -0.74679   2.64586
N    -2.12755  -0.34219   1.27024
C    -0.95409  -0.57129   0.64106
O     0.02016  -1.05628   1.23723
C    -0.91902  -0.26095  -0.80505
C    -2.11824  -0.17365  -1.53559
N    -3.13970  -0.08892  -2.10121
N     0.26315  -0.32483  -1.50611
C     0.19601  -0.75622  -2.91954
C     1.45654  -0.07036  -1.00212
C     1.69658   0.74929   0.19058
O     0.92961   1.56506   0.67075
O     2.94661   0.55798   0.63317
C     3.35855   1.35939   1.74890
H    -2.40265  -1.84314   2.75002
H    -1.50886  -0.39596   3.27905
H    -3.27285  -0.30377   3.00740
H    -2.91982   0.00701   0.74092
H    -0.34148   0.00908  -3.49528
H     1.21301  -0.85447  -3.31088
H    -0.34005  -1.71083  -2.98366
H     2.32103  -0.38628  -1.58384
H     4.38483   1.05171   1.97975
H     2.70256   1.17816   2.61274
H     3.33151   2.42751   1.48806
