39
Generated by autodE on: 2022-06-18. E = -972.367716 Ha. Imaginary frequency = -342.6 cm-1
C    -2.81576   0.59909   2.83244
N    -2.57662   0.42496   1.41288
C    -1.33783   0.54964   0.89465
O    -0.38609   0.93190   1.59079
C    -1.16876   0.14458  -0.52925
C    -2.34171  -0.27189  -1.21375
N    -3.31277  -0.68277  -1.71338
N    -0.13366   0.63931  -1.32275
C    -0.28254   0.47749  -2.78121
C     1.12303   0.75049  -0.83869
C     1.49139   1.69450   0.27389
O     1.10938   2.84727   0.27762
O     2.44525   1.22146   1.07097
C     2.94138   2.12014   2.07396
C     1.24950  -1.29601   0.02231
C     2.31633  -1.58075  -0.93078
O     2.22949  -2.14172  -2.02034
C    -0.04586  -1.87734   0.01083
C    -0.66833  -2.22449   1.33858
C    -0.51895  -2.74806  -1.12314
H    -2.33723  -0.19803   3.42559
H    -2.42147   1.56585   3.17771
H    -3.89729   0.57231   3.01302
H    -3.33001   0.06312   0.83841
H    -1.11579   1.10201  -3.12989
H     0.63803   0.81378  -3.26754
H    -0.47885  -0.56724  -3.05211
H     1.87803   0.83260  -1.62807
H     3.36585   3.02187   1.61004
H     2.12938   2.40521   2.75837
H     3.71810   1.56849   2.61556
H     1.61567  -0.96095   0.99221
H     3.31301  -1.21925  -0.57820
H    -0.33652  -1.55645   2.14322
H    -1.76677  -2.21750   1.28791
H    -0.36699  -3.25307   1.60746
H    -0.18229  -2.40258  -2.10400
H    -1.61434  -2.84539  -1.11835
H    -0.10462  -3.76301  -0.97794
