31
Generated by autodE on: 2022-06-11. E = -709.950878 Ha
C     4.35977  -0.44679   0.67505
C     3.18815   0.43301   0.33094
O     3.35393   1.61863   0.00437
C     1.83827  -0.13605   0.39201
C     1.53650  -1.53187   0.81901
N     0.89878   0.75278   0.07223
C    -0.43781   0.75926  -0.06835
C    -0.96831   2.10130  -0.29273
C    -2.44247   2.27913  -0.54722
O    -0.20515   3.08301  -0.28495
C    -1.25253  -0.47026  -0.11994
C    -2.33349  -0.66257   0.75900
C    -3.11476  -1.81691   0.68278
C    -2.83068  -2.79779  -0.27348
C    -1.76346  -2.61344  -1.15824
C    -0.98277  -1.45844  -1.08579
H     5.29211   0.10215   0.49127
H     4.34812  -1.37181   0.07737
H     4.31839  -0.74605   1.73526
H     1.36549  -2.20643  -0.03763
H     0.63163  -1.56626   1.44197
H     2.36962  -1.94159   1.40305
H     1.29884   1.69854  -0.08263
H    -2.99620   2.22226   0.40423
H    -2.84553   1.49688  -1.20581
H    -2.61084   3.27083  -0.98794
H    -2.54946   0.09279   1.51696
H    -3.94543  -1.95497   1.37895
H    -3.44099  -3.70214  -0.33028
H    -1.54049  -3.37087  -1.91339
H    -0.16014  -1.31194  -1.78863
