31
Generated by autodE on: 2022-07-27. E = -709.942411 Ha
C     1.97037   4.13400   0.02402
C     1.64770   2.71420   0.39809
O     2.03656   2.21976   1.46774
C     0.83405   1.91587  -0.52354
C     0.24469   2.45337  -1.77850
N     0.54015   0.70754  -0.02802
C    -0.10981  -0.37432  -0.51547
C    -0.10165  -0.71192  -1.93955
C     1.07117  -0.29008  -2.79870
O    -0.96063  -1.46057  -2.42262
C    -0.74675  -1.24587   0.48238
C    -1.15985  -0.71587   1.72526
C    -1.71220  -1.53551   2.71132
C    -1.88462  -2.90185   2.47684
C    -1.49208  -3.44054   1.24493
C    -0.92939  -2.62992   0.26176
H     1.04869   4.73807  -0.01753
H     2.43055   4.18173  -0.97546
H     2.65150   4.56392   0.76935
H    -0.65928   1.88651  -2.05123
H    -0.03259   3.50823  -1.63801
H     0.93129   2.41289  -2.63940
H     0.84731   0.64608   0.95627
H     1.46516  -1.20832  -3.26192
H     1.87764   0.20921  -2.24800
H     0.73431   0.36496  -3.61669
H    -1.07226   0.35568   1.91710
H    -2.02431  -1.09716   3.66226
H    -2.32580  -3.54272   3.24364
H    -1.61734  -4.50878   1.05178
H    -0.61780  -3.07256  -0.68318
