52
Generated by autodE on: 2022-06-11. E = -8835.108066 Ha. Imaginary frequency = -139.7 cm-1
C     2.74181   2.67318   9.19335
C     2.20477   1.33476   9.61339
O     2.42241   0.87417  10.73910
C     1.42878   0.54639   8.63401
C     1.39726   0.88675   7.17963
N     1.11059  -0.67020   9.12334
C     0.34444  -1.64853   8.62152
C     0.40092  -1.97007   7.15267
C     1.77487  -2.15711   6.55836
O    -0.60448  -2.21784   6.50721
C    -0.14338  -2.67374   9.56115
C    -0.48827  -2.31718  10.88159
C    -0.94095  -3.27977  11.78303
C    -1.06522  -4.61497  11.38462
C    -0.72922  -4.97854  10.07624
C    -0.27146  -4.02079   9.17263
C    -1.61170  -0.02869   8.67750
C    -1.10792   1.08188   8.92023
C    -1.38814   2.45858   9.29286
Br   -0.80460   3.70668   7.82951
Br   -0.40828   2.97316  10.95425
C    -2.89030   2.69051   9.49552
C    -3.55692   1.96665  10.67945
C    -3.17461   0.52298  11.03414
C    -3.56845  -0.63734  10.12019
C    -2.89090  -0.73976   8.71729
Br   -4.11736   0.14768   7.29548
C    -2.96549  -2.13838   8.29220
N    -3.17616  -3.25282   8.05045
H     1.95078   3.31123   8.77427
H     3.50113   2.53453   8.40544
H     3.20025   3.17004  10.05734
H     2.32216   0.56885   6.66963
H     1.30212   1.96869   7.04429
H     0.54722   0.41670   6.66753
H     1.30032  -0.70223  10.13491
H     2.56727  -1.62784   7.09861
H     1.99085  -3.23792   6.63392
H     1.77110  -1.88274   5.49427
H    -0.44147  -1.27208  11.19462
H    -1.21455  -2.98072  12.79738
H    -1.42942  -5.36699  12.08809
H    -0.82409  -6.01845   9.75564
H    -0.02097  -4.32392   8.15510
H    -3.35975   2.39258   8.54771
H    -3.05978   3.77096   9.60994
H    -4.64412   2.02324  10.50344
H    -3.36587   2.56471  11.58378
H    -3.67360   0.30197  11.99171
H    -2.09867   0.45923  11.25273
H    -4.65648  -0.68166   9.96880
H    -3.28704  -1.56428  10.64363
