47
Generated by autodE on: 2022-06-21. E = -1015.908305 Ha
C    -5.41082   1.94744  -0.36725
C    -4.20412   1.58785   0.11491
C    -3.79816   1.86913   1.53756
C    -3.24909   0.90136  -0.76149
C    -2.02052   0.49660  -0.39343
C    -1.06783  -0.21076  -1.31674
C    -0.69612  -1.57066  -0.76385
C    -1.62941  -2.66707  -0.76490
N    -2.41260  -3.52454  -0.78350
N     0.46980  -1.69575  -0.25678
C     1.16599  -0.39863  -0.34583
C     2.64383  -0.62672  -0.73347
O     3.35710   0.31882  -1.08684
N     3.07587  -1.89105  -0.62609
C     4.43448  -2.30560  -0.90568
C     1.15032   0.26020   1.04877
C     0.32344  -0.22545   2.07359
C     0.28384   0.40183   3.32290
C     1.07489   1.52412   3.57430
C     1.91326   2.00738   2.56506
C     1.95322   1.38179   1.31787
C     0.36518   0.40804  -1.46562
C     0.87828   0.02297  -2.86450
C     0.37104   1.92566  -1.32383
H    -6.14659   2.45951   0.25922
H    -5.69164   1.73663  -1.40366
H    -2.89158   2.49576   1.57466
H    -3.55491   0.93599   2.07237
H    -4.59896   2.38478   2.08584
H    -3.58185   0.71818  -1.78971
H    -1.67159   0.66734   0.62696
H    -1.54809  -0.32201  -2.29983
H     2.39207  -2.58001  -0.32633
H     4.90763  -2.73302  -0.00774
H     5.01359  -1.43305  -1.22971
H     4.45648  -3.06428  -1.70334
H    -0.30461  -1.09915   1.90668
H    -0.37194   0.00440   4.10114
H     1.04292   2.01615   4.54917
H     2.54341   2.88127   2.74691
H     2.61703   1.76412   0.54546
H     1.88156   0.42764  -3.04560
H     0.19981   0.43225  -3.62778
H     0.91803  -1.06896  -2.99892
H    -0.26459   2.36602  -2.10778
H    -0.01249   2.26248  -0.35274
H     1.38895   2.32011  -1.44968
