23
Generated by autodE on: 2022-06-21. E = -351.521383 Ha
C     3.60683   1.12749  -0.12878
C     2.56952   0.28458   0.06942
C     2.78890  -1.13189   0.53590
C     1.20191   0.74232  -0.16758
C     0.07887  -0.00035  -0.00038
C    -1.25587   0.50512  -0.24879
C    -2.42539  -0.16657  -0.09813
C    -3.73867   0.49874  -0.39896
C    -2.53240  -1.59107   0.36735
H     4.63993   0.81190   0.04159
H     3.44393   2.15540  -0.46729
H     3.85824  -1.34386   0.67609
H     2.27023  -1.32074   1.49051
H     2.38419  -1.85659  -0.19007
H     1.09656   1.77941  -0.50831
H     0.17571  -1.03502   0.33952
H    -1.31113   1.54440  -0.59485
H    -4.39077   0.49952   0.49303
H    -4.28982  -0.05767  -1.17840
H    -3.61123   1.53745  -0.73757
H    -3.04547  -2.20425  -0.39456
H    -3.15610  -1.64933   1.27688
H    -1.56392  -2.05853   0.58682
