24
Generated by autodE on: 2022-06-21. E = -664.304344 Ha
C    -2.28866  -3.25407  -0.04038
N    -1.26668  -2.23281   0.08928
C    -1.53921  -0.93887  -0.15115
O    -2.65640  -0.53279  -0.48225
C    -0.40159   0.03394   0.05585
N    -0.77870   1.24875   0.20567
C    -1.22420   2.35048   0.48234
C    -1.52295   3.44974  -0.32505
N    -1.81664   4.44761  -0.85990
C     1.03583  -0.30575   0.13060
C     1.87628   0.41014   1.00391
C     3.23712   0.11570   1.07084
C     3.78010  -0.89202   0.26566
C     2.95384  -1.59935  -0.61235
C     1.59014  -1.30964  -0.68546
H    -3.08023  -3.13055   0.71674
H    -2.75920  -3.20911  -1.03401
H    -1.82266  -4.23804   0.09035
H    -0.34756  -2.49864   0.42621
H     1.45509   1.19457   1.63640
H     3.87750   0.67334   1.75791
H     4.84648  -1.12214   0.32021
H     3.37299  -2.37779  -1.25370
H     0.96040  -1.85161  -1.39193
