47
Generated by autodE on: 2022-06-21. E = -1015.819070 Ha. Imaginary frequency = -367.5 cm-1
C    -5.56159   0.65892  -0.15410
C    -4.27579   1.03305   0.02091
C    -3.87247   1.97647   1.12506
C    -3.23691   0.51076  -0.86579
C    -1.91998   0.81240  -0.78040
C    -0.89002   0.23437  -1.63982
C    -0.64004  -1.64966  -0.52684
C    -1.69369  -2.56751  -0.58400
N    -2.65650  -3.20660  -0.75635
N     0.40851  -1.57450   0.10327
C     1.40069  -0.68628   0.26848
C     2.67183  -0.97096  -0.45076
O     3.58954  -0.13782  -0.53088
N     2.75811  -2.17204  -1.06279
C     3.87057  -2.49564  -1.93258
C     1.27210   0.25837   1.38509
C     0.04163   0.35742   2.07557
C    -0.14263   1.30049   3.08310
C     0.89808   2.16475   3.44375
C     2.12716   2.06168   2.78673
C     2.31924   1.12224   1.77255
C     0.40651   0.74719  -1.75526
C     1.25834   0.26046  -2.89635
C     0.84020   2.04143  -1.12895
H    -6.35789   1.02810   0.49818
H    -5.84595  -0.02911  -0.95618
H    -3.39420   2.88294   0.71828
H    -3.13396   1.50889   1.79754
H    -4.74134   2.28350   1.72396
H    -3.56983  -0.18835  -1.64182
H    -1.58158   1.49583   0.00036
H    -1.25172  -0.38295  -2.46832
H     1.98982  -2.82880  -0.98705
H     3.78735  -3.54663  -2.23544
H     4.83057  -2.35131  -1.41418
H     3.87499  -1.86637  -2.83813
H    -0.78373  -0.30702   1.82116
H    -1.10685   1.35751   3.59376
H     0.75322   2.90428   4.23447
H     2.95241   2.72223   3.06361
H     3.27648   1.05777   1.26253
H     2.33072   0.36556  -2.67877
H     1.05888   0.86918  -3.79872
H     1.04673  -0.78855  -3.14984
H     0.68470   2.86502  -1.85182
H     0.29090   2.29559  -0.21460
H     1.91442   2.02585  -0.89212
