19
Generated by autodE on: 2022-06-17. E = -456.665435 Ha
C    -2.84972  -1.27789   0.08106
N    -2.58913   0.12534  -0.08632
N    -1.34312   0.45569  -0.09337
C    -1.11912   1.90667  -0.26902
C    -0.29238  -0.38526   0.03923
C     1.08888   0.01822   0.02877
O     1.56980   1.14138  -0.09236
O     1.88136  -1.07930   0.18216
C     3.28972  -0.84661   0.19291
H    -2.44845  -1.67001   1.03631
H    -2.39979  -1.88863  -0.72616
H    -3.93608  -1.42906   0.07008
H    -0.53020   2.07883  -1.17635
H    -2.10692   2.36739  -0.34962
H    -0.57040   2.30002   0.59326
H    -0.50328  -1.44087   0.16184
H     3.62411  -0.39743  -0.75483
H     3.75999  -1.82886   0.32522
H     3.57487  -0.18162   1.02254
