19
Generated by autodE on: 2022-07-27. E = -456.654736 Ha
C    -2.54259  -1.60169   0.52835
N    -1.30227  -0.86868   0.42045
N    -1.02433  -0.36163  -0.72487
C    -1.94319  -0.53524  -1.88113
C     0.09561   0.35834  -0.99402
C     1.18317   0.71335  -0.12438
O     2.13605   1.38608  -0.52726
O     1.11939   0.27841   1.15329
C     2.21400   0.64115   1.99754
H    -2.59106  -2.47931  -0.14137
H    -2.62005  -1.96473   1.56124
H    -3.43402  -0.98159   0.32219
H    -2.92033  -0.10652  -1.62799
H    -2.06008  -1.60646  -2.08592
H    -1.52714  -0.02994  -2.75530
H     0.18245   0.72083  -2.01280
H     2.30180   1.73475   2.08500
H     3.16241   0.23738   1.61189
H     1.99509   0.20496   2.98012
