55
Generated by autodE on: 2022-12-30. E = -1282.231427 Ha
C     3.99516   2.40335   0.96095
N     2.83856   1.77869   0.35594
C     2.92743   0.70006  -0.43329
O     4.00598   0.20766  -0.79126
C     1.58660   0.08232  -0.85100
N     0.53431   1.07065  -0.92305
C     0.67657   2.00896  -2.02231
C    -0.78072   0.42200  -0.78133
C    -1.23429  -0.19133  -2.12285
C    -1.80424   1.43821  -0.26195
C    -3.17821   1.29216  -0.50831
C    -4.10278   2.20910   0.00033
C    -3.67226   3.29814   0.76254
C    -2.30595   3.45944   1.00981
C    -1.38520   2.53964   0.50228
C    -0.48390  -0.73120   0.26503
C    -1.53047  -1.84027   0.11359
O    -2.66693  -1.63403   0.56951
N    -1.21080  -2.97606  -0.51282
C    -2.17992  -4.03555  -0.69977
C    -0.52462  -0.29428   1.78266
C    -0.35256  -1.57701   2.58803
C     0.93954  -1.90238   2.46017
C     1.54369  -0.79906   1.61020
O     0.74775   0.33640   1.96172
C     1.06797  -1.02260   0.12361
O     1.34329  -2.31614  -0.35888
C     2.70085  -2.74265  -0.35377
H     3.71164   3.38878   1.35236
H     4.79288   2.53242   0.21536
H     4.39907   1.79734   1.79061
H     1.89814   2.03378   0.64847
H     1.77738  -0.41456  -1.82294
H     1.58821   2.60875  -1.88573
H    -0.17644   2.70145  -2.04017
H     0.74625   1.51578  -3.01186
H    -2.15807  -0.77342  -2.02794
H    -1.42015   0.60115  -2.86027
H    -0.45801  -0.86186  -2.51838
H    -3.54359   0.44825  -1.09144
H    -5.16713   2.06960  -0.20456
H    -4.39464   4.01663   1.15738
H    -1.95162   4.30789   1.60055
H    -0.32173   2.67400   0.69556
H    -0.23339  -3.09870  -0.77336
H    -2.55486  -4.41528   0.26486
H    -3.04701  -3.68199  -1.28024
H    -1.70394  -4.86112  -1.24326
H    -1.34696   0.37107   2.05233
H    -1.15936  -2.13451   3.06166
H     1.46440  -2.79100   2.80923
H     2.61152  -0.59669   1.73739
H     3.33275  -2.08802  -0.97149
H     2.70748  -3.75931  -0.76885
H     3.11224  -2.77472   0.66890
