24
Generated by autodE on: 2022-12-30. E = -630.222000 Ha
C     3.47601   0.61366   1.52601
N     2.19811   0.57681   0.85024
C     1.11703  -0.09995   1.31650
O     1.13378  -0.74922   2.38009
C    -0.09122  -0.02478   0.50019
C    -0.32316   0.48067  -0.73672
O     0.53692   1.11491  -1.52752
C     0.08705   1.59412  -2.80351
C    -1.77590   0.06384  -1.09362
C    -1.74221  -1.46496  -1.32013
C    -1.52320  -1.97934  -0.10628
C    -1.40451  -0.75879   0.83538
O    -2.36154   0.13095   0.21309
H     3.76670   1.64669   1.77772
H     3.40388   0.03552   2.45461
H     4.27348   0.17674   0.90265
H     2.10239   1.06706  -0.03374
H    -0.29114   0.76396  -3.41819
H    -0.69340   2.35889  -2.67599
H     0.96479   2.03950  -3.28617
H    -2.30902   0.67743  -1.82605
H    -1.82517  -1.95574  -2.28883
H    -1.38178  -3.01742   0.19315
H    -1.61216  -0.91714   1.89825
