31
Generated by autodE on: 2023-01-01. E = -651.921405 Ha
C     4.91076   0.80219  -0.15654
N     3.48081   0.57754  -0.19752
C     2.97110  -0.50012  -0.88609
O     3.75984  -1.20774  -1.56629
C     1.58196  -0.86349  -0.83366
N     0.49273  -0.18263  -0.32449
C     0.62655   1.27484  -0.11078
C    -0.69600  -0.77418  -0.15263
C    -0.81318  -2.21929  -0.50869
C    -1.88203  -0.06880   0.36144
C    -3.13052  -0.28528  -0.26279
C    -4.29117   0.31788   0.22067
C    -4.24019   1.14320   1.34931
C    -3.01581   1.35242   1.99167
C    -1.85163   0.75375   1.50819
H     5.45926  -0.01018   0.35479
H     5.32259   0.88825  -1.17282
H     5.10721   1.74187   0.37731
H     2.94146   0.96441   0.56593
H     1.38011  -1.83781  -1.26314
H    -0.34084   1.75738  -0.27070
H     1.34428   1.66662  -0.83558
H     0.96957   1.49588   0.90783
H    -0.04122  -2.80750   0.02148
H    -0.64791  -2.39736  -1.58775
H    -1.79884  -2.61256  -0.23647
H    -3.18408  -0.92222  -1.14800
H    -5.24177   0.14450  -0.28946
H    -5.14977   1.61303   1.73049
H    -2.96638   1.97815   2.88605
H    -0.91544   0.90137   2.04694
