31
Generated by autodE on: 2022-12-30. E = -651.922734 Ha
C     4.42889   1.27678  -0.91041
N     3.04580   1.10271  -0.52833
C     2.46481  -0.15274  -0.52889
O     3.07303  -1.09908  -1.09788
C     1.19428  -0.20109   0.12252
N     0.36831  -1.30472   0.23290
C     0.99410  -2.64423   0.24528
C    -0.94216  -1.23559   0.46655
C    -1.68782  -2.46376   0.89882
C    -1.67304   0.04236   0.35564
C    -2.60278   0.41193   1.34654
C    -3.35932   1.58047   1.22049
C    -3.21525   2.39400   0.09462
C    -2.30399   2.03031  -0.90651
C    -1.53629   0.87590  -0.77577
H     5.13797   0.78733  -0.21539
H     4.61299   0.86119  -1.91197
H     4.66196   2.34993  -0.93676
H     2.65064   1.79495   0.09842
H     0.74746   0.73781   0.43851
H     0.46595  -3.31063  -0.44706
H     2.03408  -2.54181  -0.06651
H     0.93309  -3.05944   1.26027
H    -1.61185  -3.27294   0.15407
H    -1.30614  -2.87100   1.85174
H    -2.75141  -2.23335   1.02723
H    -2.72758  -0.21763   2.23003
H    -4.06565   1.85309   2.00829
H    -3.80929   3.30512  -0.00730
H    -2.19425   2.65230  -1.79819
H    -0.82918   0.60722  -1.56259
