45
Generated by autodE on: 2022-10-21. E = -1262.435262 Ha. Imaginary frequency = -347.7 cm-1
C     1.03625   0.31664  -4.52834
N     0.49244  -0.27029  -3.31809
C    -0.43185   0.37725  -2.60034
O    -1.02195   1.39797  -2.95836
C    -0.79863  -0.25067  -1.28852
N    -2.05294  -0.09125  -0.80470
C    -2.18956  -0.96739   0.23449
C    -3.35060  -1.05511   1.03552
N    -4.32175  -1.12726   1.67162
C    -1.21484  -2.02983   0.01294
O    -1.03269  -3.10948   0.51797
O    -0.41583  -1.54110  -1.02841
C    -0.36559   0.03549   1.38451
C     0.20258   0.61079   0.42856
C     1.42684   1.44518   0.16658
O     1.92332   1.02718  -1.08421
C     3.14899   1.59964  -1.51736
O     1.15373   2.82788   0.18558
C     0.22405   3.31016  -0.77258
C     2.41431   1.22558   1.32606
C     2.80713  -0.23935   1.58875
C     2.29313  -0.83706   2.91283
C     0.88351  -1.43981   2.94681
C    -0.29047  -0.47634   2.76227
F    -1.46430  -1.15915   3.11734
H     1.54966   1.26835  -4.31395
H     1.75289  -0.38504  -4.97088
H     0.23540   0.51496  -5.25526
H     1.00437  -1.02291  -2.86794
H    -2.54696   0.79771  -0.88979
H     3.15061   2.69444  -1.39735
H     4.01255   1.17548  -0.97825
H     3.24582   1.35758  -2.58453
H     0.09988   4.38399  -0.57586
H    -0.75374   2.81082  -0.67168
H     0.58616   3.17044  -1.80211
H     3.30110   1.84102   1.11544
H     1.94197   1.66819   2.21526
H     2.49329  -0.87360   0.74294
H     3.90593  -0.29734   1.60966
H     2.97347  -1.65408   3.20186
H     2.38383  -0.07601   3.70763
H     0.73162  -1.90626   3.93388
H     0.79226  -2.23755   2.19360
H    -0.20303   0.37871   3.45489
