40
Generated by autodE on: 2022-06-17. E = -807.794914 Ha
C     3.35213   1.89436   2.61744
C     3.10337   1.24904   1.45982
C     4.04179   1.33274   0.28520
C     1.88409   0.44482   1.32680
C     1.51738  -0.24123   0.22802
C     0.24736  -1.01358   0.13152
C     0.34096  -2.51190  -0.28650
C     0.46456  -3.42959   0.93229
C     1.46594  -2.81696  -1.29295
C    -0.99048  -2.66354  -0.98321
N    -1.62135  -1.60333  -1.31572
C    -0.81466  -0.43268  -0.88511
C    -0.16285   0.10046  -2.09516
N     0.35549   0.50410  -3.05167
C    -1.64808   0.65956  -0.22752
C    -1.17413   1.97728  -0.16532
C    -1.89593   2.95426   0.52565
C    -3.09773   2.62380   1.15859
C    -3.57294   1.31004   1.09760
C    -2.85089   0.33097   0.41015
H     2.66037   1.82626   3.46264
H     4.24943   2.50546   2.74944
H     4.40531   0.33247  -0.00358
H     4.91124   1.96498   0.51373
H     3.53167   1.74858  -0.59967
H     1.22874   0.41889   2.20508
H     2.15097  -0.21989  -0.66236
H    -0.26409  -0.98243   1.10373
H     1.39594  -3.20660   1.47635
H     0.49266  -4.48703   0.62610
H    -0.38018  -3.28996   1.62452
H     2.44814  -2.71808  -0.80656
H     1.37116  -3.85003  -1.66145
H     1.44007  -2.14208  -2.16091
H    -1.40065  -3.65214  -1.22863
H    -0.23697   2.24486  -0.65762
H    -1.51649   3.97786   0.56692
H    -3.66341   3.38818   1.69643
H    -4.51235   1.04360   1.58779
H    -3.22192  -0.69348   0.36683
