40
Generated by autodE on: 2022-06-17. E = -807.704774 Ha. Imaginary frequency = -365.7 cm-1
C     2.26567   3.04992   1.55105
C     2.40219   1.86380   0.91269
C     3.47130   1.66106  -0.13189
C     1.49312   0.76511   1.20904
C     1.50245  -0.46119   0.60637
C     0.55692  -1.48939   0.91126
C     0.51980  -2.78547   0.40724
C    -0.23792  -3.83850   1.18930
C     1.62547  -3.30820  -0.48349
C    -0.97912  -2.62572  -1.19535
N    -1.10243  -1.50254  -1.61126
C    -0.81359  -0.20685  -1.45039
C     0.21275   0.32081  -2.26579
N     1.08692   0.77206  -2.89699
C    -1.51960   0.62369  -0.48386
C    -1.06162   1.93060  -0.21592
C    -1.67023   2.70503   0.77422
C    -2.74410   2.19938   1.51041
C    -3.21127   0.90375   1.24198
C    -2.61092   0.12240   0.25885
H     1.48246   3.20108   2.30042
H     2.92663   3.89402   1.33592
H     4.13012   0.81674   0.13056
H     4.09249   2.56087  -0.24508
H     3.02382   1.42137  -1.11061
H     0.73574   0.95912   1.97540
H     2.25753  -0.67263  -0.15532
H    -0.20872  -1.23003   1.65122
H    -0.59019  -4.65934   0.54541
H    -1.10268  -3.40829   1.71677
H     0.43052  -4.28832   1.94534
H     2.48761  -3.62776   0.12919
H     1.28999  -4.18813  -1.05405
H     1.98050  -2.55227  -1.19814
H    -1.43807  -3.58576  -1.45869
H    -0.22011   2.33863  -0.77703
H    -1.29130   3.71033   0.97338
H    -3.21791   2.80592   2.28534
H    -4.05457   0.49972   1.80746
H    -2.98058  -0.88682   0.06667
