55
Generated by autodE on: 2022-06-26. E = -1547.492849 Ha
C    -3.01935   3.84232  -0.25722
O    -1.87964   3.00239   0.00119
C    -1.97622   2.17862   1.02353
O    -2.88353   2.15260   1.82420
C    -0.72233   1.27772   1.17865
C    -0.26621   1.43760   2.57925
N     0.08907   1.61701   3.66753
O     0.29121   1.68207   0.29246
C     0.95643   0.58308  -0.34741
C     0.55496   0.55558  -1.84193
C     0.13099   1.85223  -2.45238
O     0.63675  -0.48442  -2.46775
C     2.46508   0.80172  -0.29401
C     3.33129  -0.00539  -1.04578
C     4.71283   0.18015  -0.95965
C     5.24082   1.17643  -0.13347
C     4.37749   1.98646   0.60979
C     2.99530   1.80142   0.53148
C     0.50206  -0.66772   0.48598
O     1.35079  -0.67883   1.59553
C     1.33113  -1.75451   2.53791
C     0.55231  -2.00661  -0.27086
O     1.59742  -2.63396  -0.26315
C    -0.67119  -2.52986  -0.93114
C    -0.52065  -3.80600  -1.69214
C    -1.84182  -1.83039  -0.92539
C    -3.05080  -2.28226  -1.68414
C    -1.91149  -0.50765  -0.27659
O    -2.73256   0.33490  -0.59877
C    -0.94107  -0.26149   0.89138
O    -1.31241  -1.01927   1.99898
C    -2.68825  -1.04657   2.39440
H    -3.89414   3.21804  -0.48780
H    -2.74650   4.45585  -1.12252
H    -3.23103   4.47534   0.61531
H     0.12856   1.75876  -3.54547
H    -0.88205   2.09458  -2.09486
H     0.78823   2.67180  -2.12712
H     2.93245  -0.78132  -1.69840
H     5.37845  -0.45687  -1.54643
H     6.32163   1.32282  -0.07122
H     4.78029   2.76786   1.25840
H     2.32427   2.42783   1.11801
H     0.67647  -2.57890   2.23338
H     0.98547  -1.37065   3.50888
H     2.36022  -2.13117   2.63860
H     0.37660  -4.35065  -1.37499
H    -0.41824  -3.58208  -2.76899
H    -1.40435  -4.44927  -1.57739
H    -3.33420  -3.30459  -1.38945
H    -2.83836  -2.30918  -2.76617
H    -3.90086  -1.61095  -1.51396
H    -3.06073  -0.03667   2.61088
H    -3.32014  -1.52033   1.62572
H    -2.72039  -1.65774   3.30501
