29
Generated by autodE on: 2022-06-26. E = -857.973575 Ha
C     3.99625  -1.85299  -0.20109
O     2.76232  -1.12668  -0.17046
C     2.85245   0.21053  -0.30923
O     3.91567   0.80231  -0.46310
C     1.57530   0.87831  -0.26183
C     1.48059   2.27237  -0.35502
N     1.40421   3.43853  -0.42711
O     0.48705   0.08336  -0.06099
C    -0.77337   0.30306   0.01885
C    -1.34541   1.70569  -0.16241
C    -1.53756   2.16632  -1.56978
O    -1.66590   2.32432   0.83104
C    -1.62382  -0.82537   0.30130
C    -1.06799  -2.11835   0.45512
C    -1.89707  -3.20044   0.71856
C    -3.28301  -3.01634   0.83404
C    -3.84006  -1.74155   0.68466
C    -3.02124  -0.64770   0.41937
H     3.72729  -2.90909  -0.08155
H     4.65550  -1.53694   0.62088
H     4.51436  -1.70184  -1.15952
H    -2.45072   1.67312  -1.94934
H    -1.66897   3.25637  -1.59585
H    -0.70613   1.84924  -2.21646
H     0.01039  -2.25277   0.36396
H    -1.46665  -4.19688   0.83665
H    -3.92937  -3.87178   1.04214
H    -4.91858  -1.59994   0.77626
H    -3.46341   0.34354   0.30936
