26
Generated by autodE on: 2022-06-26. E = -689.460863 Ha
C    -3.10093  -0.96992  -0.02894
O    -2.19336  -0.23833  -0.85980
C    -0.91353  -0.13211  -0.39520
C    -0.38948   1.03108   0.08453
O    -0.97355   2.21899   0.23955
C    -2.35875   2.44351  -0.04296
C     1.05545   1.08199   0.50577
O     1.51153   2.13839   0.92129
C     1.88663  -0.14625   0.42191
C     3.31068  -0.05356   0.87604
C     1.35293  -1.29930  -0.05204
C     2.15148  -2.56027  -0.15385
C    -0.06809  -1.33974  -0.51189
O    -0.54236  -2.36571  -0.99660
H    -4.07145  -0.96198  -0.54254
H    -2.76961  -2.00969   0.10916
H    -3.20456  -0.48298   0.95509
H    -2.53490   3.49902   0.20014
H    -2.58056   2.26322  -1.10265
H    -2.99729   1.81000   0.58898
H     3.55369   0.95950   1.21737
H     3.99902  -0.32660   0.05934
H     3.50353  -0.76027   1.69998
H     2.53617  -2.85755   0.83584
H     3.03237  -2.41242  -0.80047
H     1.54814  -3.38002  -0.56083
