54
Generated by autodE on: 2022-06-05. E = -1319.872484 Ha
C    -1.60797  -1.53176  -3.17168
C    -1.34159  -0.26584  -2.40041
O    -1.38144   0.81462  -2.96236
C    -0.93386  -0.36844  -0.89121
C    -1.95032  -1.20108  -0.12386
C    -1.56090  -2.04671   0.92261
C    -2.52109  -2.73194   1.67271
C    -3.88112  -2.57592   1.38991
C    -4.27668  -1.72657   0.35154
C    -3.31657  -1.04419  -0.39898
C    -0.81011   1.06684  -0.31801
C    -1.09031   1.23374   1.20676
O     0.14910   0.83419   1.80487
C     0.97315   1.77862   1.11898
C     0.21266   3.08287   1.39015
C     0.77937   4.37560   1.41589
N     1.26463   5.43580   1.43817
C    -1.09620   2.74074   1.43970
C    -2.31838   3.56776   1.53448
C     0.69990   1.43495  -0.37404
C     1.42262   0.14937  -0.90441
C     1.74585   0.36330  -2.34685
N     1.93383   0.46502  -3.48781
C     2.71612  -0.16436  -0.14508
C     2.67138  -0.95951   1.00745
C     3.83145  -1.18423   1.75182
C     5.04545  -0.61330   1.35677
C     5.09235   0.18364   0.20968
C     3.93297   0.40444  -0.53918
N     0.43004  -0.90695  -0.77725
C     0.77698  -2.20691  -1.32446
H    -1.80213  -2.40355  -2.53866
H    -2.45730  -1.35818  -3.84833
H    -0.72417  -1.73540  -3.79865
H    -0.50225  -2.15948   1.15616
H    -2.20258  -3.38917   2.48538
H    -4.63045  -3.11232   1.97674
H    -5.33702  -1.59295   0.12477
H    -3.63988  -0.37482  -1.20055
H    -1.43695   1.74352  -0.90443
H    -1.93690   0.67478   1.61376
H     2.01304   1.73757   1.45158
H    -2.93135   3.24966   2.39441
H    -2.93898   3.41245   0.63470
H    -2.08881   4.63820   1.62767
H     0.92781   2.29100  -1.01704
H     1.72200  -1.39090   1.32215
H     3.78515  -1.80895   2.64689
H     5.95195  -0.79054   1.94017
H     6.03501   0.63484  -0.10838
H     3.98078   1.02855  -1.43422
H     0.98308  -2.19115  -2.41061
H     1.67584  -2.58932  -0.82036
H    -0.03709  -2.91736  -1.13908
