37
Generated by autodE on: 2022-06-05. E = -880.641792 Ha
C     2.87189  -1.02635  -2.42716
C     1.58451  -1.60951  -1.88655
O     1.06420  -2.57145  -2.47064
C     0.99085  -1.03080  -0.68344
C     1.30498   0.34067  -0.24675
C     1.52806   0.62267   1.11645
C     1.84368   1.91284   1.53421
C     1.93425   2.95541   0.60222
C     1.70817   2.69164  -0.75044
C     1.39002   1.39823  -1.17038
N     0.07684  -1.77094   0.01998
C     0.20996  -3.24456   0.07675
C    -0.92994  -1.22377   0.75260
C    -1.48654  -1.98177   1.81238
N    -1.99683  -2.55480   2.69422
C    -1.50799   0.10472   0.51436
C    -1.64604   0.62107  -0.79049
C    -2.25846   1.85408  -0.99930
C    -2.72920   2.60518   0.08433
C    -2.59655   2.10277   1.38255
C    -1.99532   0.86283   1.59717
H     3.47929  -1.85975  -2.81024
H     3.44313  -0.45660  -1.68418
H     2.65338  -0.36366  -3.28024
H     1.45436  -0.17976   1.85343
H     2.02238   2.10905   2.59399
H     2.17622   3.96801   0.93310
H     1.76600   3.49877  -1.48439
H     1.18494   1.21062  -2.22515
H     1.19958  -3.54174  -0.27211
H     0.09634  -3.55438   1.12298
H    -0.57105  -3.71763  -0.53032
H    -1.28128   0.04738  -1.64349
H    -2.36385   2.23573  -2.01731
H    -3.19752   3.57751  -0.08415
H    -2.95903   2.68142   2.23514
H    -1.89239   0.47804   2.61377
