37
Generated by autodE on: 2022-07-27. E = -880.641678 Ha
C     0.31536  -0.29676  -2.65396
C    -0.98009  -0.15550  -1.87579
O    -2.02266   0.06659  -2.50600
C    -1.02658  -0.40483  -0.43473
C    -2.31006  -0.70801   0.21797
C    -2.64106  -0.09536   1.44409
C    -3.85984  -0.36004   2.06895
C    -4.77641  -1.23641   1.47865
C    -4.46376  -1.84450   0.25747
C    -3.24489  -1.58433  -0.36815
N     0.11312  -0.30984   0.31397
C     0.37144  -1.26636   1.40937
C     1.00819   0.67425   0.02820
C     0.49145   1.88432  -0.50539
N     0.13239   2.92265  -0.90436
C     2.45236   0.56849   0.24430
C     3.12562  -0.66830   0.15592
C     4.50317  -0.73820   0.35778
C     5.23760   0.41907   0.63737
C     4.58351   1.65479   0.70500
C     3.20712   1.73228   0.50694
H     0.08494  -0.92308  -3.52931
H     0.63530   0.68673  -3.03268
H     1.14252  -0.74823  -2.09376
H    -1.93947   0.60643   1.90079
H    -4.09928   0.12877   3.01629
H    -5.73196  -1.44253   1.96645
H    -5.17363  -2.53219  -0.20825
H    -3.00659  -2.07104  -1.31460
H     1.12163  -0.85412   2.09110
H     0.71445  -2.22219   0.99262
H    -0.55966  -1.43898   1.95640
H     2.57588  -1.57471  -0.09661
H     5.00888  -1.70339   0.28253
H     6.31723   0.36020   0.79202
H     5.15005   2.56449   0.91589
H     2.70419   2.69963   0.56454
