17
Generated by autodE on: 2022-06-05. E = -439.145379 Ha
C     2.01118   1.25570  -0.65273
C     0.82176   0.39574  -0.48232
C     0.33771  -0.26815   0.59082
C     0.86179  -0.32959   1.89591
N     1.28571  -0.39367   2.98161
C    -1.01589  -0.87855   0.11343
C    -1.98256   0.30428  -0.10525
C    -1.49529   0.95472  -1.16618
C    -0.24469   0.15077  -1.57977
O    -0.65926  -1.18452  -1.24193
H     2.61586   1.31257   0.26303
H     1.69249   2.27466  -0.93606
H     2.63881   0.88555  -1.48098
H    -1.38202  -1.75123   0.66301
H    -2.82799   0.54886   0.53670
H    -1.82669   1.88131  -1.63307
H     0.10013   0.23509  -2.61580
