54
Generated by autodE on: 2022-06-05. E = -1319.772125 Ha. Imaginary frequency = -233.2 cm-1
C    -0.64909  -1.31724  -3.53118
C    -1.22563  -0.38273  -2.49346
O    -2.04258   0.46894  -2.80640
C    -0.92889  -0.73255  -1.04848
C    -2.06723  -1.35780  -0.33600
C    -2.02468  -1.61288   1.05428
C    -3.11058  -2.17771   1.72027
C    -4.28104  -2.49883   1.02634
C    -4.34889  -2.24277  -0.34583
C    -3.26236  -1.68302  -1.01720
C    -0.88258   1.52855  -0.23117
C    -1.25048   1.39289   1.25442
O    -0.02782   0.84807   1.78650
C     0.82499   1.88484   1.27953
C     0.10427   3.12355   1.88802
C     0.71652   4.33076   2.27519
N     1.24131   5.32259   2.59692
C    -1.21279   2.81656   1.85295
C    -2.41509   3.60680   2.18983
C     0.45322   1.86520  -0.20691
C     1.42876  -0.26025  -1.10591
C     1.35245   0.47692  -2.31990
N     1.36727   1.12303  -3.29355
C     2.79579  -0.44301  -0.56808
C     3.03094  -0.59197   0.81528
C     4.33009  -0.70559   1.30780
C     5.42561  -0.66266   0.43863
C     5.20769  -0.50249  -0.93282
C     3.90904  -0.39390  -1.43126
N     0.36820  -1.05975  -0.72491
C     0.66602  -2.27255   0.06483
H    -1.40345  -2.11279  -3.66770
H    -0.51974  -0.78957  -4.48556
H     0.28721  -1.79906  -3.22617
H    -1.14270  -1.34299   1.62903
H    -3.04239  -2.35726   2.79573
H    -5.13237  -2.93920   1.55011
H    -5.25491  -2.48583  -0.90577
H    -3.35571  -1.50265  -2.08740
H    -1.60606   1.76316  -1.00753
H    -2.12617   0.79488   1.51995
H     1.87316   1.74453   1.55804
H    -3.02647   3.07737   2.94015
H    -3.04972   3.71294   1.29209
H    -2.16250   4.60702   2.56831
H     1.00510   2.42383  -0.95773
H     2.19545  -0.60143   1.51248
H     4.48724  -0.81762   2.38308
H     6.44210  -0.74885   0.82908
H     6.05363  -0.46715  -1.62315
H     3.75417  -0.27617  -2.50531
H     1.61938  -2.68160  -0.28628
H     0.73478  -2.08515   1.14065
H    -0.12237  -3.00711  -0.12387
