29
Generated by autodE on: 2022-05-31. E = -778.038958 Ha
C     0.81649  -3.01362  -3.22261
O     1.30738  -1.89766  -2.46294
C     0.67111  -1.61357  -1.32823
O    -0.27462  -2.25054  -0.91244
C     1.25233  -0.36481  -0.65433
C     2.78940  -0.40992  -0.62541
C     0.66070  -0.21526   0.67075
C    -0.02094   0.16248   1.59887
C    -1.06587   1.02923   2.14613
F    -0.48587   2.09016   2.80695
F    -1.83305   0.39203   3.08748
C    -1.95313   1.54396   1.01892
C    -1.21093   2.16929  -0.17766
C    -0.74863   1.23862  -1.33453
C     0.75180   0.89843  -1.44561
H    -0.22720  -2.84173  -3.52231
H     0.88122  -3.93722  -2.63008
H     1.46045  -3.08227  -4.10665
H     3.14657  -1.32105  -0.12349
H     3.17195   0.46506  -0.08101
H     3.18722  -0.39039  -1.64852
H    -2.57602   0.69834   0.68855
H    -2.62218   2.28699   1.48202
H    -0.35902   2.76327   0.19404
H    -1.90899   2.90106  -0.61063
H    -1.00959   1.74705  -2.27506
H    -1.34600   0.31112  -1.33066
H     1.01745   0.72946  -2.50009
H     1.35453   1.75165  -1.09688
