15
Generated by autodE on: 2022-05-31. E = -437.142789 Ha
C     3.12894  -0.57172   0.23539
N     2.03135  -1.34566   0.72970
O     0.87233  -0.79841   0.44919
C     0.62878   0.31294  -0.19123
C    -0.76324   0.68815  -0.37463
O    -1.09073   1.71058  -0.95986
O    -1.63660  -0.18476   0.15057
C    -3.02508   0.13307  -0.00775
H     4.05181  -1.09654   0.50751
H     3.08937  -0.44886  -0.86701
H     3.14878   0.45028   0.66782
H     1.42221   0.94557  -0.58167
H    -3.57803  -0.68099   0.47520
H    -3.26190   1.09131   0.47786
H    -3.29080   0.19070  -1.07366
