35
Generated by autodE on: 2022-06-18. E = -841.570126 Ha
C     2.69421  -1.89112  -0.92081
C     3.07336  -0.56235  -0.34363
O     4.22518  -0.22566  -0.14716
C     1.92018   0.42402  -0.02606
C     2.43783   1.42933   0.92144
N     2.82010   2.21277   1.68743
C     1.46811   1.12483  -1.35970
C     0.07350   0.55920  -1.62153
C    -0.46833   0.28549  -0.21225
C    -0.97368   1.57991   0.48103
C    -1.94265   2.45373  -0.26086
O    -0.58566   1.84817   1.60509
C    -1.63779  -0.69417  -0.14087
C    -2.38606  -1.04044  -1.27459
C    -3.46270  -1.92693  -1.17111
C    -3.80845  -2.47457   0.06695
C    -3.07556  -2.12367   1.20544
C    -2.00374  -1.23464   1.10278
N     0.71782  -0.25040   0.46932
H     1.93235  -1.78598  -1.70693
H     3.59014  -2.38889  -1.31332
H     2.24486  -2.50824  -0.12733
H     2.17472   0.93580  -2.17838
H     1.42909   2.20987  -1.19523
H     0.13665  -0.39318  -2.16505
H    -0.55169   1.24389  -2.20621
H    -2.50310   3.07760   0.44798
H    -1.36348   3.11696  -0.92615
H    -2.62705   1.87011  -0.89145
H    -2.13526  -0.61969  -2.24890
H    -4.03240  -2.18977  -2.06562
H    -4.64854  -3.16857   0.14595
H    -3.34180  -2.54042   2.17965
H    -1.45132  -0.95685   2.00321
H     0.63360  -0.17432   1.48141
