35
Generated by autodE on: 2022-06-18. E = -841.497223 Ha. Imaginary frequency = -381.5 cm-1
C     3.02073  -2.00997   0.37132
C     3.15943  -0.51670   0.21128
O     4.25595   0.01984   0.04518
C     1.93770   0.29193   0.21040
C     2.10442   1.70241   0.19061
N     2.25654   2.85875   0.16267
C     1.42237   0.22871  -2.17072
C     0.06856  -0.04099  -2.08490
C    -0.45469   0.16112  -0.00868
C    -0.77474   1.66265   0.09326
C    -0.75535   2.20812   1.49710
O    -1.14568   2.32574  -0.85275
C    -1.65874  -0.69103   0.18813
C    -2.84793  -0.36806  -0.49386
C    -3.98000  -1.17214  -0.36521
C    -3.95114  -2.30727   0.45088
C    -2.77924  -2.62904   1.14217
C    -1.64341  -1.82824   1.01699
N     0.71886  -0.26418   0.53090
H     4.00804  -2.47386   0.25532
H     2.62446  -2.25783   1.37060
H     2.32879  -2.42848  -0.37665
H     2.14999  -0.57598  -2.29230
H     1.78298   1.24073  -2.36735
H    -0.27234  -1.07614  -2.16194
H    -0.65223   0.73081  -2.35915
H     0.05376   1.78749   2.10694
H    -0.69743   3.30384   1.46810
H    -1.70870   1.91101   1.96820
H    -2.88160   0.51181  -1.13727
H    -4.89093  -0.90877  -0.90733
H    -4.83934  -2.93465   0.55305
H    -2.74851  -3.50502   1.79388
H    -0.75371  -2.08953   1.59278
H     0.76520  -1.26603   0.70948
