36
Generated by autodE on: 2022-10-06. E = -709.000440 Ha
C     4.29115   0.43291   0.46947
N     2.95034   0.30064   1.03871
C     2.01343  -0.40653   0.19010
N     2.43901  -1.70739  -0.18232
N     0.72399  -0.52586   1.03798
C    -0.19483   0.64113   0.66605
C    -0.39222   1.56085   1.85991
C    -1.53027   0.11991   0.14503
C    -2.12976   0.74894  -0.95254
C    -3.38140   0.32669  -1.40662
C    -4.04545  -0.72374  -0.76609
C    -3.45541  -1.34511   0.33823
C    -2.20612  -0.92014   0.79778
O     0.54907   1.32358  -0.32025
C     1.45779   0.43729  -0.98703
C     0.82676  -0.34171  -2.13033
H     4.78842  -0.54486   0.41175
H     4.30716   0.88466  -0.54049
H     4.88871   1.07205   1.13363
H     2.58213   1.23654   1.21985
H     3.09283  -2.08876   0.50081
H     2.89176  -1.70322  -1.09478
H     0.29449  -1.43395   0.82422
H     0.96883  -0.51871   2.03627
H    -0.95876   1.04634   2.64832
H     0.57775   1.89451   2.25770
H    -0.96671   2.43682   1.52982
H    -1.60828   1.56412  -1.45401
H    -3.83799   0.81996  -2.26774
H    -5.02235  -1.05588  -1.12482
H    -3.96899  -2.16245   0.84929
H    -1.76782  -1.40658   1.67302
H     2.26295   1.07323  -1.37786
H     0.34153   0.36141  -2.82200
H     0.07996  -1.07248  -1.79091
H     1.60785  -0.87728  -2.68982
