13
Generated by autodE on: 2022-10-06. E = -245.298496 Ha
C     1.86790   0.40613   0.50900
N     0.84726  -0.40867  -0.12710
C    -0.45338  -0.10708  -0.12849
N    -0.89345   0.98497   0.50016
N    -1.32009  -0.90435  -0.76054
H     2.84021  -0.07125   0.34378
H     1.70138   0.48568   1.59504
H     1.90169   1.42011   0.07911
H     1.13278  -1.24300  -0.62961
H    -1.88041   1.21848   0.48718
H    -0.25605   1.61099   0.97739
H    -2.31070  -0.68805  -0.76203
H    -0.99819  -1.73754  -1.24053
