36
Generated by autodE on: 2022-10-06. E = -708.928168 Ha. Imaginary frequency = -378.1 cm-1
C     4.26719   0.52234   0.53168
N     3.01684   0.10038   1.13772
C     2.19970  -0.77986   0.46032
N     2.80045  -1.73756  -0.33523
N     1.03149  -1.09572   1.08273
C    -0.44041   1.06877   0.56760
C    -0.45568   1.73920   1.89973
C    -1.63494   0.38840   0.06150
C    -2.14810   0.67921  -1.21947
C    -3.32692   0.07760  -1.66040
C    -4.01708  -0.81380  -0.83296
C    -3.53089  -1.08611   0.45172
C    -2.35842  -0.48216   0.90221
O     0.61842   1.30463  -0.14794
C     1.27723   0.56357  -1.08298
C     0.60532  -0.36680  -2.03075
H     4.94091  -0.33689   0.40347
H     4.12911   1.00728  -0.45224
H     4.75781   1.23837   1.20309
H     2.48485   0.87113   1.53778
H     2.14158  -2.40209  -0.73511
H     3.40608  -1.35682  -1.05964
H     0.47390  -1.86850   0.73579
H     0.89856  -0.83616   2.05421
H    -0.51273   0.98569   2.70568
H     0.46347   2.32390   2.04123
H    -1.33657   2.39255   2.01251
H    -1.63253   1.40029  -1.85424
H    -3.71368   0.31447  -2.65429
H    -4.93760  -1.28660  -1.18273
H    -4.06908  -1.77630   1.10558
H    -1.98014  -0.70526   1.90167
H     2.10603   1.16586  -1.46285
H    -0.05816   0.14626  -2.75112
H     0.00856  -1.14030  -1.52657
H     1.39363  -0.86609  -2.61374
