40
Generated by autodE on: 2022-05-30. E = -1139.709464 Ha
C     5.17338  -0.05089   0.48496
N     3.72614  -0.05580   0.54215
C     3.00164   0.09491  -0.56164
O     3.47435   0.22934  -1.69873
C     1.49915   0.07917  -0.42304
C     0.57860   0.00577   0.58686
C     0.80492  -0.04010   2.04482
C    -0.36393   0.08818   2.98031
O     1.93827  -0.16158   2.52039
C    -0.80879  -0.09295  -0.07724
C    -1.23596  -1.58280  -0.09359
O    -1.21634  -2.24514   0.94730
N    -1.59914  -2.06662  -1.28367
C    -2.01780  -3.44572  -1.45213
C    -1.89256   0.83275   0.44577
C    -3.14226   0.36205   0.86234
C    -4.10758   1.25899   1.32954
C    -3.83192   2.62747   1.37684
C    -2.58575   3.10154   0.95041
C    -1.62123   2.20845   0.48540
O    -0.54510   0.36245  -1.43328
N     0.83990   0.20146  -1.64035
C     1.18351  -0.13194  -2.87991
N     1.33067  -0.38145  -4.01040
H     5.54685  -0.86631  -0.15463
H     5.55196   0.89866   0.07422
H     5.56726  -0.18352   1.49952
H     3.21605  -0.15093   1.43456
H    -1.15505  -0.62579   2.72204
H    -0.78984   1.10078   2.90982
H    -0.00899  -0.08769   4.00343
H    -1.56689  -1.44422  -2.08553
H    -1.25654  -4.13449  -1.05601
H    -2.15941  -3.64473  -2.52090
H    -2.96425  -3.64184  -0.92372
H    -3.36776  -0.70487   0.84682
H    -5.07877   0.88279   1.65831
H    -4.58685   3.32603   1.74486
H    -2.36467   4.17069   0.98312
H    -0.64729   2.57688   0.15709
