16
Generated by autodE on: 2022-05-30. E = -438.207048 Ha
C    -2.53611  -1.34017   0.56853
N    -2.42609  -0.69907  -0.72819
C    -1.37610  -0.01789  -1.21590
O    -1.34849   0.50372  -2.33610
C    -0.20529   0.10181  -0.34890
C     0.81745   0.26468   0.28881
C     2.03443   0.45686   1.06809
C     3.15567  -0.49722   0.78664
O     2.09376   1.35634   1.89245
H    -2.64348  -2.43055   0.46017
H    -1.63840  -1.13717   1.16523
H    -3.41003  -0.95548   1.11550
H    -3.21781  -0.76830  -1.36525
H     4.01522  -0.26405   1.42875
H     3.44110  -0.42779  -0.27604
H     2.81509  -1.53102   0.96207
