24
Generated by autodE on: 2022-07-27. E = -701.402664 Ha
C     0.85900  -2.63677   1.00950
N     0.08450  -2.58925  -0.21847
C    -0.24478  -1.48501  -0.88644
O    -0.81273  -1.42928  -1.97680
C     0.06586  -0.14317  -0.24049
O     1.21871   0.37287  -0.42083
N     2.19127  -0.42888  -1.09606
C     3.29244   0.28828  -1.16113
N     4.33524   0.82235  -1.28697
C    -0.93878   0.63235   0.43593
C    -2.21018   0.06380   0.67711
C    -3.18148   0.80140   1.34629
C    -2.89825   2.10173   1.77911
C    -1.63794   2.67153   1.54446
C    -0.65918   1.94685   0.87834
H     0.45593  -3.41676   1.66932
H     1.91907  -2.85163   0.80642
H     0.79059  -1.67862   1.54200
H    -0.11011  -3.46629  -0.70032
H    -2.43349  -0.94931   0.33982
H    -4.16341   0.36266   1.53232
H    -3.66404   2.67763   2.30344
H    -1.42542   3.68680   1.88466
H     0.32328   2.38184   0.69128
