31
Generated by autodE on: 2022-10-21. E = -618.602851 Ha
C     1.97408   2.94262  -0.38262
O     0.89995   2.01539  -0.24461
C     1.18373   0.74484   0.11665
C     0.26546  -0.23893   0.34572
C    -1.19064  -0.19510   0.24603
C    -1.91086   1.02349   0.20706
C    -3.30205   1.03620   0.11244
C    -4.02550  -0.16094   0.04990
C    -3.33213  -1.37467   0.08610
C    -1.93963  -1.39302   0.18498
C     1.08861  -1.52281   0.47902
C     1.62054  -1.86912  -0.94724
C     2.63423  -0.71903  -1.22093
C     2.56986   0.12366   0.09769
C     2.37207  -0.98938   1.14147
H     1.51720   3.90412  -0.65032
H     2.66799   2.63864  -1.18191
H     2.52881   3.05659   0.56233
H    -1.36700   1.96572   0.25679
H    -3.82904   1.99378   0.08841
H    -5.11533  -0.14677  -0.02555
H    -3.87986  -2.31942   0.03685
H    -1.42302  -2.35369   0.20825
H     0.58534  -2.35359   0.98857
H     0.80455  -1.90728  -1.68306
H     2.12143  -2.84950  -0.94834
H     2.37432  -0.11227  -2.10013
H     3.65417  -1.10511  -1.36810
H     3.41283   0.80845   0.24080
H     3.19619  -1.71990   1.14910
H     2.20572  -0.60240   2.15743
