51
Generated by autodE on: 2022-06-02. E = -1221.763623 Ha
C    -5.68814  -5.39496   4.55234
O    -5.23347  -6.61823   3.94897
C    -3.96223  -6.94399   4.14059
O    -3.16791  -6.25707   4.75113
C    -3.57055  -8.27172   3.45906
C    -4.75265  -9.22133   3.23131
N    -2.94722  -7.94125   2.16258
C    -1.54696  -8.38568   2.15683
C    -0.66411  -7.24708   1.86155
N    -0.02215  -6.31557   1.60464
C    -1.52324  -9.47421   1.02134
C    -1.11410  -9.03959  -0.34913
O    -1.92414 -10.58747   1.28468
C    -1.28461  -8.98454   3.54855
C    -2.42852  -8.89942   4.25202
C    -2.71276  -9.42500   5.66857
C    -1.74355  -8.88674   6.64664
N    -1.06805  -8.42296   7.46673
C    -3.98577  -8.88862   6.20721
N    -4.96828  -8.49862   6.68211
C    -2.84372 -11.01393   5.72636
C    -2.15341 -11.80102   4.61557
C    -0.62852 -11.91084   4.69600
C     0.14935 -10.62231   4.96608
C     0.11938  -9.48411   3.91323
C     0.88512  -9.98228   2.66986
C     0.90774  -8.28523   4.50046
H    -6.74455  -5.29863   4.27814
H    -5.11156  -4.54162   4.16875
H    -5.57903  -5.45565   5.64453
H    -5.26621  -9.49888   4.16052
H    -4.38193 -10.13117   2.74054
H    -5.48442  -8.73921   2.56992
H    -3.04054  -6.96251   1.90345
H    -1.32324  -9.83566  -1.07442
H    -0.03675  -8.80707  -0.34957
H    -1.64339  -8.11487  -0.62763
H    -2.50688 -11.33395   6.72311
H    -3.92013 -11.22065   5.66857
H    -2.57136 -12.81978   4.66601
H    -2.46070 -11.40348   3.63980
H    -0.26584 -12.38687   3.77054
H    -0.37365 -12.60664   5.51341
H    -0.12994 -10.23335   5.95163
H     1.21262 -10.88861   5.07682
H     0.96711  -9.21364   1.88767
H     1.91258 -10.23376   2.97099
H     0.43376 -10.87978   2.23021
H     1.90470  -8.62912   4.81712
H     1.04849  -7.48869   3.75858
H     0.40035  -7.85460   5.37333
