28
Generated by autodE on: 2022-06-02. E = -575.361711 Ha
C    -1.41451  -3.00577  -0.44055
C    -0.01892  -2.35721  -0.38043
C     1.02289  -3.39154   0.07309
C    -0.04899  -1.18339   0.49304
C    -0.10398  -0.04565   0.90868
C    -0.08011   1.41326   0.72825
C     1.29238   1.92241   0.94910
N     2.37594   2.31186   1.07983
C    -0.99378   2.11756   1.65171
N    -1.73806   2.66567   2.35044
C    -0.51547   1.70566  -0.76127
C     0.23546   0.88674  -1.82583
C    -0.34373  -0.49401  -2.24564
C     0.38512  -1.76885  -1.77291
H    -1.38937  -3.86559  -1.12777
H    -1.72139  -3.36500   0.55336
H    -2.17419  -2.29557  -0.79862
H     2.01991  -2.93534   0.16676
H     0.74634  -3.82779   1.04507
H     1.08233  -4.20554  -0.66595
H    -1.59603   1.50661  -0.81032
H    -0.36655   2.78306  -0.92546
H     1.29606   0.78496  -1.53951
H     0.23973   1.52492  -2.72236
H    -0.32303  -0.52246  -3.34594
H    -1.41181  -0.54549  -1.97610
H     1.47041  -1.57518  -1.76117
H     0.21813  -2.57444  -2.50686
