23
Generated by autodE on: 2022-06-02. E = -646.337572 Ha
C    -4.46050   0.23447   0.14705
O    -3.20894  -0.46549   0.22942
C    -2.10934   0.25176   0.02727
O    -2.10337   1.44699  -0.22313
C    -0.86622  -0.55297   0.14057
C    -0.84024  -2.00670   0.44360
N     0.21242   0.16495  -0.05365
C     1.55303  -0.08244  -0.04917
C     2.12138  -1.34571   0.20891
N     2.67013  -2.35697   0.41319
C     2.36959   1.09385  -0.33048
C     3.86414   0.93239  -0.34211
O     1.81879   2.18062  -0.54749
H    -5.23674  -0.51504   0.33667
H    -4.58677   0.67238  -0.85340
H    -4.50186   1.03007   0.90474
H    -0.29330  -2.20000   1.38078
H    -1.85901  -2.39339   0.54471
H    -0.32747  -2.56145  -0.35858
H     0.03717   1.16688  -0.25953
H     4.16453   0.18691  -1.09562
H     4.21789   0.56535   0.63473
H     4.33715   1.89640  -0.56721
