51
Generated by autodE on: 2022-06-02. E = -1221.670536 Ha. Imaginary frequency = -356.6 cm-1
C    -5.68871  -5.94010   5.61400
O    -5.18900  -6.87537   4.64320
C    -4.03572  -6.57984   4.05914
O    -3.38380  -5.57905   4.30348
C    -3.58095  -7.62850   3.07947
C    -4.62293  -8.49223   2.42256
N    -2.51077  -7.15755   2.40289
C    -1.53323  -7.87885   1.77094
C    -0.41689  -7.05557   1.40969
N     0.49247  -6.38288   1.13233
C    -1.75946  -9.08564   0.89167
C    -0.99534  -9.11213  -0.40797
O    -2.51417  -9.99572   1.19210
C    -1.22419  -9.17052   3.81536
C    -2.36538  -9.01364   4.31800
C    -3.16559  -9.53015   5.48761
C    -3.33621  -8.45413   6.48585
N    -3.39869  -7.63445   7.30265
C    -4.50483 -10.02461   5.09417
N    -5.52940 -10.50104   4.83912
C    -2.46523 -10.73650   6.21767
C    -1.96737 -11.81486   5.24355
C    -0.43577 -11.92201   5.17716
C     0.35014 -10.61266   5.09170
C     0.16959  -9.70562   3.83836
C     0.50946 -10.50486   2.57101
C     1.16069  -8.53480   4.00047
H    -6.61852  -6.37608   5.99525
H    -5.88584  -4.97166   5.13334
H    -4.96233  -5.81423   6.42764
H    -5.53484  -8.50729   3.02327
H    -4.27775  -9.51359   2.24338
H    -4.86021  -8.05050   1.44071
H    -2.16481  -6.28976   2.82786
H    -1.16870 -10.07322  -0.90746
H     0.08275  -8.96153  -0.25472
H    -1.34603  -8.28706  -1.05033
H    -1.64149 -10.31175   6.80507
H    -3.19286 -11.13626   6.93759
H    -2.37053 -12.79082   5.55265
H    -2.37556 -11.62892   4.23853
H    -0.16343 -12.58157   4.33763
H    -0.08693 -12.43650   6.08896
H     0.15948  -9.99733   5.98451
H     1.42298 -10.86297   5.12815
H     0.62172  -9.84527   1.70164
H     1.47110 -11.02043   2.71651
H    -0.25560 -11.25786   2.33829
H     2.18386  -8.93260   4.08500
H     1.13265  -7.85133   3.14490
H     0.93916  -7.96018   4.91270
