29
Generated by autodE on: 2022-05-28. E = -1374.905012 Ha
C    -3.87041  -0.30441  -2.31211
O    -2.57274   0.11838  -1.87102
C    -2.35627   0.11829  -0.54994
O    -3.19430  -0.18903   0.27373
C    -0.97981   0.55063  -0.24753
C    -0.45036   0.85930   0.94707
Cl   -1.17632   0.83737   2.49444
C     1.00812   1.23956   0.78112
C     1.90780   0.13222   1.34689
O     2.33017  -0.78773   0.68243
O     2.12304   0.30420   2.64305
C     2.88314  -0.71461   3.31945
O     1.17781   1.35623  -0.61580
C     0.10399   0.69532  -1.28922
C     0.54888  -0.67276  -1.82260
O    -0.09008  -1.69440  -1.68673
O     1.71110  -0.58818  -2.45555
C     2.28108  -1.82046  -2.92734
H    -3.85274  -0.23945  -3.40588
H    -4.06307  -1.33934  -1.99425
H    -4.64892   0.35539  -1.90277
H     1.24840   2.19287   1.27693
H     2.37638  -1.68586   3.22978
H     3.89239  -0.78177   2.88968
H     2.93398  -0.40440   4.36886
H    -0.20553   1.31158  -2.14867
H     2.48592  -2.48681  -2.07700
H     3.21546  -1.54779  -3.43067
H     1.59797  -2.31690  -3.63081
