10
Generated by autodE on: 2022-05-28. E = -764.965933 Ha
C    -3.41139   0.29956  -0.24850
O    -1.99579   0.55395  -0.25529
C    -1.20881  -0.46927   0.08143
O    -1.60830  -1.57512   0.38725
C     0.19189  -0.10353   0.03971
C     1.37940   0.14428   0.02210
Cl    2.98025   0.48321  -0.00251
H    -3.66022  -0.49238  -0.96934
H    -3.74036  -0.00122   0.75648
H    -3.88580   1.24353  -0.53913
