19
Generated by autodE on: 2022-07-26. E = -609.772274 Ha
C    -0.76667  -2.02943  -2.70369
O    -1.02365  -0.67338  -2.32391
C    -0.85484  -0.37475  -1.02016
O    -0.49000  -1.19461  -0.18426
C    -1.25988   0.98330  -0.75054
O    -1.23617   1.49588   0.46119
C    -0.55992   1.21232   1.53548
C     0.71230   0.49595   1.60237
O     1.12751   0.00096   2.63823
O     1.41642   0.55980   0.46900
C     2.66793  -0.13778   0.44294
H    -0.92443  -2.07564  -3.78765
H     0.26825  -2.31216  -2.45943
H    -1.45895  -2.71568  -2.19321
H    -1.90730   1.53028  -1.43402
H    -0.92338   1.72255   2.42814
H     2.51347  -1.20461   0.65927
H     3.06194  -0.01134  -0.57199
H     3.36640   0.28940   1.17708
