29
Generated by autodE on: 2022-05-28. E = -1374.742296 Ha. Imaginary frequency = -269.7 cm-1
C    -3.19998   0.88224  -2.97247
O    -2.70066   1.04098  -1.63456
C    -2.21944  -0.06343  -1.05116
O    -2.24313  -1.16890  -1.56488
C    -1.67911   0.19657   0.25808
C    -1.27156   0.31773   1.41161
Cl   -1.32543   0.25491   3.07136
C     0.96830   1.33348   1.18225
C     1.94584   0.30050   1.59404
O     1.90443  -0.26976   2.66586
O     2.94318   0.18963   0.71442
C     3.93131  -0.81522   0.98429
O     0.73854   1.67241  -0.06239
C     0.57539   0.97029  -1.15028
C     0.78950  -0.46465  -1.29486
O     1.03342  -1.27186  -0.41186
O     0.58403  -0.80686  -2.57862
C     0.60435  -2.20956  -2.87491
H    -3.52716   1.87883  -3.28983
H    -2.40059   0.51373  -3.63172
H    -4.04518   0.17943  -2.99003
H     0.79039   2.15368   1.88068
H     3.45679  -1.80400   1.05626
H     4.62648  -0.78879   0.13746
H     4.46297  -0.59101   1.92020
H     0.26887   1.56947  -2.00598
H     0.37460  -2.29477  -3.94310
H     1.59781  -2.63212  -2.66459
H    -0.15357  -2.73644  -2.27901
