53
Generated by autodE on: 2022-06-05. E = -1289.002737 Ha
C     0.34526  -4.08294   7.26399
O     0.16057  -4.90366   6.09920
C     0.26615  -6.21472   6.26137
O     0.55046  -6.74440   7.31739
C    -0.11184  -7.00922   4.99998
C     0.52509  -8.42507   5.03879
C     1.99913  -8.51798   5.32073
O    -0.14482  -9.40510   4.77034
N     0.30975  -6.35311   3.76302
C    -0.78440  -6.34431   2.77290
C    -0.57849  -7.43466   1.70891
C    -0.95416  -4.94365   2.16446
C    -1.39326  -4.75010   0.84739
C    -1.62705  -3.46144   0.35277
C    -1.42244  -2.34551   1.16690
C    -0.97768  -2.52830   2.48128
C    -0.74711  -3.81405   2.97279
C    -2.00728  -6.67488   3.62698
C    -1.62733  -7.06111   4.85444
C    -2.56251  -7.39619   5.99515
F    -3.71261  -8.01936   5.48185
C    -2.00413  -8.39827   6.93456
N    -1.65100  -9.18586   7.70720
C    -3.00988  -6.15712   6.79690
C    -3.41881  -4.93351   5.97336
C    -4.55490  -5.12035   4.94492
C    -4.13284  -5.25087   3.47506
C    -3.39008  -6.53522   3.05601
H    -0.39997  -4.34093   8.03003
H     1.35666  -4.21989   7.67127
H     0.20476  -3.04999   6.92695
H     2.42322  -9.38229   4.79199
H     2.12027  -8.67659   6.40443
H     2.54229  -7.59784   5.06212
H     1.17168  -6.73876   3.38392
H    -1.44802  -7.53587   1.04547
H     0.30123  -7.20220   1.08882
H    -0.41905  -8.40192   2.20525
H    -1.56577  -5.60362   0.19188
H    -1.97027  -3.33385  -0.67688
H    -1.60506  -1.33988   0.78048
H    -0.81159  -1.66350   3.12863
H    -0.40258  -3.95733   3.99612
H    -2.18821  -5.87720   7.47361
H    -3.83986  -6.49648   7.43759
H    -3.73015  -4.17999   6.71378
H    -2.53096  -4.51143   5.47762
H    -5.20945  -4.23565   5.00099
H    -5.18582  -5.97767   5.23159
H    -5.04269  -5.19354   2.85474
H    -3.51928  -4.37748   3.20034
H    -3.30732  -6.53024   1.95941
H    -3.99424  -7.40993   3.32695
