32
Generated by autodE on: 2022-07-27. E = -785.218669 Ha
C     2.50745   1.27085  -0.03097
O     1.64800   0.13223  -0.06779
C     1.14112  -0.29524   1.11377
O     1.57208   0.13079   2.18321
C     0.11153  -1.29320   0.95420
N    -0.53183  -1.52556  -0.27281
C    -0.87353  -0.77866  -1.28981
C    -1.43854  -1.46185  -2.49134
C    -0.75673   0.68877  -1.28494
C    -0.34670   1.36883  -2.44401
C    -0.24726   2.76161  -2.44461
C    -0.58612   3.49093  -1.30191
C    -1.03002   2.82110  -0.15490
C    -1.10808   1.43066  -0.14116
C    -0.20987  -2.30016   1.92428
C     0.41626  -2.27387   3.29819
O    -1.00371  -3.22289   1.62389
H     2.00340   2.12399   0.44754
H     3.43709   1.04831   0.51374
H     2.73622   1.51344  -1.07581
H    -0.86180  -2.50136  -0.29854
H    -1.63238  -2.52559  -2.29473
H    -2.36460  -0.96524  -2.81728
H    -0.72326  -1.39519  -3.32878
H    -0.07667   0.80724  -3.33965
H     0.09461   3.27856  -3.34394
H    -0.51053   4.58065  -1.30446
H    -1.31244   3.38706   0.73552
H    -1.44638   0.91642   0.75965
H     0.07644  -1.39127   3.86123
H     0.11947  -3.18559   3.83405
H     1.51291  -2.21016   3.24515
