32
Generated by autodE on: 2022-06-05. E = -785.218676 Ha
C     0.88919  -2.60311  -0.58439
O     0.24537  -1.62005   0.22501
C    -1.01362  -1.26232  -0.12501
O    -1.65092  -1.90621  -0.95595
C    -1.49147  -0.11044   0.60013
N    -0.63369   0.74042   1.31693
C     0.59864   1.14883   1.16321
C     1.19685   1.97085   2.25702
C     1.39640   0.86450  -0.04069
C     0.81340   0.93965  -1.31990
C     1.58290   0.70543  -2.45683
C     2.93902   0.37744  -2.33502
C     3.52700   0.31284  -1.06909
C     2.76571   0.57076   0.07261
C    -2.87197   0.17114   0.87050
C    -3.96416  -0.66273   0.24430
O    -3.17653   1.10614   1.64811
H     0.37701  -3.57406  -0.51155
H     1.91255  -2.69149  -0.19987
H     0.91362  -2.28519  -1.63759
H    -1.16043   1.18017   2.08531
H     1.98327   1.39199   2.77081
H     1.67627   2.87096   1.84439
H     0.44262   2.25692   3.00351
H    -0.24482   1.18448  -1.42306
H     1.12238   0.77424  -3.44480
H     3.53604   0.17806  -3.22779
H     4.58535   0.06279  -0.96776
H     3.23196   0.51533   1.05742
H    -4.92854  -0.34609   0.66411
H    -3.81116  -1.73672   0.42499
H    -3.97758  -0.52562  -0.84765
