53
Generated by autodE on: 2022-06-05. E = -1288.910239 Ha. Imaginary frequency = -317.9 cm-1
C     2.19085  -3.85540   4.77977
O     1.64400  -5.10265   4.33591
C     0.91547  -5.79764   5.22291
O     0.80810  -5.45725   6.39030
C     0.32724  -7.01217   4.63215
C     0.53533  -8.33626   5.23877
C     1.21123  -8.46901   6.57598
O     0.22212  -9.34604   4.59344
N     0.03420  -7.10320   3.29698
C    -0.69683  -6.29297   2.51450
C    -1.11875  -6.91417   1.20871
C    -0.55708  -4.79597   2.52686
C     0.09003  -4.21504   1.41958
C     0.29646  -2.83569   1.34775
C    -0.15880  -2.00170   2.37172
C    -0.81571  -2.56473   3.46876
C    -1.01049  -3.94432   3.54852
C    -2.53169  -6.48829   3.88071
C    -2.08506  -6.75874   5.01016
C    -2.39153  -6.84570   6.44188
F    -1.48658  -7.67195   7.12832
C    -2.26561  -5.49504   7.04219
N    -2.22314  -4.42868   7.49567
C    -3.79031  -7.43262   6.71556
C    -5.01205  -6.62603   6.26225
C    -5.47433  -6.71479   4.79384
C    -4.89608  -5.70408   3.78752
C    -3.66207  -6.16298   2.99600
H     1.40558  -3.21785   5.20779
H     2.97355  -4.02748   5.53329
H     2.61924  -3.38059   3.88963
H     0.93501  -9.43177   7.02569
H     0.98063  -7.64448   7.25500
H     2.30110  -8.47005   6.39784
H    -0.06568  -8.09949   3.06150
H    -1.95280  -6.35624   0.76615
H    -0.29135  -6.90074   0.47995
H    -1.42322  -7.96057   1.35767
H     0.45807  -4.84739   0.61068
H     0.81400  -2.41375   0.48305
H    -0.00373  -0.92188   2.31468
H    -1.17935  -1.92811   4.27855
H    -1.51446  -4.35478   4.41909
H    -3.83652  -7.56855   7.80741
H    -3.79064  -8.43381   6.25751
H    -5.84243  -6.99735   6.88283
H    -4.88703  -5.56701   6.54845
H    -6.56476  -6.55981   4.80881
H    -5.32762  -7.74343   4.41909
H    -5.67274  -5.45669   3.04534
H    -4.65488  -4.76152   4.30806
H    -3.37700  -5.37599   2.28018
H    -3.90828  -7.05257   2.39082
