39
Generated by autodE on: 2022-06-20. E = -1179.767679 Ha
C     4.84383   0.52970  -0.81791
O     3.50775  -0.00911  -0.77120
C     2.68202   0.52096   0.11369
O     2.94077   1.41084   0.88938
C     1.29984  -0.09285  -0.00969
O     0.59614   0.05126   1.24753
C    -0.34932  -0.92818   1.23975
O    -1.17737  -1.07095   2.09330
C    -0.10302  -1.66943  -0.07907
C    -0.50202  -3.13083  -0.15575
C     0.45538  -4.03854  -0.85967
O    -1.55655  -3.49312   0.32755
O     1.30933  -1.48005  -0.22409
C    -0.67287  -0.68667  -1.21185
C     0.40651   0.44137  -1.15290
C    -0.10860   1.86681  -0.94820
C    -1.39062   1.91931  -0.16022
C    -1.68615   3.13879   0.60277
N    -2.71635   3.10914   1.48859
O    -1.01764   4.17665   0.43681
C    -2.28179   0.90283  -0.29779
N    -2.03098  -0.24038  -1.00953
C    -3.10298  -1.22014  -1.15221
H     4.80754   1.60358  -1.04799
H     5.34677   0.37200   0.14622
H     5.35880  -0.01812  -1.61421
H     0.02574  -5.04475  -0.93973
H     1.40344  -4.07202  -0.29887
H     0.69128  -3.63559  -1.85782
H    -0.60561  -1.23846  -2.15763
H     1.02132   0.39033  -2.05912
H     0.66834   2.47323  -0.46138
H    -0.26835   2.32021  -1.94184
H    -3.12484   2.23847   1.80460
H    -2.89729   3.94568   2.03286
H    -3.28855   0.96094   0.12302
H    -3.28595  -1.77306  -0.21806
H    -4.02833  -0.71063  -1.45431
H    -2.83542  -1.94100  -1.93649
