20
Generated by autodE on: 2022-06-20. E = -457.715343 Ha
C    -2.96868   1.10953   0.20555
N    -1.80565   0.29121  -0.09652
C    -1.98479  -1.02845  -0.53027
C    -0.96027  -1.87518  -0.71851
C     0.48002  -1.49250  -0.48200
C     0.57314  -0.06025   0.01816
C     1.87094   0.55323   0.34393
N     2.96138  -0.23632   0.17569
O     1.99462   1.72569   0.75287
C    -0.53858   0.71148   0.17819
H    -3.49758   0.74805   1.10408
H    -2.64964   2.14484   0.38022
H    -3.67478   1.09974  -0.63861
H    -3.02267  -1.31632  -0.70708
H    -1.17985  -2.88737  -1.06579
H     1.06739  -1.62534  -1.41395
H     0.94566  -2.19509   0.23907
H     3.87576   0.14531   0.39138
H     2.89903  -1.19382  -0.14564
H    -0.44267   1.73559   0.54230
