19
Generated by autodE on: 2022-06-20. E = -722.000841 Ha
C     4.36436   0.71392  -0.10674
O     2.93479   0.88564  -0.00826
C     2.20189  -0.20229  -0.11688
O     2.57776  -1.33645  -0.28880
C     0.74584   0.13282  -0.00179
O     0.26007   1.30112   0.19432
C    -1.26497   1.15042   0.22801
O    -1.94051   2.12407   0.40306
C    -1.39918  -0.23047   0.02094
C    -2.55765  -1.09221  -0.05832
C    -3.89357  -0.41597   0.10738
O    -2.43570  -2.30201  -0.24716
O    -0.13435  -0.79861  -0.11182
H     4.62061   0.28650  -1.08604
H     4.71560   0.05070   0.69576
H     4.79081   1.71622   0.00321
H    -3.95502   0.07470   1.09205
H    -4.02620   0.37032  -0.65278
H    -4.69086  -1.16442   0.01401
