39
Generated by autodE on: 2022-06-20. E = -1179.728886 Ha. Imaginary frequency = -226.3 cm-1
C     4.65600   0.85924  -0.59821
O     3.47411   0.06420  -0.38048
C     2.52605   0.60722   0.36418
O     2.55259   1.70209   0.88275
C     1.33367  -0.27997   0.45605
O     0.38863  -0.01901   1.34617
C    -0.45015  -1.20397   1.43688
O    -1.48042  -1.16018   2.06942
C     0.24640  -2.15316   0.65688
C    -0.08602  -3.50723   0.31563
C     0.88156  -4.24618  -0.57425
O    -1.13753  -4.02009   0.71999
O     1.43001  -1.56881   0.19914
C    -0.61129  -0.41898  -1.54852
C     0.35888   0.56160  -1.44514
C    -0.02078   1.98699  -1.10646
C    -1.44206   2.07087  -0.59192
C    -1.99035   3.33394  -0.03511
N    -1.16186   4.40098  -0.06153
O    -3.13852   3.41674   0.43106
C    -2.27136   1.00607  -0.63857
N    -1.90030  -0.22156  -1.16782
C    -2.82108  -1.35202  -1.07576
H     4.38909   1.79427  -1.11045
H     5.31253   0.24912  -1.22747
H     5.14121   1.08449   0.36154
H     0.91399  -3.76839  -1.56770
H     1.90285  -4.21083  -0.16408
H     0.55370  -5.28817  -0.68089
H    -0.38533  -1.40092  -1.96437
H     1.28361   0.38999  -1.99759
H     0.10205   2.62727  -2.00198
H     0.67934   2.40444  -0.36146
H    -1.49743   5.28454   0.30815
H    -0.22707   4.36366  -0.44832
H    -3.29507   1.06914  -0.27083
H    -2.80846  -1.77747  -0.06139
H    -3.83872  -1.01729  -1.31533
H    -2.51879  -2.12518  -1.79231
