33
Generated by autodE on: 2022-06-01. E = -5895.432360 Ha
C     4.99137  -0.12766  -0.06000
N     3.62245  -0.58099   0.07340
C     2.75201  -0.01641   0.92019
O     3.02690   0.89886   1.70122
C     1.33352  -0.57815   0.86740
O     1.29116  -1.76844   0.11239
C    -0.07027  -2.02600  -0.28361
C    -0.80422  -2.64932   0.90870
C    -0.02351  -2.99916  -1.44989
C    -0.59272  -0.59492  -0.66060
Br   -2.54109  -0.47317  -0.43982
C    -0.22592  -0.10095  -2.10642
C    -0.85128   1.27235  -2.31556
C    -0.11488   2.11323  -1.58235
C     0.95823   1.25040  -0.94217
O     1.15956   0.22694  -1.92795
C     0.31407   0.38535   0.19222
Br   -0.55603   1.50153   1.53421
H     5.07228   0.72963  -0.74991
H     5.37670   0.18433   0.92004
H     5.61253  -0.94644  -0.44594
H     3.25077  -1.27439  -0.56893
H     1.02779  -0.75414   1.91110
H    -1.78323  -3.04728   0.61427
H    -0.96086  -1.93322   1.72762
H    -0.18758  -3.48014   1.28208
H    -1.02442  -3.11739  -1.88987
H     0.67331  -2.65811  -2.22703
H     0.31324  -3.98362  -1.09361
H    -0.36910  -0.84349  -2.89531
H    -1.75427   1.47307  -2.88907
H    -0.26061   3.17644  -1.39931
H     1.89537   1.73927  -0.65973
