13
Generated by autodE on: 2022-06-01. E = -5454.682430 Ha
Br    1.23303  -1.57719   0.73493
C    -0.13962  -0.76061  -0.22760
C    -0.36921   0.53414  -0.47697
Br    0.58912   2.04915   0.03609
C    -1.76588   0.56489  -1.15005
C    -2.79687   0.18170  -0.06129
C    -2.56825  -1.11056   0.18637
C    -1.40077  -1.49366  -0.75455
O    -1.69664  -0.66499  -1.89202
H    -1.98344   1.42945  -1.78559
H    -3.49839   0.87214   0.40502
H    -3.02940  -1.77801   0.91312
H    -1.27846  -2.54837  -1.02182
