20
Generated by autodE on: 2022-06-01. E = -440.620784 Ha
C    -3.09606   0.16282   1.30433
N    -1.69926   0.08122   0.93790
C    -1.28735  -0.74329  -0.08329
O    -2.06771  -1.60514  -0.56230
C     0.04865  -0.60906  -0.56188
O     0.82493   0.35583  -0.00854
C     2.04656   0.65221  -0.27927
C     2.64219   1.77047   0.48904
C     2.76533  -0.11486  -1.31430
H    -3.19388   0.75903   2.22172
H    -3.50424  -0.83927   1.50008
H    -3.72441   0.62949   0.52212
H    -1.10939   0.87469   1.16201
H     0.45611  -1.24345  -1.34404
H     2.97828   2.56969  -0.19549
H     3.54050   1.42685   1.03208
H     1.92020   2.18510   1.20499
H     2.23359  -0.04278  -2.28283
H     2.78058  -1.19050  -1.05214
H     3.79338   0.24745  -1.43361
