20
Generated by autodE on: 2022-07-27. E = -440.619449 Ha
C     2.82768   1.66405  -0.78339
N     1.62291   0.91141  -0.53118
C     0.99647   0.87634   0.68922
O     1.45841   1.49403   1.68265
C    -0.20253   0.10986   0.80114
O    -0.65329  -0.52959  -0.30580
C    -1.69785  -1.26957  -0.43370
C    -2.56798  -1.50016   0.73497
C    -1.94293  -1.84199  -1.77839
H     2.67199   2.45574  -1.53703
H     3.14425   2.13956   0.15299
H     3.64893   1.01827  -1.13890
H     1.20067   0.40131  -1.29780
H    -0.75641   0.02674   1.73181
H    -3.41588  -2.14565   0.47677
H    -2.94452  -0.53618   1.12874
H    -1.98930  -1.96244   1.55828
H    -2.92973  -1.52243  -2.15807
H    -1.16326  -1.53090  -2.48631
H    -1.97068  -2.94507  -1.72719
