23
Generated by autodE on: 2022-06-23. E = -351.521381 Ha
C     3.63754   0.81436   0.63553
C     2.57745   0.19604   0.07006
C     2.76049  -0.86523  -0.98463
C     1.22056   0.55203   0.48036
C     0.07806   0.00521  -0.00600
C    -1.24504   0.39454   0.43720
C    -2.43039  -0.10839   0.00858
C    -2.56935  -1.18817  -1.02677
C    -3.72912   0.40120   0.56652
H     3.50140   1.58445   1.40111
H     4.66320   0.56712   0.34785
H     2.31465  -1.82240  -0.66680
H     2.25858  -0.58196  -1.92476
H     3.82519  -1.03451  -1.19878
H     1.14131   1.33018   1.24912
H     0.14888  -0.77133  -0.77242
H    -1.27626   1.18080   1.20123
H    -3.17446  -0.82690  -1.87707
H    -1.61035  -1.55048  -1.41886
H    -3.11686  -2.05061  -0.60713
H    -4.30370  -0.41956   1.03244
H    -4.37043   0.80277  -0.23864
H    -3.57852   1.19036   1.31775
