29
Generated by autodE on: 2022-06-23. E = -837.095498 Ha
C    -1.75815  -3.81823   0.35463
N    -1.22594  -2.47783   0.23685
C    -2.05627  -1.41876   0.13515
O    -3.28953  -1.54166   0.14089
C    -1.41905  -0.08300   0.01401
O    -0.12109   0.13835  -0.01223
N     0.81997  -0.76679   0.06806
C     2.07394  -0.18636   0.00884
C     3.15711  -1.08809   0.09888
C     4.46348  -0.61040   0.05214
C     4.70695   0.76136  -0.08471
C     3.63099   1.65769  -0.17539
C     2.31945   1.19966  -0.13028
C    -2.19466   1.16892  -0.09437
O    -3.40963   1.24048  -0.08019
O    -1.40096   2.24626  -0.21209
C    -2.06357   3.51252  -0.32105
H    -0.92310  -4.52482   0.43197
H    -2.39546  -3.91763   1.24809
H    -2.37139  -4.08399  -0.52180
H    -0.21958  -2.30618   0.21859
H     2.94931  -2.15440   0.20554
H     5.29811  -1.31112   0.12285
H     5.73254   1.13455  -0.12120
H     3.82219   2.72779  -0.28257
H     1.48342   1.89502  -0.20018
H    -2.71129   3.53504  -1.20959
H    -1.26763   4.26031  -0.41340
H    -2.66892   3.71076   0.57555
