52
Generated by autodE on: 2022-06-23. E = -1188.628571 Ha. Imaginary frequency = -242.7 cm-1
C     2.86605  -2.21044  -0.19434
C     1.69557  -1.80827   0.35147
C     1.45869  -1.86134   1.83776
C     0.65179  -1.28641  -0.51782
C    -0.69278  -1.12958  -0.13126
C    -1.72538  -1.07292  -1.15026
C    -3.06308  -1.19205  -0.96862
C    -3.72262  -1.44518   0.35582
C    -4.00289  -1.04380  -2.13034
C    -0.59511   1.07380   0.69207
C    -1.51934   1.65227  -0.33163
O    -2.71921   1.84393  -0.08648
N    -0.97539   1.95336  -1.52555
C    -1.80268   2.42234  -2.61656
C    -0.96919   0.94917   2.12239
O    -0.15777   1.01877   3.03300
O    -2.25631   0.67376   2.31867
C    -2.66403   0.41941   3.66874
O     0.73790   1.22170   0.61954
N     1.32918   0.92078  -0.55775
C     2.70584   0.95743  -0.42086
C     3.44512   0.70743  -1.59583
C     4.83717   0.67701  -1.55360
C     5.51218   0.90095  -0.34799
C     4.77994   1.14106   0.82199
C     3.38750   1.16163   0.79915
H     3.67812  -2.59965   0.42544
H     3.02891  -2.17517  -1.27391
H     2.35190  -2.22651   2.36355
H     0.61804  -2.53135   2.08437
H     1.20019  -0.87033   2.23784
H     0.86411  -1.30415  -1.58859
H    -0.97720  -1.44279   0.87311
H    -1.36770  -0.88254  -2.16716
H    -4.40664  -2.30777   0.27835
H    -4.34241  -0.57796   0.63994
H    -3.01374  -1.63259   1.17114
H    -3.46917  -0.89377  -3.07995
H    -4.67092  -0.17939  -1.96732
H    -4.65770  -1.92753  -2.22757
H    -0.01541   1.64217  -1.68714
H    -2.54870   1.66492  -2.91158
H    -1.16142   2.64066  -3.47963
H    -2.34642   3.33845  -2.33944
H    -3.73360   0.18569   3.61800
H    -2.10744  -0.43310   4.08420
H    -2.49748   1.30595   4.29737
H     2.90775   0.53550  -2.53041
H     5.40013   0.48187  -2.46916
H     6.60379   0.88481  -0.31839
H     5.30253   1.31146   1.76631
H     2.81916   1.34858   1.70949
