27
Generated by autodE on: 2022-06-17. E = -632.488324 Ha
C     5.16648   0.75251   0.26833
O     4.11477  -0.20691   0.19936
C     2.84361   0.28832   0.14608
O     2.61763   1.50839   0.15296
C     1.86137  -0.73225   0.08373
N     0.56264  -0.31880   0.01990
C    -0.55633  -1.02074  -0.01629
C    -0.42711  -2.50512   0.03621
C    -1.83712  -0.31721  -0.10552
C    -3.03965  -0.96576   0.25277
C    -4.26226  -0.29656   0.19376
C    -4.32370   1.03513  -0.22722
C    -3.14252   1.69102  -0.59368
C    -1.91947   1.02686  -0.53953
H     5.08178   1.37499   1.17292
H     5.16719   1.41021  -0.61498
H     6.10214   0.17990   0.30181
H     2.10187  -1.78992   0.08520
H     0.48451   0.70383   0.01626
H     0.23135  -2.85611  -0.77819
H    -1.39142  -3.01248  -0.06510
H     0.04583  -2.82550   0.98209
H    -3.01906  -1.99861   0.60155
H    -5.17510  -0.82195   0.48432
H    -5.28216   1.55662  -0.27561
H    -3.17499   2.72717  -0.93853
H    -1.02484   1.56121  -0.86647
