41
Generated by autodE on: 2022-06-17. E = -903.153889 Ha. Imaginary frequency = -327.3 cm-1
C    -4.58793   0.63832   1.46866
O    -3.15764   0.60486   1.57028
C    -2.47376   0.97050   0.47986
O    -2.99788   1.42797  -0.52659
C    -1.04121   0.69889   0.60400
N    -0.28333   1.19167  -0.39566
C     0.93545   0.69780  -0.82645
C     1.34866   1.26326  -2.16751
C     2.04842   0.51853   0.15239
C     1.92432   0.76613   1.53392
C     3.00461   0.59443   2.40325
C     4.24660   0.17724   1.92099
C     4.40045  -0.03760   0.54824
C     3.32441   0.14058  -0.32030
C     0.20319  -1.30076  -1.22206
C    -0.54432  -1.10638  -2.52429
C     1.47407  -2.10855  -1.37165
C    -0.55398  -1.53566  -0.03901
C    -1.96609  -1.78582   0.07835
O    -2.83650  -1.74497  -0.80425
H    -4.92151  -0.02825   0.66008
H    -4.94139   1.66107   1.27399
H    -4.96796   0.28408   2.43374
H    -0.64035   0.45986   1.57955
H    -0.86444   1.55589  -1.15486
H     1.95102   0.54175  -2.73441
H     1.95716   2.17347  -2.03904
H     0.46963   1.51527  -2.77588
H     0.99470   1.13837   1.95579
H     2.86909   0.80040   3.46773
H     5.08852   0.03777   2.60289
H     5.36964  -0.34062   0.14488
H     3.48481  -0.02128  -1.38450
H     0.14321  -0.84401  -3.34045
H    -1.04876  -2.04563  -2.80694
H    -1.32538  -0.33890  -2.44777
H     1.21141  -3.11348  -1.74736
H     2.00498  -2.23790  -0.41910
H     2.16163  -1.66450  -2.10612
H     0.01238  -1.80620   0.85785
H    -2.26726  -2.06539   1.11693
