20
Generated by autodE on: 2022-07-27. E = -702.054345 Ha
C    -1.54695  -3.33513   1.08299
O    -1.22811  -1.98344   0.72566
C     0.02842  -1.75184   0.33903
O     0.88875  -2.61475   0.28482
C     0.28144  -0.34573  -0.01696
O     1.51171  -0.20651  -0.48852
C     2.30624   0.73307  -0.85774
C     2.11604   2.12367  -0.70623
N     2.15995   3.28166  -0.56747
C    -0.65887   0.76653  -0.14444
O    -0.42499   1.72827  -0.86416
O    -1.78185   0.62680   0.55640
C    -2.76837   1.65769   0.39424
H    -0.92313  -3.67022   1.92436
H    -1.39505  -4.00730   0.22590
H    -2.60349  -3.32591   1.37441
H     3.27538   0.37441  -1.21244
H    -2.36397   2.62913   0.71327
H    -3.08981   1.72156  -0.65526
H    -3.61028   1.36734   1.03274
