20
Generated by autodE on: 2022-06-19. E = -702.061402 Ha
C    -1.38357  -3.33165  -0.55842
O    -1.17668  -1.92938  -0.34642
C     0.09862  -1.53042  -0.22114
O     1.04732  -2.29236  -0.28065
C     0.20271  -0.08132  -0.00531
O    -0.96763   0.53996   0.03246
C    -1.32435   1.76613   0.19758
C    -2.71442   2.01563   0.16988
N    -3.85221   2.27099   0.15488
C     1.42305   0.69728   0.16789
O     1.40771   1.90995   0.34936
O     2.54410  -0.02151   0.11309
C     3.77308   0.69925   0.28710
H    -0.99293  -3.91345   0.28931
H    -0.88889  -3.66088  -1.48391
H    -2.46834  -3.46604  -0.64114
H    -0.58630   2.55378   0.34688
H     3.88912   1.45931  -0.49901
H     3.79835   1.18546   1.27306
H     4.56989  -0.04945   0.21222
