47
Generated by autodE on: 2022-10-22. E = -2344.398206 Ha
C    -1.31485   4.74814   1.00750
N    -0.57589   3.49984   0.98105
C    -1.18243   2.33523   1.23207
O    -2.33329   2.21981   1.64817
C    -0.31760   1.08070   1.07766
O     1.15195   1.46614   1.08455
C     1.79601   0.35781   1.46647
O     2.98019   0.24470   1.60662
C     0.64751  -0.70550   1.70679
C     1.06224  -1.74873   2.63011
N     1.44008  -2.47540   3.44919
C     0.14914  -1.01786   0.26812
C    -0.43151   0.12974  -0.14541
C    -0.91301   0.68278  -1.48663
O    -1.84440   1.67636  -1.10713
C    -2.28375   2.66947  -2.02496
C     0.32995   1.33487  -2.17955
F     0.74360   2.43285  -1.52481
F     0.05505   1.70899  -3.43750
F     1.36765   0.48441  -2.23384
C    -1.57111  -0.30373  -2.48145
C    -2.24230  -1.53589  -1.86699
C    -1.41249  -2.79821  -2.10350
C     0.07652  -2.67829  -1.77726
C     0.43926  -2.36504  -0.33248
Cl    2.25047  -2.60817  -0.17151
Cl   -0.38956  -3.60101   0.74138
N    -0.43384   0.17149   2.18702
C    -0.25418   0.74184   3.52681
H    -2.04197   4.80072   0.18064
H    -0.60826   5.58151   0.91408
H    -1.86384   4.84852   1.95457
H     0.35691   3.48852   0.58361
H    -3.14343   3.15415  -1.54413
H    -1.50534   3.42560  -2.21148
H    -2.61274   2.24083  -2.98465
H    -0.84205  -0.62023  -3.23898
H    -2.30802   0.29445  -3.03117
H    -2.43386  -1.38209  -0.79352
H    -3.23009  -1.68078  -2.32808
H    -1.46482  -3.05699  -3.17380
H    -1.84386  -3.64801  -1.55513
H     0.56741  -1.91781  -2.40076
H     0.56623  -3.63289  -2.01275
H    -0.23947  -0.07885   4.25502
H    -1.11834   1.37798   3.74795
H     0.66967   1.33506   3.63843
