20
Generated by autodE on: 2022-10-22. E = -661.188488 Ha
C     4.23872   0.40960   0.17238
N     2.86152   0.01139  -0.03918
C     1.81572   0.72007   0.41521
O     1.88914   1.76620   1.06397
C     0.49685   0.11714   0.05962
O     0.43701  -0.99570  -0.66883
C    -0.93876  -1.36573  -0.87298
O    -1.22076  -2.35310  -1.51419
C    -1.64569  -0.34868  -0.18398
C    -3.03139  -0.20775  -0.04620
N    -4.19008  -0.10622   0.05896
N    -0.71363   0.53555   0.36717
C    -1.10455   1.70971   1.14967
H     4.72504   0.65852  -0.78389
H     4.80350  -0.40518   0.64938
H     4.26100   1.29090   0.82303
H     2.67830  -0.83398  -0.57274
H    -1.74049   2.34791   0.52228
H    -1.67545   1.36995   2.02386
H    -0.20420   2.24328   1.45764
