14
Generated by autodE on: 2022-06-17. E = -270.683222 Ha
C    -1.32878   0.85688  -0.15641
C    -0.71377  -0.50258   0.01542
C    -1.66616  -1.65401   0.08881
C     0.62829  -0.71280   0.10410
C     1.65691   0.31488   0.04919
O     1.48112   1.52423  -0.08101
H    -0.94825   1.34970  -1.06496
H    -1.05665   1.51923   0.68088
H    -2.42413   0.79210  -0.21690
H    -2.37144  -1.50437   0.92530
H    -2.28462  -1.68827  -0.82539
H    -1.15659  -2.61909   0.21574
H     0.99561  -1.73571   0.22797
H     2.69845  -0.07907   0.13830
