23
Generated by autodE on: 2022-06-19. E = -351.521382 Ha
C     3.60499   0.17347   1.12758
C     2.57061  -0.02620   0.28142
C     2.79712  -0.45857  -1.14476
C     1.19933   0.17541   0.74515
C     0.07886   0.00253  -0.00008
C    -1.25995   0.21471   0.51113
C    -2.42689   0.05517  -0.16299
C    -3.74527   0.31704   0.50879
C    -2.52619  -0.38341  -1.59653
H     3.43686   0.48699   2.16255
H     4.64072   0.02905   0.80772
H     3.86862  -0.57523  -1.36005
H     2.37911   0.27536  -1.85373
H     2.29528  -1.41800  -1.35363
H     1.08880   0.49216   1.78928
H     0.18126  -0.31356  -1.04173
H    -1.32095   0.53823   1.55731
H    -3.62368   0.63637   1.55428
H    -4.31133   1.09737  -0.03118
H    -4.38033  -0.58697   0.49113
H    -3.13252  -1.30331  -1.67271
H    -3.05440   0.38060  -2.19405
H    -1.55416  -0.57494  -2.06886
