46
Generated by autodE on: 2022-06-19. E = -885.694182 Ha. Imaginary frequency = -443.6 cm-1
C    -3.48259  -3.39743  -1.04771
N    -2.30707  -2.90042  -0.36481
C    -2.22830  -1.60645   0.05017
O    -3.22675  -0.85959  -0.02461
C    -0.93179  -1.19222   0.60073
C     0.11881  -2.20135   0.94860
N    -0.76894   0.04609   1.10407
C    -1.39171   1.18387   0.66599
C    -0.82574   2.42875   1.20832
C    -1.61019   3.68582   0.96051
O     0.25769   2.43718   1.79875
C    -0.91252   1.24782  -1.34412
C    -0.39162  -0.00831  -1.72919
C    -1.17668  -0.89122  -2.66886
C     0.99052  -0.33577  -1.47602
C     1.86470   0.37044  -0.69806
C     3.21241  -0.06864  -0.41694
C     4.12370   0.52918   0.39542
C     3.86285   1.78922   1.17365
C     5.49862  -0.05157   0.57436
H    -3.39332  -4.48523  -1.16418
H    -3.60639  -2.94749  -2.04826
H    -4.39022  -3.17880  -0.46648
H    -1.46050  -3.45359  -0.41954
H     1.02055  -1.69890   1.32480
H     0.42070  -2.78396   0.06391
H    -0.22789  -2.91481   1.71583
H     0.14485   0.23463   1.52381
H    -2.46252   1.12320   0.50072
H    -1.93451   3.74226  -0.09041
H    -1.01201   4.56849   1.22177
H    -2.52440   3.66565   1.57753
H    -0.21102   2.08047  -1.24935
H    -1.88575   1.53514  -1.75090
H    -0.93827  -1.95695  -2.53454
H    -0.95542  -0.63972  -3.72282
H    -2.25891  -0.75945  -2.52488
H     1.34780  -1.27959  -1.90625
H     1.53241   1.30742  -0.24546
H     3.52061  -0.99547  -0.91785
H     4.08286   1.63019   2.24457
H     4.53935   2.59829   0.84233
H     2.83027   2.15211   1.09522
H     5.64423  -0.96555  -0.02079
H     5.69262  -0.29414   1.63543
H     6.27732   0.67771   0.28390
