52
Generated by autodE on: 2022-10-22. E = -1453.612810 Ha
C    -6.16643 -15.61027   0.13275
N    -5.77898 -14.24511  -0.16877
C    -4.50709 -13.85644  -0.06688
O    -3.57558 -14.55779   0.30517
N    -4.28822 -12.48563  -0.43943
N    -5.31097 -11.79593  -0.97727
C    -4.83741 -10.58924  -1.22276
C    -5.75022  -9.54450  -1.78035
O    -6.24273  -9.59093  -2.88700
O    -6.00685  -8.59630  -0.87880
C    -6.79136  -7.48019  -1.32574
C    -3.46259 -10.47879  -0.86741
C    -3.13712 -11.71835  -0.32366
C    -1.86657 -12.24569   0.30469
F    -1.30520 -13.16884  -0.58908
C    -2.09648 -12.99475   1.62853
O    -1.32414 -13.82491   2.04851
O    -3.13735 -12.51550   2.30238
C    -3.40553 -13.10865   3.58312
C    -0.76250 -11.21523   0.58293
C    -1.02151 -10.15255   1.65633
C    -2.26744  -9.27276   1.51589
C    -2.41603  -8.44656   0.23472
C    -2.64945  -9.21173  -1.08395
O    -1.38851  -9.44103  -1.68111
C    -1.38302 -10.24650  -2.85546
O    -3.43956  -8.46577  -1.99747
C    -3.02943  -7.13869  -2.28317
H    -5.68401 -16.32493  -0.55259
H    -7.25403 -15.69541   0.02594
H    -5.88725 -15.87918   1.16271
H    -6.45465 -13.57481  -0.52508
H    -6.87993  -6.80934  -0.46380
H    -6.28091  -6.96879  -2.15496
H    -7.78623  -7.81233  -1.65463
H    -4.28507 -12.58796   3.97741
H    -3.61733 -14.18020   3.46013
H    -2.54609 -12.97321   4.25453
H    -0.50880 -10.74164  -0.36795
H     0.10054 -11.82317   0.89182
H    -0.12895  -9.50507   1.67044
H    -1.05886 -10.63465   2.64744
H    -3.17321  -9.87998   1.66437
H    -2.25545  -8.55766   2.35422
H    -1.54068  -7.79418   0.09112
H    -3.29451  -7.79833   0.36677
H    -1.43034 -11.31903  -2.60497
H    -0.43650 -10.04328  -3.37514
H    -2.22110  -9.98953  -3.52070
H    -1.95187  -7.08947  -2.50656
H    -3.59059  -6.82348  -3.17357
H    -3.26171  -6.44880  -1.45535
