34
Generated by autodE on: 2022-10-22. E = -868.560982 Ha
C    -1.85078   3.25377  -3.46802
O    -1.96428   2.49969  -2.24671
C    -0.90393   1.79677  -1.88279
O     0.14210   1.74314  -2.49216
C    -1.11027   1.08792  -0.53993
F    -2.47559   0.90510  -0.31937
C    -0.43422  -0.20539  -0.47383
C     0.19959  -1.11221   0.01726
C     1.01932  -1.79783   1.03966
O     0.64210  -3.15704   1.05104
C     1.23639  -3.96272   2.06357
O     2.39483  -1.64413   0.77373
C     2.84137  -2.16559  -0.47182
C     0.74185  -1.06797   2.37267
C     0.81997   0.47190   2.32606
C    -0.46953   1.26724   1.97592
C    -0.54034   1.96104   0.60200
H    -1.03743   3.98838  -3.38559
H    -1.65541   2.57847  -4.31277
H    -2.81337   3.76048  -3.59799
H     1.04375  -5.00780   1.78456
H     2.32493  -3.80449   2.12045
H     0.79100  -3.77311   3.05411
H     2.65733  -3.24905  -0.54678
H     3.92156  -1.97576  -0.52676
H     2.34337  -1.65938  -1.31724
H     1.48476  -1.44367   3.09199
H    -0.25071  -1.39142   2.72237
H     1.13279   0.79079   3.33163
H     1.64318   0.77055   1.65645
H    -1.36055   0.63131   2.10691
H    -0.57252   2.07107   2.72031
H     0.45827   2.30732   0.29418
H    -1.19434   2.84603   0.65019
