52
Generated by autodE on: 2022-10-22. E = -1453.446191 Ha. Imaginary frequency = -276.0 cm-1
C    -6.44956 -14.71196   1.14368
N    -5.79212 -13.92428   0.11967
C    -4.49291 -14.08821  -0.19934
O    -3.75095 -14.93270   0.30085
N    -3.95179 -13.23929  -1.20223
N    -4.65420 -12.27608  -1.59706
C    -4.78079 -11.09855  -1.76476
C    -5.53805 -10.12362  -2.56583
O    -5.18657  -9.76541  -3.66695
O    -6.62112  -9.72176  -1.91913
C    -7.45620  -8.76416  -2.60064
C    -2.81285 -10.51125  -0.59618
C    -2.33908 -11.57916  -0.21213
C    -1.44201 -12.42473   0.57109
F    -0.92284 -13.46418  -0.20067
C    -2.11439 -13.10028   1.78273
O    -1.59700 -14.02325   2.36844
O    -3.24772 -12.51254   2.14013
C    -3.92312 -13.05837   3.28671
C    -0.25041 -11.58159   1.06641
C    -0.59712 -10.33282   1.89491
C    -0.80301  -8.99436   1.14931
C    -2.22451  -8.55065   0.76224
C    -2.75699  -9.02018  -0.60399
O    -1.85152  -8.54513  -1.57207
C    -2.12643  -8.89223  -2.92290
O    -4.06818  -8.55317  -0.84992
C    -4.26476  -7.14626  -0.89815
H    -7.47354 -14.95418   0.82626
H    -6.49847 -14.17499   2.10475
H    -5.89456 -15.64574   1.29423
H    -6.32304 -13.17997  -0.32175
H    -8.25928  -8.51882  -1.89755
H    -6.87439  -7.86670  -2.85132
H    -7.86939  -9.20862  -3.51693
H    -4.84486 -12.47699   3.39644
H    -4.15251 -14.11824   3.11547
H    -3.29311 -12.95233   4.18114
H     0.32664 -11.30382   0.17063
H     0.37243 -12.26800   1.66058
H     0.25253 -10.18446   2.57820
H    -1.46351 -10.53512   2.54718
H    -0.41976  -8.20736   1.81686
H    -0.15735  -8.96223   0.25710
H    -2.23917  -7.45115   0.72935
H    -2.95462  -8.86323   1.52459
H    -2.21434  -9.98488  -3.04769
H    -1.27654  -8.53220  -3.51836
H    -3.05125  -8.41930  -3.28481
H    -3.47587  -6.64519  -1.48005
H    -4.30728  -6.70312   0.11036
H    -5.23177  -6.98521  -1.39435
