28
Generated by autodE on: 2022-06-06. E = -819.944901 Ha
C     5.11732   0.26186   0.32149
O     3.79114  -0.27255   0.28157
C     2.79220   0.61170   0.07091
O     2.99973   1.80971  -0.08887
C     1.50583  -0.03696   0.06938
C     1.20845  -1.38946   0.35167
O     1.82544  -2.40457   0.61042
O    -0.23025  -1.44251   0.29863
C    -0.71053  -0.23541   0.00369
C    -2.15024  -0.05159  -0.11494
C    -2.92481  -1.13971  -0.56511
C    -4.30779  -1.01389  -0.67163
C    -4.93358   0.18812  -0.32267
C    -4.17132   1.26376   0.14331
C    -2.78581   1.15035   0.25209
N     0.27955   0.62599  -0.15494
C     0.15361   2.00680  -0.62245
H     5.37508   0.74329  -0.63365
H     5.78070  -0.59262   0.50132
H     5.22105   0.99556   1.13481
H    -2.43345  -2.07446  -0.83826
H    -4.90110  -1.85758  -1.03015
H    -6.01841   0.28374  -0.40657
H    -4.65893   2.19606   0.43541
H    -2.20821   1.98237   0.65352
H     0.95329   2.20210  -1.34210
H    -0.81832   2.13247  -1.10828
H     0.24804   2.70514   0.21885
