20
Generated by autodE on: 2022-06-06. E = -1069.688689 Ha
F     2.22444  -0.75001   1.27566
C     1.55939  -0.50230   0.12425
F     2.24770   0.44514  -0.52987
F     1.65290  -1.63837  -0.61004
C     0.14479  -0.14119   0.38426
C    -0.60879   0.85537  -0.11723
Cl   -0.17744   2.10169  -1.23276
C    -2.04698   0.62722   0.30370
C    -2.52607  -0.60731  -0.52909
C    -1.67844  -1.77261   0.05610
C    -0.81076  -1.05865   1.14181
C    -1.81673  -0.02240   1.68373
H    -2.69349   1.51007   0.24417
H    -3.60152  -0.76612  -0.36444
H    -2.36686  -0.45236  -1.60548
H    -2.31520  -2.53471   0.52869
H    -1.05162  -2.27106  -0.69555
H    -0.33006  -1.72799   1.86543
H    -2.72665  -0.48000   2.09946
H    -1.37271   0.66806   2.41501
