47
Generated by autodE on: 2022-10-22. E = -1702.161659 Ha
C     3.30293   0.69825   2.65661
O     2.56268   0.67593   1.42215
C     1.86586  -0.41396   1.16141
O     1.83666  -1.39251   1.87899
C     1.15518  -0.39984  -0.21338
C     2.28155  -0.69767  -1.26117
C     2.16837  -1.97037  -2.04006
O     3.22194   0.06054  -1.37327
N     0.11453  -1.41137  -0.24702
C    -1.23067  -0.88244  -0.02916
C    -2.13358  -1.14385  -1.26547
C    -1.73914  -2.28775  -2.15661
O    -3.15279  -0.50910  -1.44799
C    -1.98949  -1.53555   1.16878
C    -1.27779  -2.56092   1.99840
O    -3.14624  -1.22845   1.37383
C    -0.97232   0.64014   0.28768
O    -0.68850   0.63909   1.67154
C    -0.42340   1.87069   2.35384
O    -1.88458   1.59595  -0.08105
C    -3.12522   1.70834   0.62347
C     0.35623   0.91301  -0.49429
Cl   -0.04056   0.87350  -2.34072
O     0.81412   2.12916  -0.15190
C     1.96572   2.72414  -0.75839
H     3.78245   1.68214   2.69763
H     2.62051   0.56602   3.50725
H     4.05841  -0.09985   2.65705
H     2.12525  -2.82528  -1.34662
H     3.03691  -2.06401  -2.70404
H     1.23526  -1.98716  -2.61849
H     0.35813  -2.19599   0.34906
H    -1.44504  -3.16566  -1.56270
H    -2.58205  -2.53169  -2.81603
H    -0.86881  -2.00505  -2.76555
H    -1.01582  -3.43191   1.37354
H    -1.94132  -2.88624   2.80926
H    -0.34137  -2.15597   2.40626
H    -0.88868   2.72467   1.84643
H    -0.85367   1.76569   3.35981
H     0.65795   2.04506   2.43278
H    -3.46509   2.74176   0.47176
H    -3.00368   1.52193   1.69888
H    -3.86098   1.00668   0.21465
H     1.97425   3.76309  -0.40681
H     2.88246   2.20884  -0.45605
H     1.86807   2.70488  -1.85334
