18
Generated by autodE on: 2022-10-22. E = -881.980607 Ha
C     2.52886  -0.86768   0.48451
O     1.44744  -0.94053  -0.45320
C     0.51501   0.03288  -0.36177
Cl    1.05524   1.67302  -0.74186
C    -0.78849  -0.20701  -0.10537
O    -1.72747   0.74118  -0.30941
C    -2.58578   1.01006   0.80714
O    -1.30222  -1.39964   0.27921
C    -0.57461  -2.22145   1.19482
H     3.15133  -1.75560   0.31618
H     3.12847   0.03987   0.31216
H     2.14855  -0.86538   1.51869
H    -3.24978   1.82740   0.49855
H    -3.18692   0.12753   1.07151
H    -1.99160   1.32622   1.68055
H    -1.30586  -2.91102   1.63752
H     0.20814  -2.79714   0.68142
H    -0.11933  -1.60743   1.98818
