61
Generated by autodE on: 2022-12-31. E = -1639.365115 Ha
C   -18.71381  -5.82011  -6.65110
N   -18.91841  -7.03459  -5.88838
C   -20.13924  -7.49435  -5.59528
O   -21.18629  -6.87971  -5.81377
C   -20.17130  -8.89176  -4.90692
O   -18.94178  -9.50915  -5.26366
C   -18.55619 -10.73335  -4.66417
C   -20.24813  -8.66563  -3.38056
C   -20.57889  -9.87982  -2.47991
C   -21.92533  -9.81740  -1.75765
C   -23.14223 -10.24881  -2.56537
C   -23.42375  -9.42186  -3.87785
C   -24.87420  -9.54739  -4.15109
N   -26.02181  -9.60202  -4.29955
C   -23.29760  -7.97203  -3.60584
N   -23.29756  -6.84647  -3.33185
C   -22.60345  -9.88975  -5.09096
C   -21.34774  -9.63842  -5.51182
C   -21.30570 -10.15382  -6.99199
C   -19.98646 -10.35925  -7.68662
C   -19.35413  -9.30995  -8.37066
C   -18.10436  -9.50494  -8.96175
C   -17.47433 -10.75055  -8.88873
C   -18.10526 -11.80267  -8.21883
C   -19.35092 -11.60733  -7.61962
C   -22.32669  -9.18223  -7.70865
O   -22.15785  -8.31333  -8.51999
O   -23.55294  -9.53119  -7.24853
C   -23.27272 -10.61540  -6.27148
C   -24.53080 -11.45835  -6.11311
O   -25.46515 -11.42284  -6.87444
O   -24.40458 -12.26237  -5.06855
C   -25.51540 -13.13204  -4.77831
N   -22.17859 -11.34877  -6.85810
C   -22.51764 -12.06236  -8.09474
H   -17.68297  -5.47117  -6.50908
H   -19.40617  -5.03928  -6.30931
H   -18.88508  -5.98727  -7.72856
H   -18.16086  -7.70536  -5.79417
H   -18.25893 -10.60164  -3.61156
H   -17.68720 -11.08911  -5.23279
H   -19.34974 -11.49419  -4.72776
H   -20.94695  -7.84422  -3.18595
H   -19.25836  -8.26714  -3.11561
H   -20.53499 -10.82216  -3.04217
H   -19.79027  -9.95097  -1.71680
H   -22.08883  -8.80818  -1.34414
H   -21.89177 -10.49720  -0.89151
H   -24.03751 -10.16293  -1.93415
H   -23.05862 -11.29577  -2.88795
H   -19.83081  -8.33405  -8.43287
H   -17.62091  -8.67469  -9.48180
H   -16.49702 -10.90131  -9.35319
H   -17.62314 -12.78079  -8.15400
H   -19.82200 -12.42883  -7.08063
H   -25.70932 -13.79308  -5.63386
H   -26.40858 -12.53020  -4.55968
H   -25.21768 -13.71308  -3.89922
H   -21.59972 -12.45024  -8.54815
H   -23.04346 -11.44148  -8.84046
H   -23.15279 -12.92199  -7.84148
