33
Generated by autodE on: 2022-12-31. E = -819.383102 Ha
C     0.12966  -4.94794  -0.81260
N     0.62428  -3.58672  -0.77807
C    -0.08217  -2.54578  -0.31977
O    -1.22618  -2.60627   0.13783
C     0.68644  -1.20253  -0.32024
O     1.74360  -1.18927  -1.26298
C     1.36132  -1.01483  -2.62325
C    -0.22349  -0.06047  -0.48303
C    -0.69509   1.04276  -0.33021
C    -0.84787   2.34995   0.32213
C    -1.97822   2.30363   1.27547
N    -2.83584   2.25586   2.05289
C    -1.08911   3.44247  -0.64165
N    -1.24103   4.30630  -1.39845
C     0.49706   2.62534   1.10494
C     0.97237   1.46334   1.99417
C     1.90492   0.38978   1.36796
C     1.32590  -1.00907   1.08443
H     0.77133  -5.61293  -0.21393
H     0.10012  -5.32946  -1.84492
H    -0.88526  -4.96614  -0.39782
H     1.55229  -3.38389  -1.13982
H     0.96362  -0.00132  -2.79846
H     2.26872  -1.15354  -3.22610
H     0.60508  -1.75423  -2.93633
H     1.25214   2.86576   0.34229
H     0.32685   3.53030   1.70598
H     1.52956   1.94204   2.81312
H     0.10482   0.98235   2.47707
H     2.37518   0.78120   0.45137
H     2.73188   0.23260   2.07657
H     2.12530  -1.76349   1.14713
H     0.56755  -1.27062   1.83748
