28
Generated by autodE on: 2022-12-31. E = -819.930104 Ha
C     5.23115   0.25625  -0.28040
O     3.83477   0.56155  -0.41135
C     2.98121  -0.35848   0.04956
O     3.31361  -1.42073   0.55065
C     1.60246   0.07987  -0.11869
O     1.29724   1.29155  -0.60238
C    -0.10731   1.43902  -0.63022
O    -0.61379   2.46867  -1.04891
C    -0.61231   0.21546  -0.09905
C    -2.01820  -0.10458   0.12667
C    -2.97862   0.37807  -0.78777
C    -4.33568   0.12456  -0.59303
C    -4.76481  -0.61534   0.51404
C    -3.82328  -1.08887   1.43304
C    -2.46391  -0.83222   1.24973
N     0.47785  -0.57843   0.17952
C     0.42298  -1.96735   0.64608
H     5.76591   1.11340  -0.70478
H     5.49809   0.12632   0.77845
H     5.47797  -0.66032  -0.83540
H    -2.65043   0.95031  -1.65615
H    -5.06316   0.50214  -1.31542
H    -5.82817  -0.81602   0.66332
H    -4.14919  -1.65331   2.30981
H    -1.75179  -1.17678   1.99988
H     0.50208  -1.99920   1.74036
H    -0.53002  -2.40088   0.32816
H     1.25463  -2.52141   0.20435
