61
Generated by autodE on: 2022-12-31. E = -1639.312323 Ha. Imaginary frequency = -351.8 cm-1
C   -18.30721  -6.82011  -7.51940
N   -18.67387  -7.79647  -6.51346
C   -19.72893  -7.61475  -5.71448
O   -20.40699  -6.58374  -5.69654
C   -20.05904  -8.78080  -4.73807
O   -19.03140  -9.75107  -4.90999
C   -19.17708 -11.04910  -4.35650
C   -20.03040  -8.12139  -3.33443
C   -20.38412  -8.89944  -2.06609
C   -21.86526  -9.17806  -1.78234
C   -22.46664 -10.46406  -2.36444
C   -23.32752 -10.29409  -3.66481
C   -23.94397 -11.61389  -3.91519
N   -24.37194 -12.67778  -4.07883
C   -24.40237  -9.31352  -3.39608
N   -25.20263  -8.52193  -3.12150
C   -22.50269  -9.85439  -4.84691
C   -21.38867  -9.33819  -5.10494
C   -21.49005  -9.86566  -7.62227
C   -20.17829 -10.09182  -8.23722
C   -19.78666  -9.28345  -9.32175
C   -18.52740  -9.43768  -9.90075
C   -17.63697 -10.39358  -9.40447
C   -18.02181 -11.20887  -8.33431
C   -19.28213 -11.06539  -7.75727
C   -22.21200  -8.59742  -7.64063
O   -21.93627  -7.49282  -8.06022
O   -23.45835  -8.87549  -7.10203
C   -23.44656 -10.18218  -6.66388
C   -24.81508 -10.78801  -6.57740
O   -25.13546 -11.86651  -7.02618
O   -25.62157  -9.96381  -5.92432
C   -26.96981 -10.40523  -5.69241
N   -22.40820 -10.82048  -7.30138
C   -22.11822 -12.23299  -7.09262
H   -17.43875  -7.19155  -8.07529
H   -19.13451  -6.64693  -8.22426
H   -18.04815  -5.85667  -7.05306
H   -18.24167  -8.71512  -6.50507
H   -18.45258 -11.69165  -4.87557
H   -18.94847 -11.06780  -3.28039
H   -20.18774 -11.45614  -4.51535
H   -20.68366  -7.23916  -3.39689
H   -18.99870  -7.74488  -3.23283
H   -19.80863  -9.83253  -1.98679
H   -20.02120  -8.26607  -1.24042
H   -22.47086  -8.30245  -2.07049
H   -21.97429  -9.26083  -0.69063
H   -23.13570 -10.92657  -1.62482
H   -21.68648 -11.19976  -2.60663
H   -20.47137  -8.52831  -9.70500
H   -18.23876  -8.80076 -10.73963
H   -16.64613 -10.50560  -9.85047
H   -17.33208 -11.95783  -7.93904
H   -19.55205 -11.68977  -6.91024
H   -27.44400  -9.61164  -5.10528
H   -27.49254 -10.54449  -6.64879
H   -26.96178 -11.34910  -5.12962
H   -21.50226 -12.59811  -7.92134
H   -21.58102 -12.36636  -6.14167
H   -23.06060 -12.78440  -7.06548
