33
Generated by autodE on: 2022-05-29. E = -3301.711152 Ha
C    -1.70789   2.17163  -1.35182
C    -1.57933   0.77623  -0.86571
C    -2.22766   0.09122   0.08757
Br   -3.60193   0.67333   1.23519
C    -1.50879  -1.24391   0.25171
O    -1.06417  -1.47741  -1.09343
C    -0.45752  -0.18301  -1.28146
C     0.59572  -0.16576  -0.14183
C     1.83782  -1.04846  -0.40551
C     3.10988  -0.29099  -0.68712
C     3.63883   0.60029   0.26172
C     4.81971   1.29927   0.00332
C     5.48847   1.12398  -1.21373
C     4.96882   0.24329  -2.16636
C     3.78956  -0.46073  -1.90112
N     1.95664  -1.92513   0.78577
N     0.62253  -2.15575   1.25396
C    -0.16953  -0.94416   0.97349
H    -2.54348   2.69555  -0.86650
H    -0.77911   2.73204  -1.14580
H    -1.85700   2.19738  -2.44431
H    -2.08871  -2.09003   0.63918
H    -0.06712  -0.07221  -2.30030
H     0.87064   0.85533   0.14870
H     1.62121  -1.69992  -1.26602
H     3.11986   0.75267   1.21198
H     5.21847   1.98725   0.75289
H     6.41073   1.67332  -1.41774
H     5.48383   0.10042  -3.11954
H     3.38756  -1.15285  -2.64561
H     2.43199  -1.39322   1.51789
H     0.25322  -2.91078   0.67411
H    -0.31846  -0.35331   1.88781
