16
Generated by autodE on: 2022-05-29. E = -2920.439893 Ha
C     2.19912  -1.34375   0.06914
C     0.77633  -1.05847   0.37023
C     0.01485   0.03168   0.21761
Br    0.46825   1.71490  -0.48426
C    -1.43418  -0.38763   0.55806
C    -1.89591  -1.35108  -0.56229
C    -1.15164  -2.44791  -0.39289
C    -0.25249  -2.13203   0.82488
O    -1.15629  -1.32641   1.61030
H     2.27261  -2.11210  -0.72134
H     2.72995  -0.44353  -0.27236
H     2.72000  -1.74951   0.95277
H    -2.12288   0.40477   0.86998
H    -2.62901  -1.11373  -1.33236
H    -1.10678  -3.36001  -0.98699
H     0.15065  -2.97797   1.39303
