33
Generated by autodE on: 2022-05-29. E = -3301.620724 Ha. Imaginary frequency = -317.4 cm-1
C    -1.86797   2.09492  -1.62684
C    -1.64198   0.80223  -0.93692
C    -2.34673   0.12942  -0.01697
Br   -3.97109   0.59466   0.81135
C    -1.47659  -1.06548   0.42762
O    -0.84324  -1.36365  -0.83147
C    -0.33495  -0.02630  -1.04398
C     0.46180   0.17784   0.26099
C     2.25673  -1.23823  -0.09730
C     3.43449  -0.44586  -0.43408
C     4.30161   0.10241   0.53502
C     5.38992   0.88618   0.15210
C     5.63040   1.15823  -1.20016
C     4.76794   0.63518  -2.16955
C     3.68455  -0.15841  -1.79186
N     2.12058  -1.86290   1.08429
N     1.00729  -2.41851   1.51396
C    -0.28015  -0.49337   1.21284
H    -2.84563   2.52766  -1.37003
H    -1.08259   2.81879  -1.34444
H    -1.80860   1.97771  -2.72223
H    -2.00003  -1.93418   0.84312
H     0.21155   0.05539  -1.99152
H     1.11427   1.03394   0.42707
H     1.68020  -1.66657  -0.91653
H     4.12610  -0.07384   1.59955
H     6.05255   1.29676   0.91791
H     6.48123   1.77694  -1.49437
H     4.94307   0.84282  -3.22804
H     3.01678  -0.57089  -2.55241
H     2.76940  -1.60665   1.83027
H     0.47162  -2.66427   0.67531
H    -0.30919  -0.30423   2.28382
