13
Generated by autodE on: 2022-05-29. E = -449.162429 Ha
C    -3.05950   0.29134  -0.61738
N    -2.28630  -0.79396  -1.19341
C    -0.98218  -1.02992  -1.01794
O    -0.32652  -1.94352  -1.51191
C    -0.27433  -0.08601  -0.13539
N     0.47396   0.52711   0.51098
N     1.13753   1.31240   1.25819
C     2.42818   1.05979   1.43293
N     3.56929   0.95235   1.67098
H    -2.42863   0.89375   0.05016
H    -3.45472   0.94837  -1.40626
H    -3.90041  -0.10600  -0.03067
H    -2.76032  -1.45208  -1.81060
