29
Generated by autodE on: 2022-05-29. E = -1193.151699 Ha. Imaginary frequency = -319.0 cm-1
C     5.65789  -0.09473   0.45634
N     4.38961   0.24506  -0.16555
C     3.49905   1.02673   0.45722
O     3.60933   1.48751   1.59093
C     2.26966   1.29768  -0.31959
N     1.73662   1.83833  -1.23585
N     0.63635   2.30882  -1.69347
C     0.26124   1.96301  -2.91636
N    -0.20330   1.72798  -3.96530
C    -0.63741   1.13110   0.27415
C    -1.17033  -0.02645  -0.59152
O     0.05751  -0.72323  -0.88044
C     0.46828  -0.86820   0.48650
C    -0.79768  -1.54650   1.04242
F    -0.76435  -2.38889   2.05381
C    -1.83668  -1.03878   0.37305
C    -3.29110  -1.17894   0.58140
F    -3.93570  -1.52678  -0.55255
F    -3.84413  -0.01138   0.98329
F    -3.58891  -2.10307   1.50992
C     0.42139   0.61097   0.94996
H     5.49413  -0.43253   1.48936
H     6.12556  -0.90224  -0.11878
H     6.33897   0.77109   0.47831
H     4.20394  -0.04890  -1.12121
H    -1.14648   2.08082   0.42027
H    -1.73004   0.22325  -1.49858
H     1.40842  -1.41760   0.59967
H     0.91834   1.00273   1.83661
