38
Generated by autodE on: 2022-06-17. E = -822.915486 Ha
C     0.39566   3.81233   0.41249
N     0.61034   2.39322   0.20692
C    -0.22326   1.47296   0.71435
O    -1.20609   1.78897   1.39483
C     0.02986  -0.01928   0.34326
C     1.44274  -0.24785  -0.20403
C     2.55228   0.00033   0.62332
C     3.85269  -0.19415   0.15604
C     4.06932  -0.64168  -1.15247
C     2.97420  -0.89197  -1.98189
C     1.67090  -0.69701  -1.51001
C    -0.24749  -0.91063   1.58571
C    -1.06320  -2.07521   1.03705
C    -1.92938  -1.40998  -0.04565
C    -2.47994  -2.40750  -1.07132
C    -3.09327  -0.72270   0.59130
N    -4.00512  -0.16540   1.04610
N    -1.00199  -0.44402  -0.62715
C    -1.51319   0.51673  -1.58285
H     1.23108   4.36653  -0.03237
H    -0.54402   4.14756  -0.05604
H     0.34141   4.04979   1.48616
H     1.39279   2.08742  -0.36111
H     2.39567   0.35536   1.64484
H     4.70082   0.00286   0.81621
H     5.08671  -0.79453  -1.52033
H     3.13040  -1.24352  -3.00477
H     0.81953  -0.90265  -2.15815
H    -0.84863  -0.33954   2.30493
H     0.67709  -1.22937   2.08095
H    -0.42077  -2.81565   0.53781
H    -1.66417  -2.58880   1.79938
H    -3.09655  -1.90916  -1.83271
H    -1.63818  -2.91275  -1.56595
H    -3.10249  -3.15984  -0.56496
H    -0.67746   1.04975  -2.05598
H    -2.19069   1.27052  -1.13379
H    -2.06348  -0.00259  -2.38061
