32
Generated by autodE on: 2022-06-17. E = -744.209819 Ha
C     1.39463   3.43533   0.00309
N     1.07619   2.03710   0.20284
C    -0.03665   1.48204  -0.33442
O    -0.88772   2.18716  -0.90533
C    -0.14585   0.00648  -0.23138
C     1.04651  -0.84925  -0.15925
C     2.19321  -0.58756  -0.94132
C     3.32074  -1.40327  -0.85303
C     3.33117  -2.50750   0.00700
C     2.20123  -2.78456   0.78367
C     1.07641  -1.96335   0.70817
N    -1.38149  -0.56764  -0.26291
C    -1.56726  -1.87236  -0.93120
C    -2.50133   0.01448   0.23406
C    -3.87925  -0.42351  -0.16700
C    -2.36148   1.05365   1.17014
N    -2.28955   1.89359   1.98334
H     0.54121   4.06938   0.28551
H     2.25522   3.69775   0.63098
H     1.64591   3.65637  -1.04867
H     1.77453   1.43311   0.62123
H     2.19089   0.25461  -1.63577
H     4.19434  -1.18294  -1.47124
H     4.21430  -3.14725   0.07100
H     2.19996  -3.63979   1.46387
H     0.20964  -2.17700   1.33696
H    -1.95706  -2.61593  -0.22480
H    -0.61621  -2.20806  -1.34851
H    -2.28639  -1.74097  -1.75029
H    -4.08263  -1.46919   0.11690
H    -4.03333  -0.33710  -1.25645
H    -4.62368   0.21076   0.33139
