38
Generated by autodE on: 2022-06-17. E = -822.823290 Ha. Imaginary frequency = -341.6 cm-1
C    -1.05834   3.33266   1.37926
N    -0.69904   2.25025   0.48548
C    -0.02830   1.16560   0.93566
O     0.52682   1.16017   2.04150
C     0.10677   0.02622  -0.04198
C     1.50385  -0.23265  -0.47417
C     2.48237   0.77802  -0.38271
C     3.80573   0.53770  -0.75690
C     4.18702  -0.71768  -1.23821
C     3.22934  -1.73298  -1.33627
C     1.90980  -1.49667  -0.95356
C    -0.36084  -1.78412   1.44354
C    -1.57152  -2.25583   0.99401
C    -2.22117  -0.47225  -0.40005
C    -3.32989  -0.93352  -1.31033
C    -2.67103   0.20001   0.77206
N    -3.14510   0.68215   1.72451
N    -0.95000  -0.25687  -0.88221
C    -0.70699  -0.74014  -2.25037
H    -1.57197   4.11365   0.80502
H    -1.72949   2.97950   2.18029
H    -0.16271   3.76718   1.84693
H    -1.17642   2.18801  -0.40725
H     2.20892   1.77099  -0.02316
H     4.54137   1.34168  -0.67749
H     5.22247  -0.90563  -1.53129
H     3.51392  -2.72199  -1.70329
H     1.18558  -2.30899  -1.01928
H    -0.29444  -1.21131   2.36998
H     0.57389  -2.20665   1.07852
H    -1.61543  -2.99193   0.18576
H    -2.48122  -2.14581   1.58680
H    -3.61679  -0.16141  -2.04575
H    -3.05399  -1.84603  -1.85624
H    -4.21565  -1.15977  -0.70153
H     0.26427  -0.37941  -2.59547
H    -1.48077  -0.33523  -2.91246
H    -0.73147  -1.83804  -2.30050
