24
Generated by autodE on: 2022-12-31. E = -717.732409 Ha
C    -2.69116   2.13668   0.73605
N    -2.22692   0.81219   0.36641
C    -0.97177   0.41979   0.62653
O    -0.13266   1.14316   1.17153
C    -0.65321  -1.00366   0.27768
C    -1.68115  -1.97174   0.36395
N    -2.56575  -2.72908   0.42960
N     0.60392  -1.43267   0.07686
C     0.87093  -2.88850   0.13887
N     1.65980  -0.71234  -0.14801
C     1.50459   0.52339  -0.75648
O     0.64218   0.82773  -1.56495
O     2.54180   1.30198  -0.44220
C     2.56847   2.59799  -1.05414
H    -3.73737   2.24166   0.42676
H    -2.62138   2.29083   1.82391
H    -2.09008   2.91491   0.24078
H    -2.86806   0.17718  -0.10002
H     0.45124  -3.30494   1.06185
H     1.95557  -3.01697   0.10701
H     0.40818  -3.36434  -0.73612
H     1.66392   3.16394  -0.78802
H     3.45929   3.09941  -0.65837
H     2.63822   2.50953  -2.14808
