38
Generated by autodE on: 2022-12-31. E = -1302.599973 Ha
C     4.80230   0.08756   1.46744
N     3.37786  -0.15905   1.57476
C     2.53619   0.13308   0.57780
O     2.89528   0.61525  -0.50033
C     1.04896  -0.24305   0.80427
C     0.59582   0.03250   2.25733
O     1.16535  -0.53576   3.19949
N    -0.41737   0.88439   2.43617
C    -0.93437   1.18725   3.75814
C     0.20390   0.40674  -0.18768
C    -0.67979   0.56776  -1.00033
C    -1.77243   0.11683  -1.85543
Cl   -3.16357   1.40630  -1.75098
O    -1.42778  -0.06662  -3.17336
C    -0.70843   0.98864  -3.80610
C    -2.31276  -1.20098  -1.28543
C    -1.23222  -2.27178  -1.02000
C    -0.55327  -2.30421   0.37811
C     0.89144  -1.78363   0.51744
H     5.23171  -0.44559   0.60499
H     5.29330  -0.26566   2.38230
H     5.01660   1.16121   1.34180
H     2.96914  -0.51129   2.44058
H    -0.87309   1.28295   1.62051
H    -0.13525   1.56814   4.41177
H    -1.36620   0.29164   4.23222
H    -1.71472   1.95179   3.66530
H    -1.29999   1.91804  -3.79844
H    -0.53317   0.67101  -4.84156
H     0.25782   1.16366  -3.30515
H    -3.04344  -1.57201  -2.02028
H    -2.85788  -0.97591  -0.35830
H    -0.46863  -2.22743  -1.81396
H    -1.73747  -3.24015  -1.15396
H    -1.20280  -1.81213   1.12164
H    -0.51054  -3.36010   0.68622
H     1.39224  -2.30256   1.34661
H     1.45890  -2.00423  -0.39972
