36
Generated by autodE on: 2022-06-18. E = -858.808866 Ha
C    -0.55787   3.79847   1.12595
N    -0.03497   2.54602   0.61367
C    -0.84438   1.52240   0.31839
O    -2.07175   1.59888   0.43929
C    -0.19648   0.21472  -0.22552
C     1.30328   0.32764  -0.43536
C     2.16310   0.43343   0.67322
C     3.54442   0.53593   0.49951
C     4.09466   0.53102  -0.78603
C     3.24966   0.42456  -1.89267
C     1.86551   0.32538  -1.71972
N    -0.89740   0.02497  -1.54670
N    -1.84763  -0.75761  -1.46985
C    -2.01363  -1.30128  -0.10954
C    -2.59424  -2.68845  -0.13591
O    -2.59029  -3.44164   0.81462
C    -0.66626  -1.04499   0.60974
C    -0.84983  -0.81607   2.11104
C     0.29119  -2.22525   0.37587
H    -1.25976   4.25565   0.41115
H     0.27814   4.48723   1.29582
H    -1.09350   3.64452   2.07570
H     0.96503   2.44556   0.47852
H     1.75295   0.43834   1.68404
H     4.19281   0.61718   1.37491
H     5.17560   0.61041  -0.92276
H     3.66643   0.41988  -2.90265
H     1.21638   0.24737  -2.59058
H    -2.80811  -0.68426   0.34783
H    -3.08989  -2.96986  -1.09506
H     0.11401  -0.62062   2.60268
H    -1.53055   0.01946   2.32148
H    -1.27842  -1.72271   2.56226
H    -0.11356  -3.13381   0.84019
H     1.27186  -2.02783   0.82645
H     0.44300  -2.42208  -0.69601
