14
Generated by autodE on: 2022-06-18. E = -270.683221 Ha
C    -1.08195   1.16283   0.03635
C    -0.81231  -0.31453   0.05975
C    -2.01193  -1.20366   0.15200
C     0.43801  -0.84962   0.00075
C     1.68157  -0.10007  -0.09365
O     1.80094   1.12187  -0.14906
H    -0.53903   1.67749   0.84424
H    -2.15626   1.37165   0.13587
H    -0.71960   1.61110  -0.90289
H    -2.58344  -0.96881   1.06727
H    -2.69497  -1.00032  -0.69154
H    -1.75009  -2.27067   0.15454
H     0.54867  -1.93763   0.02552
H     2.59716  -0.73972  -0.11621
