22
Generated by autodE on: 2022-06-18. E = -588.102841 Ha
C     2.45234   2.62044   0.98337
N     1.44364   1.65165   0.60270
C     1.78469   0.41213   0.19074
O     2.96523   0.03902   0.12057
C     0.67306  -0.48825  -0.20299
N     1.08670  -1.58536  -0.79219
N     1.45313  -2.53084  -1.30115
C    -0.78685  -0.28189  -0.07803
C    -1.33714   0.31158   1.07442
C    -2.71614   0.50450   1.18139
C    -3.57148   0.08956   0.15671
C    -3.03531  -0.51968  -0.98267
C    -1.65702  -0.69792  -1.10415
H     3.12675   2.20479   1.74728
H     3.06781   2.93091   0.12248
H     1.95331   3.50577   1.39619
H     0.47199   1.93889   0.58059
H    -0.68783   0.60776   1.89936
H    -3.12381   0.96981   2.08188
H    -4.65008   0.23683   0.24640
H    -3.69378  -0.84937  -1.78976
H    -1.24939  -1.15848  -2.00694
