36
Generated by autodE on: 2022-06-18. E = -858.757746 Ha. Imaginary frequency = -387.6 cm-1
C    -0.71414   3.72294   1.64920
N    -0.13829   2.58871   0.95121
C    -0.91446   1.67949   0.34827
O    -2.14302   1.77500   0.29705
C    -0.21673   0.46342  -0.27630
C     1.26230   0.40107  -0.42943
C     2.11556   0.56248   0.67997
C     3.49916   0.44299   0.53675
C     4.06049   0.14967  -0.70850
C     3.22230  -0.02422  -1.81367
C     1.83972   0.10218  -1.67748
N    -0.92767   0.15715  -1.42846
N    -1.84495  -0.48479  -1.71505
C    -2.12049  -1.48999   0.23861
C    -2.40959  -2.71217  -0.48066
O    -1.63043  -3.61485  -0.79083
C    -0.90371  -1.15736   0.91268
C    -1.05989  -0.51353   2.27889
C     0.25919  -2.12265   0.82743
H    -1.40732   3.38697   2.43571
H    -1.27193   4.37502   0.95857
H     0.09581   4.30060   2.11012
H     0.87045   2.49794   0.90775
H     1.70392   0.75544   1.67047
H     4.13961   0.57240   1.41195
H     5.14322   0.05647  -0.81746
H     3.64599  -0.25315  -2.79417
H     1.20102  -0.02192  -2.55366
H    -3.00958  -0.91465   0.51013
H    -3.48433  -2.79577  -0.77602
H    -0.15248   0.02050   2.59240
H    -1.91376   0.17528   2.31702
H    -1.23673  -1.31145   3.02020
H    -0.02856  -3.07709   1.29796
H     1.13288  -1.73330   1.36525
H     0.54813  -2.34264  -0.20745
