26
Generated by autodE on: 2022-06-10. E = -834.921065 Ha
C    -2.55710  -1.33498   2.63734
N    -2.31460  -0.65176   1.38291
C    -1.13237  -0.74115   0.75882
O    -0.14788  -1.33937   1.21304
C    -1.06788  -0.14774  -0.60788
O     0.09036   0.00650  -1.19785
C     1.29516   0.14337  -0.68248
C     2.34940   0.01847  -1.61405
N     3.23286  -0.10948  -2.36512
C     1.51594   0.72077   0.65442
O     0.65771   1.31162   1.28110
O     2.78673   0.59524   1.02598
C     3.16609   1.23636   2.25653
C    -2.20999   0.00040  -1.53062
C    -1.90799   0.27648  -2.97600
O    -3.36145  -0.06092  -1.09972
H    -1.70263  -1.19129   3.31292
H    -2.70012  -2.41927   2.49244
H    -3.45943  -0.91922   3.10217
H    -3.09692  -0.30830   0.82292
H     4.22888   1.01028   2.39547
H     3.01089   2.32211   2.18258
H     2.57419   0.83295   3.09016
H    -1.42540   1.26189  -3.07748
H    -2.84691   0.26699  -3.54307
H    -1.20825  -0.47081  -3.38042
