26
Generated by autodE on: 2022-07-27. E = -834.919621 Ha
C    -3.05864  -2.22001   0.34236
N    -1.64591  -1.99074   0.56756
C    -0.98278  -1.03067  -0.08936
O    -1.51452  -0.23336  -0.87692
C     0.49446  -1.00889   0.09919
O     1.18970   0.01055  -0.34342
C     0.84622   1.24741  -0.61871
C     1.80708   1.97991  -1.35052
N     2.57888   2.59546  -1.97176
C    -0.33839   1.95483  -0.08327
O    -0.81085   2.93369  -0.62476
O    -0.71442   1.46691   1.09304
C    -1.91441   2.00812   1.67051
C     1.33067  -2.16468   0.46356
C     2.81607  -2.03993   0.27286
O     0.81343  -3.17469   0.94354
H    -3.44342  -2.87374   1.13446
H    -3.24569  -2.69709  -0.63444
H    -3.60313  -1.26540   0.36476
H    -1.07344  -2.69596   1.03579
H    -1.78323   3.07600   1.89381
H    -2.08336   1.44125   2.59250
H    -2.75580   1.87131   0.97672
H     3.21789  -1.26314   0.94321
H     3.05510  -1.73521  -0.75751
H     3.28592  -3.00377   0.50426
