26
Generated by autodE on: 2022-06-10. E = -1558.659116 Ha
C     1.65573  -3.37753  -3.25536
O     1.96022  -2.18450  -2.50831
C     1.01996  -1.73960  -1.69151
O    -0.06257  -2.25702  -1.52421
C     1.42882  -0.41656  -1.02282
F     2.81425  -0.34615  -0.96822
C     0.82483  -0.28822   0.29793
C     0.00665   0.07377   1.11379
C    -1.11909   0.82775   1.61473
Cl   -2.14047  -0.15211   2.75643
Cl   -0.49643   2.28402   2.52510
C    -1.96883   1.27728   0.41167
C    -1.19288   1.94825  -0.73996
C    -0.60029   1.04608  -1.85822
C     0.91778   0.78176  -1.86741
H     2.54242  -3.58332  -3.86487
H     1.45883  -4.21312  -2.56927
H     0.77844  -3.20887  -3.89551
H    -2.73765   1.95788   0.80604
H    -2.48475   0.37811   0.04079
H    -0.41316   2.60873  -0.32681
H    -1.91855   2.61966  -1.22230
H    -0.81370   1.54545  -2.81481
H    -1.14608   0.08978  -1.90080
H     1.26243   0.60038  -2.89727
H     1.46360   1.65988  -1.48810
