52
Generated by autodE on: 2022-06-10. E = -2393.588220 Ha. Imaginary frequency = -197.7 cm-1
C    -0.68168  -8.72679   3.42236
N     0.75901  -8.57701   3.41536
C     1.40450  -7.79772   2.54583
O     0.88242  -7.20123   1.59848
C     2.89848  -7.70302   2.70754
C     3.76707  -8.91394   2.72567
C     5.25041  -8.68263   2.68884
O     3.25920 -10.02328   2.80825
O     3.52347  -6.64522   2.26459
C     3.23819  -5.35876   2.34726
C     4.22841  -4.54363   1.72880
N     5.05250  -3.87602   1.24979
C     1.92159  -4.69739   2.61068
O     1.64648  -3.64459   2.06813
O     1.17425  -5.30714   3.50837
C    -0.14010  -4.78257   3.74890
C     3.82737  -5.56989   4.74631
C     3.29742  -6.61912   5.10651
C     2.82667  -7.40210   6.24321
Cl    1.02237  -7.18338   6.42429
Cl    3.14244  -9.18509   5.98299
C     3.54690  -6.97393   7.53138
C     3.21163  -5.59164   8.11425
C     3.33293  -4.32029   7.25652
C     4.66663  -4.11261   6.51268
C     4.54294  -4.31602   4.99180
F     3.80676  -3.25052   4.45803
C     5.92968  -4.24738   4.32874
O     6.54276  -3.21183   4.22343
O     6.35156  -5.43715   3.92887
C     7.62819  -5.49489   3.26707
H    -1.14322  -7.84845   2.95287
H    -1.02816  -8.80715   4.46151
H    -1.00248  -9.62714   2.87267
H     1.30099  -9.05384   4.13027
H     5.55068  -8.09103   3.56805
H     5.53466  -8.10276   1.79756
H     5.76530  -9.65108   2.69204
H    -0.07091  -3.76248   4.15114
H    -0.72051  -4.78068   2.81612
H    -0.59438  -5.45444   4.48438
H     3.31832  -7.72872   8.29798
H     4.62227  -7.05490   7.30903
H     3.87872  -5.48614   8.98590
H     2.18804  -5.62473   8.51847
H     2.49905  -4.26710   6.53946
H     3.18075  -3.47003   7.93813
H     5.05204  -3.09070   6.64396
H     5.44441  -4.80014   6.88045
H     7.60295  -4.87535   2.35992
H     8.42085  -5.14125   3.94084
H     7.78229  -6.54817   3.00875
