80
Generated by autodE on: 2022-06-14. E = -1693.809436 Ha
C     4.26566   1.17969   6.19322
N     3.53261   2.16349   6.96523
C     3.83943   3.46845   6.90785
O     4.76017   3.86838   6.18056
C     2.88629   4.48114   7.61590
C     2.14391   3.96873   8.86842
C     2.55989   2.89961   9.67204
C     1.82807   2.52257  10.80399
C     0.67815   3.22253  11.16867
C     0.26204   4.30656  10.38620
C     0.98460   4.66643   9.24918
C     3.61954   5.81666   7.86884
C     3.23303   6.71772   6.94257
C     3.65308   8.17410   6.90009
C     4.10630   8.59853   5.51303
O     5.13284   8.20861   4.98909
O     3.27921   9.46029   4.91275
C     3.64267   9.89831   3.59575
C     2.63219   9.12507   7.55171
C     2.20046   8.65725   8.93968
C     3.36366   8.36694   9.90411
C     3.76093   6.90266  10.14421
C     4.55200   6.07769   9.07961
C     5.05179   4.76051   9.75349
C     4.74723   4.42057  11.08116
C     5.24889   3.25542  11.66949
C     6.06092   2.38511  10.94206
C     6.38249   2.71069   9.62092
C     5.89772   3.88720   9.04787
C     5.86851   6.78642   8.67642
C     6.45960   6.57222   7.42138
C     7.68893   7.14682   7.09235
C     8.36576   7.94634   8.01743
C     7.79828   8.15491   9.27727
C     6.56734   7.57763   9.60280
C     2.22068   6.13978   5.95321
C     0.93900   6.98361   5.83026
C     2.81286   5.94815   4.53806
N     1.89319   4.86842   6.61009
C     1.17370   3.84570   5.89480
H     5.32665   1.15772   6.48998
H     4.21874   1.40317   5.11539
H     3.82768   0.18989   6.37191
H     2.74387   1.85986   7.52379
H     3.47615   2.35975   9.44515
H     2.17897   1.68455  11.41070
H     0.11109   2.93128  12.05612
H    -0.63135   4.87226  10.66208
H     0.65598   5.50292   8.63234
H     4.57537   8.25105   7.48648
H     2.85312  10.58921   3.27859
H     3.69719   9.04111   2.90906
H     4.61415  10.41233   3.61592
H     3.11267  10.11438   7.63352
H     1.75112   9.25924   6.91333
H     1.56567   9.44821   9.37052
H     1.55709   7.76693   8.85566
H     3.07943   8.74344  10.89979
H     4.24461   8.96355   9.61547
H     4.35922   6.90199  11.06364
H     2.85105   6.33330  10.38407
H     4.08567   5.04157  11.67956
H     4.98150   3.02263  12.70309
H     6.44451   1.46957  11.39851
H     7.02400   2.05168   9.03047
H     6.18404   4.12202   8.02717
H     5.94051   5.96016   6.68582
H     8.11475   6.97188   6.10129
H     9.32555   8.40093   7.76051
H     8.31464   8.77180  10.01702
H     6.15967   7.74809  10.59900
H     1.13566   7.93558   5.31972
H     0.50181   7.18695   6.81760
H     0.19567   6.43731   5.22958
H     2.10656   5.37395   3.91913
H     2.96245   6.91011   4.03069
H     3.76637   5.40737   4.57070
H     0.31063   4.29199   5.37833
H     1.76799   3.29586   5.13661
H     0.77412   3.10488   6.60542
