34
Generated by autodE on: 2022-07-27. E = -691.264986 Ha
C     3.01544  -0.58862  -2.59259
N     1.86218  -0.02407  -1.92384
C     1.43156  -0.55943  -0.71605
O     2.18488  -1.38449  -0.13434
C     0.15842  -0.14305  -0.20703
C    -0.51681  -0.67067   0.95908
C    -0.10497  -1.84839   1.64522
C    -0.79489  -2.31867   2.76034
C    -1.92719  -1.65433   3.25193
C    -2.34942  -0.49274   2.59658
C    -1.66198  -0.00699   1.48436
N    -0.55030   0.88049  -0.93046
C    -1.75047   0.46418  -1.67858
C    -0.11921   2.11598  -1.00370
C    -0.75591   3.08519  -1.94185
C     1.02964   2.56942  -0.18264
H     3.89704  -0.56535  -1.93559
H     3.23804   0.01045  -3.48643
H     2.86681  -1.63912  -2.90760
H     1.16264   0.38987  -2.52930
H     0.76987  -2.38270   1.28239
H    -0.44268  -3.22923   3.25413
H    -2.46315  -2.03135   4.12597
H    -3.22403   0.05395   2.96086
H    -2.01074   0.91699   1.01922
H    -1.48439   0.31466  -2.73635
H    -2.09860  -0.48628  -1.26338
H    -2.54914   1.21285  -1.60606
H    -0.12225   3.97214  -2.06199
H    -0.94498   2.63362  -2.92673
H    -1.72979   3.41176  -1.53676
H     1.95196   2.50326  -0.78596
H     1.16537   1.93775   0.70490
H     0.89114   3.62529   0.09154
