34
Generated by autodE on: 2022-06-14. E = -691.265912 Ha
C    -1.16498   3.70607  -0.34433
N    -1.00275   2.30641  -0.01910
C     0.15349   1.63283  -0.33232
O     1.15365   2.30854  -0.69556
C     0.17701   0.19896  -0.19628
C    -0.94732  -0.70626  -0.01315
C    -2.26054  -0.44870  -0.48997
C    -3.30118  -1.35573  -0.29252
C    -3.08294  -2.57190   0.36603
C    -1.79228  -2.86088   0.82392
C    -0.75193  -1.94990   0.64654
N     1.46544  -0.40590  -0.26135
C     1.68809  -1.41103  -1.31601
C     2.47783  -0.01243   0.48047
C     2.26927   0.88900   1.63897
C     3.86584  -0.46644   0.16518
H    -0.40630   4.32947   0.15526
H    -1.08811   3.90184  -1.42914
H    -2.15679   4.03512  -0.00670
H    -1.82408   1.78327   0.25178
H    -2.46437   0.46095  -1.05589
H    -4.29544  -1.11498  -0.67891
H    -3.90003  -3.28171   0.51297
H    -1.59373  -3.80449   1.33979
H     0.23843  -2.19415   1.03701
H     0.71742  -1.76333  -1.67536
H     2.27015  -2.26146  -0.93973
H     2.22679  -0.94288  -2.15347
H     3.00762   0.66653   2.42280
H     2.40946   1.93773   1.32184
H     1.24374   0.80486   2.02714
H     4.59643   0.12571   0.73005
H     4.09051  -0.38318  -0.90885
H     3.99807  -1.52647   0.44467
