46
Generated by autodE on: 2022-06-14. E = -1002.448737 Ha
C    -3.67050   0.01987   3.92992
O    -2.88233  -0.43530   2.81894
C    -2.29120  -1.62448   2.94643
O    -2.38361  -2.31553   3.94072
C    -1.51553  -2.03781   1.70784
C    -1.19491  -0.97193   0.76430
C    -0.54239  -0.37118  -0.06216
C     0.60696  -0.00477  -0.90047
C     1.35924   1.16309  -0.23403
C     0.62600   2.29167   0.16695
C     1.26075   3.39664   0.73450
C     2.64904   3.39236   0.91448
C     3.38714   2.27525   0.51952
C     2.74758   1.16795  -0.05176
C     0.22248   0.40510  -2.32890
C     1.21944   0.84611  -3.21356
C     0.90241   1.19408  -4.52780
C    -0.42020   1.11269  -4.97893
C    -1.41859   0.67925  -4.10355
C    -1.09774   0.32692  -2.78774
C     1.43332  -1.33472  -0.96111
C     1.73340  -2.02982   0.38514
C     0.73355  -3.10305   0.90507
C    -0.18325  -2.73943   2.08971
H    -4.06502   0.99994   3.63829
H    -4.49545  -0.67978   4.12708
H    -3.04599   0.11287   4.82997
H    -2.16474  -2.77872   1.20379
H    -0.45790   2.30148   0.02804
H     0.67042   4.26460   1.03829
H     3.14962   4.25469   1.36109
H     4.47121   2.25808   0.65584
H     3.34862   0.31044  -0.35354
H     2.25255   0.92554  -2.86884
H     1.69150   1.53521  -5.20242
H    -0.66957   1.38909  -6.00613
H    -2.45554   0.61456  -4.44236
H    -1.88325  -0.01182  -2.10917
H     2.37370  -1.12098  -1.48972
H     0.87326  -2.02576  -1.61001
H     1.90183  -1.27311   1.16864
H     2.70467  -2.53238   0.25552
H     1.33348  -3.96225   1.24356
H     0.12200  -3.48398   0.06895
H    -0.44569  -3.65139   2.64602
H     0.36374  -2.08645   2.78995
