65
Generated by autodE on: 2022-06-12. E = -1591.493440 Ha
C     1.96136  -1.02031   3.56512
O     1.45008  -0.34510   2.41074
C     1.86483  -0.75888   1.22255
O     2.74805  -1.57829   1.08526
C     1.09177  -0.03842   0.06023
C     2.07340   0.12002  -1.11908
C     2.28406   1.35754  -1.74291
C     3.14903   1.48093  -2.83472
C     3.81630   0.36238  -3.33574
C     3.59755  -0.88283  -2.73921
C     2.73674  -1.00248  -1.64698
N     0.55490   1.23691   0.51720
C     1.47036   2.18352   1.14676
C    -0.83081   1.17070   0.96146
C    -0.96723   0.86204   2.49507
C    -0.52357   1.88506   3.50624
O    -1.42688  -0.20153   2.86735
C    -1.56600   2.52057   0.72513
C    -1.12219   3.47146  -0.34971
O    -2.50513   2.79954   1.45176
C    -1.46009  -0.00163   0.11884
C    -2.58248  -0.79716   0.80918
C    -3.79042  -0.06177   1.33406
O    -2.62757  -2.01328   0.69970
C    -2.09654   0.48543  -1.25479
C    -2.87434  -0.65564  -1.94247
C    -1.74678  -1.66198  -2.28923
C    -0.44843  -0.89702  -1.91823
C    -0.87847   0.55286  -2.18382
C    -0.22533  -0.88128  -0.37463
C    -0.08814  -2.27326   0.25198
O    -0.06344  -2.50709   1.44311
O     0.17435  -3.21055  -0.66101
C     0.46265  -4.52596  -0.16637
H     3.04352  -0.85278   3.65968
H     1.75640  -2.09710   3.48986
H     1.43196  -0.59050   4.42305
H     1.75672   2.24187  -1.39278
H     3.29177   2.46088  -3.29615
H     4.49169   0.45628  -4.18938
H     4.09295  -1.77444  -3.13088
H     2.56094  -1.98693  -1.22055
H     2.41878   2.18955   0.59763
H     1.06001   3.20104   1.09961
H     1.70920   1.95278   2.19437
H     0.41669   1.53544   3.95947
H    -1.28042   1.92551   4.30313
H    -0.36671   2.88653   3.09416
H    -0.36468   3.05859  -1.01953
H    -0.70888   4.36459   0.14680
H    -2.00715   3.79674  -0.91609
H    -4.49179   0.05496   0.49063
H    -4.27964  -0.68825   2.09204
H    -3.57719   0.93314   1.73218
H    -2.69340   1.39694  -1.14006
H    -3.33554  -0.24336  -2.85147
H    -3.68157  -1.09641  -1.34730
H    -1.72802  -1.89173  -3.36441
H    -1.85346  -2.60985  -1.75277
H     0.42353  -1.25253  -2.47004
H    -0.13770   1.29907  -1.90196
H    -1.16843   0.71906  -3.23149
H    -0.39704  -4.92161   0.39271
H     1.34624  -4.49898   0.48713
H     0.65964  -5.14299  -1.05036
