37
Generated by autodE on: 2022-06-12. E = -937.905746 Ha
C    -1.20728   3.27566   1.24852
O    -1.23462   1.98071   0.62636
C    -0.21892   1.17258   0.89476
O     0.68666   1.43267   1.65688
C    -0.38570  -0.16463   0.20894
C    -1.74907  -0.68775   0.03718
C    -2.17106  -1.18082  -1.21070
C    -3.47502  -1.64687  -1.37128
C    -4.36256  -1.63878  -0.29006
C    -3.94887  -1.14532   0.95222
C    -2.65338  -0.65748   1.11511
N     0.69004  -0.84902  -0.10384
C     0.61332  -2.27509  -0.46505
C     1.91997  -0.18904  -0.38948
C     1.79227   0.93727  -1.28151
C     3.02611   1.53389  -1.91527
O     0.67890   1.43650  -1.54891
C     3.13726  -0.62382   0.24185
C     3.04379  -1.54317   1.45028
O     4.26622  -0.22963  -0.10360
H    -1.20388   3.17279   2.34274
H    -0.31364   3.82841   0.92540
H    -2.11621   3.78775   0.91439
H    -1.48480  -1.16856  -2.05833
H    -3.80089  -2.01471  -2.34652
H    -5.38182  -2.01030  -0.41765
H    -4.64092  -1.13512   1.79688
H    -2.33411  -0.26777   2.08382
H     1.56131  -2.74927  -0.19380
H     0.47576  -2.37671  -1.54961
H    -0.21067  -2.75920   0.06997
H     2.70646   2.27195  -2.66329
H     3.66823   0.77041  -2.37312
H     3.63264   2.03463  -1.14447
H     3.75937  -1.17476   2.20017
H     2.04465  -1.59476   1.90144
H     3.36416  -2.56063   1.17188
