28
Generated by autodE on: 2022-06-12. E = -653.567693 Ha
C     3.16401  -1.48074  -1.39270
O     2.12847  -1.14175  -0.45727
C     0.90168  -0.98382  -0.95333
O     0.60375  -1.19599  -2.11454
C    -0.09237  -0.58359   0.06946
C    -0.24199   0.62619   0.66442
C     0.59954   1.81501   0.40764
C     0.25522   3.07508   1.15124
O     1.53214   1.76983  -0.39152
C    -1.56292   0.58328   1.41878
C    -2.66998   0.61374   0.31362
C    -2.49125  -0.75869  -0.39328
C    -1.31530  -1.41695   0.40581
C    -1.60642  -0.90229   1.83063
H     2.92305  -2.41642  -1.91692
H     4.07829  -1.60080  -0.80045
H     3.28954  -0.67022  -2.12555
H     0.27108   2.89241   2.23793
H     0.96097   3.87446   0.89160
H    -0.77182   3.38637   0.89758
H    -1.68793   1.33136   2.20950
H    -2.54103   1.46838  -0.36529
H    -3.66236   0.69858   0.78003
H    -3.39098  -1.38389  -0.29705
H    -2.24750  -0.67260  -1.46070
H    -1.20709  -2.49742   0.25447
H    -2.58939  -1.22125   2.20836
H    -0.82198  -1.17167   2.55289
