49
Generated by autodE on: 2022-10-21. E = -1095.969830 Ha
C    -0.65769  -1.06087   2.67879
O     0.46533  -1.16141   1.81789
C     0.28827  -1.06256   0.41881
C     1.05547  -2.20987  -0.28612
C     0.55776  -3.53985   0.32003
C    -0.88396  -3.67847  -0.25239
C    -1.02775  -2.41632  -1.12554
C     0.40006  -2.24823  -1.67840
C    -1.15518  -1.20176  -0.18184
C    -1.43097   0.12740  -0.90524
C    -2.41576   1.05831  -0.21299
C    -3.59364   0.55619   0.36054
C    -4.52027   1.41726   0.95499
C    -4.28310   2.79492   0.98407
C    -3.11764   3.30399   0.40387
C    -2.19469   2.44247  -0.19497
O    -0.14853   0.75406  -1.09005
C     0.72908   0.39368  -0.04778
C     0.56093   1.33542   1.09494
N     0.45169   2.11219   1.94940
C     2.17783   0.50229  -0.51136
C     2.48785   0.74890  -1.85171
C     3.82472   0.80715  -2.26058
C     4.85420   0.62106  -1.33521
C     4.54356   0.37854   0.00790
C     3.21171   0.32303   0.41969
H    -0.25849  -0.96040   3.69795
H    -1.28262  -0.18036   2.46045
H    -1.28563  -1.96691   2.63352
H     2.14345  -2.08686  -0.25067
H     1.20485  -4.36028  -0.02255
H     0.58815  -3.52555   1.41660
H    -0.98672  -4.58601  -0.86564
H    -1.65210  -3.71945   0.53440
H    -1.83924  -2.46603  -1.86445
H     0.54234  -1.33676  -2.27265
H     0.73622  -3.11212  -2.27154
H    -1.90598  -1.38757   0.58964
H    -1.80136  -0.06532  -1.92449
H    -3.79804  -0.51630   0.34215
H    -5.43039   1.00765   1.39983
H    -5.00414   3.46781   1.45422
H    -2.92298   4.37921   0.41751
H    -1.28659   2.84458  -0.64480
H     1.68506   0.89509  -2.57338
H     4.05879   1.00094  -3.30997
H     5.89715   0.66717  -1.65701
H     5.34225   0.23262   0.73870
H     2.97169   0.12612   1.46668
