28
Generated by autodE on: 2022-10-26. E = -708.430792 Ha
N     0.26290  -0.13188   2.50187
C     0.48897  -0.24946   1.35679
C     0.75614  -0.42327  -0.00299
O    -0.23098  -0.86450  -0.82742
C    -1.52592  -0.82256  -0.75514
C    -2.37431  -0.02350   0.07704
C    -3.73849  -0.41676   0.13239
C    -4.66958   0.34259   0.82788
C    -4.27529   1.53079   1.45957
C    -2.94311   1.95169   1.38428
C    -1.99142   1.18362   0.71830
C     2.08660  -0.37637  -0.57434
C     2.30293  -0.62357  -1.94940
C     3.59063  -0.58098  -2.48229
C     4.69192  -0.28041  -1.67222
C     4.48619  -0.02347  -0.31086
C     3.20571  -0.07153   0.23543
H    -1.98161  -1.47926  -1.50027
H    -4.04657  -1.33203  -0.37814
H    -5.71073   0.01638   0.87471
H    -5.00846   2.13110   2.00276
H    -2.63879   2.88826   1.85641
H    -0.96892   1.54868   0.65364
H     1.45396  -0.84601  -2.59726
H     3.73446  -0.77931  -3.54748
H     5.69758  -0.24271  -2.09652
H     5.33476   0.21518   0.33516
H     3.06347   0.12693   1.30036
