49
Generated by autodE on: 2022-10-21. E = -1095.876730 Ha. Imaginary frequency = -181.0 cm-1
C    -1.38534  -0.86219   2.76722
O    -0.17228  -1.35175   2.19079
C    -0.20093  -1.69442   0.90268
C     0.89105  -2.58155   0.35103
C     0.31185  -4.02767   0.51768
C    -0.86972  -4.04894  -0.49909
C    -0.82504  -2.61308  -1.11293
C     0.69866  -2.37838  -1.16190
C    -1.24446  -1.65704   0.00092
C    -1.33428   0.49210  -1.05841
C    -2.24300   1.25958  -0.21809
C    -3.56055   0.77634  -0.04904
C    -4.49011   1.49227   0.69774
C    -4.13642   2.72030   1.27343
C    -2.85121   3.23157   1.07356
C    -1.90864   2.51208   0.33789
O    -0.05571   0.73290  -1.21792
C     0.93386   0.98589  -0.32040
C     0.68309   1.28198   1.02012
N     0.54666   1.53042   2.15933
C     2.28055   0.95735  -0.85985
C     2.51591   0.76521  -2.24158
C     3.81696   0.71122  -2.74091
C     4.91887   0.85280  -1.88973
C     4.69736   1.05201  -0.52107
C     3.40252   1.10506  -0.00997
H    -1.14749  -0.57122   3.79717
H    -1.76292   0.00968   2.21711
H    -2.14857  -1.65767   2.76734
H     1.88918  -2.42663   0.77904
H     1.08377  -4.76669   0.25612
H    -0.00325  -4.22059   1.55330
H    -0.70996  -4.80679  -1.28153
H    -1.83860  -4.25698  -0.02241
H    -1.37393  -2.50421  -2.05775
H     0.98083  -1.38158  -1.51289
H     1.22797  -3.13759  -1.75703
H    -2.28314  -1.50262   0.28544
H    -1.75360   0.00769  -1.94291
H    -3.84619  -0.17296  -0.50720
H    -5.49932   1.09577   0.83001
H    -4.86571   3.28116   1.86221
H    -2.57613   4.20228   1.49224
H    -0.92512   2.94646   0.16715
H     1.66971   0.66451  -2.92198
H     3.97092   0.56061  -3.81261
H     5.93555   0.81107  -2.28649
H     5.54507   1.16523   0.15953
H     3.25036   1.25493   1.06112
