47
Generated by autodE on: 2022-06-22. E = -1111.133159 Ha
C     2.63706  -2.97213  -1.36607
N     2.02006  -1.83292  -0.71963
C     2.40096  -0.56705  -0.90849
O     3.35200  -0.21433  -1.62192
C     1.56862   0.49116  -0.14714
C     2.43015   1.16349   0.94742
O     1.99607   1.35381   2.08579
N     3.64170   1.56947   0.54228
C     4.56247   2.24046   1.43886
C     0.99685   1.52603  -1.13365
C    -0.25576   0.80507  -1.61626
C    -0.76629   0.11502  -0.33134
C    -1.42991  -1.23950  -0.56044
C    -1.44201  -2.18358   0.47858
C    -2.06365  -3.42198   0.30668
C    -2.69611  -3.72985  -0.90283
C    -2.69896  -2.79022  -1.93658
C    -2.06761  -1.55318  -1.76753
C    -1.72430   1.02425   0.44710
C    -1.37620   1.56749   1.68866
C    -2.27234   2.39690   2.37449
C    -3.52265   2.69277   1.82826
C    -3.87458   2.15370   0.58492
C    -2.98334   1.32496  -0.09770
O     0.43457  -0.10545   0.45590
H     2.91455  -3.73321  -0.62170
H     1.95012  -3.43186  -2.09420
H     3.54034  -2.63991  -1.89154
H     1.19661  -1.97178  -0.13948
H     3.94561   1.27387  -0.38513
H     4.88971   1.57784   2.25705
H     5.44408   2.55877   0.86931
H     4.09152   3.12699   1.88979
H     1.70711   1.76839  -1.93266
H     0.74324   2.44487  -0.58518
H     0.01376   0.04878  -2.36687
H    -1.00514   1.47523  -2.05383
H    -0.95820  -1.94510   1.42734
H    -2.05711  -4.14879   1.12260
H    -3.18462  -4.69772  -1.03767
H    -3.19102  -3.01933  -2.88487
H    -2.07732  -0.83280  -2.58690
H    -0.39618   1.35005   2.10953
H    -1.98491   2.81458   3.34275
H    -4.22071   3.33981   2.36484
H    -4.84959   2.37822   0.14551
H    -3.27205   0.90476  -1.06360
