25
Generated by autodE on: 2022-10-06. E = -950.251733 Ha
C     2.72569  -1.12484  -0.79899
C     2.12683  -0.41798   0.38793
O     2.67850  -0.38567   1.47286
C     0.90135   0.49543   0.12814
C     1.42381   1.71822  -0.66469
C     1.68006   2.96902   0.11752
O     1.63764   1.61642  -1.85863
O     0.39425   0.91921   1.39606
O    -1.06675   0.74575   1.37565
C    -1.43063   0.61742   0.00739
C    -2.81825  -0.06614  -0.11244
O    -3.39130   0.12600  -1.21030
O    -3.21753  -0.73852   0.86409
C    -0.26805  -0.18106  -0.59873
C    -0.36327  -1.69548  -0.29954
O     0.37264  -2.14294   0.62014
O    -1.16295  -2.35306  -1.00374
H     3.19563  -2.05727  -0.45813
H     3.51700  -0.47625  -1.21128
H     2.00567  -1.33202  -1.59903
H     0.72449   3.37234   0.48850
H     2.18233   3.71124  -0.51593
H     2.28843   2.73569   1.00573
H    -1.48379   1.61196  -0.46979
H    -0.21404  -0.02204  -1.68144
