15
Generated by autodE on: 2022-10-13. E = -495.114607 Ha
C     0.58424  -2.17626   1.51308
C     0.93391  -1.04684   0.60163
O     2.05574  -0.78269   0.20386
C    -0.16534  -0.14482   0.13405
O    -1.34002  -0.36045   0.54553
O    -2.32757   0.45395   0.12296
C     0.09327   0.98439  -0.85302
C     0.26839   2.34294  -0.27234
O     0.17250   0.67965  -2.02333
H    -0.14053  -2.84389   1.01961
H     1.49490  -2.72930   1.77392
H     0.09932  -1.78770   2.42306
H    -0.56402   2.55971   0.41532
H     0.32897   3.09465  -1.07073
H     1.19868   2.34172   0.32214
