15
Generated by autodE on: 2022-10-06. E = -495.114594 Ha
C    -2.57181  -0.44588  -0.74331
C    -1.10220  -0.70740  -0.78619
O    -0.55487  -1.54652  -1.48096
C    -0.20857   0.12346   0.08135
O    -0.73020   1.02883   0.79114
O     0.07502   1.77266   1.57545
C     1.28892  -0.13252   0.16835
C     2.15969   0.74042  -0.66422
O     1.64532  -1.04833   0.87773
H    -2.77390   0.60288  -1.01451
H    -2.94795  -0.59414   0.28183
H    -3.08265  -1.12357  -1.43823
H     1.96154   0.50499  -1.72462
H     1.88750   1.79509  -0.50188
H     3.21727   0.56228  -0.42777
