10
Generated by autodE on: 2022-10-06. E = -455.046465 Ha
O     0.92157  -1.15085  -0.60542
C     1.40715   0.00944  -0.72263
O     2.56954   0.27974  -1.13996
C     0.55001   1.19387  -0.34016
C    -0.64030   1.13685   0.28043
C    -1.39785  -0.10264   0.71981
O    -1.10299  -0.58299   1.84422
O    -2.31633  -0.49348  -0.04698
H     0.98072   2.17161  -0.58568
H    -1.15520   2.08071   0.50776
