25
Generated by autodE on: 2022-10-06. E = -950.162182 Ha. Imaginary frequency = -146.6 cm-1
C     1.44511  -1.42668   1.87051
C     1.81067  -0.47986   0.76395
O     2.74890  -0.66691   0.01093
C     0.93216   0.73792   0.60309
C     1.32107   1.89503  -0.27614
C     0.89344   3.28261   0.11688
O     2.03395   1.69807  -1.24602
O     0.06295   0.82367   1.56443
O    -0.96621   1.66260   1.40841
C    -1.87396   0.23999  -0.43064
C    -2.52353  -0.90006   0.32594
O    -2.12742  -1.19916   1.47711
O    -3.48052  -1.41971  -0.30194
C    -0.73885   0.15582  -1.19231
C    -0.00211  -1.12435  -1.54737
O    -0.24057  -2.16299  -0.87465
O     0.80404  -1.03215  -2.50955
H     2.08802  -2.31298   1.80332
H     1.59005  -0.93346   2.84546
H     0.38550  -1.70634   1.79716
H    -0.08592   3.49724  -0.33779
H     1.63443   3.98660  -0.28657
H     0.78359   3.40087   1.20286
H    -2.47817   1.14863  -0.50357
H    -0.48877   1.00869  -1.82748
