20
Generated by autodE on: 2022-06-18. E = -661.124090 Ha
C     3.39104  -1.94057   0.88355
N     2.00560  -1.58499   0.66345
C     1.61543  -0.36837   0.24193
O     2.38281   0.57176  -0.00428
C     0.14302  -0.18672   0.07343
N    -0.23294   0.99947  -0.33651
C    -0.51875   2.07827  -0.70448
C    -0.86754   3.31864  -1.12696
N    -1.16996   4.38983  -1.49199
C    -0.89189  -1.19462   0.31705
O    -0.66576  -2.33358   0.70478
O    -2.12163  -0.73364   0.06625
C    -3.20963  -1.64776   0.26740
H     3.68858  -2.78427   0.24064
H     3.56208  -2.23082   1.93251
H     4.02516  -1.07780   0.64879
H     1.27083  -2.27176   0.83128
H    -3.24790  -1.97610   1.31602
H    -4.11846  -1.09151   0.01099
H    -3.10225  -2.52394  -0.38813
