12
Generated by autodE on: 2022-06-18. E = -381.636088 Ha
O    -1.14108   2.41010   0.03372
C    -0.61610   1.30148   0.01800
C     0.85864   1.14935   0.06299
C     1.43370  -0.06585   0.04628
C     0.61610  -1.30148  -0.01801
O     1.14108  -2.41010  -0.03371
C    -0.85864  -1.14935  -0.06299
C    -1.43370   0.06585  -0.04628
H     1.44049   2.07286   0.10961
H     2.51717  -0.20267   0.07848
H    -1.44049  -2.07286  -0.10960
H    -2.51716   0.20267  -0.07847
