32
Generated by autodE on: 2022-06-18. E = -1042.764912 Ha. Imaginary frequency = -310.5 cm-1
C    -3.54903  -1.29954  -1.43194
N    -2.77226  -0.24176  -0.81632
C    -1.85144  -0.51970   0.11636
O    -1.69137  -1.63746   0.61801
C    -0.92993   0.59777   0.52288
C    -0.97691   2.04996   0.17938
O    -0.31963   2.88534   0.76401
O    -1.77846   2.30731  -0.85164
C    -1.85036   3.67408  -1.29883
N    -0.09871   0.30586   1.49794
C     1.05127   0.06980   1.78830
C     1.83141  -0.10660   2.93060
N     2.57913  -0.27985   3.80694
C     2.09528   0.03983  -0.17097
C     2.55286  -1.35968   0.05522
O     3.55639  -1.60652   0.71647
C     1.73601  -2.43823  -0.54452
C     0.73292  -2.16331  -1.39735
C     0.40757  -0.77091  -1.80089
O    -0.41323  -0.55573  -2.69492
C     1.10658   0.31222  -1.10046
H    -4.00771  -1.93771  -0.66380
H    -4.34034  -0.84843  -2.04283
H    -2.91671  -1.93259  -2.07642
H    -2.74702   0.67830  -1.24852
H    -2.21526   4.31782  -0.48682
H    -2.55459   3.67391  -2.13762
H    -0.85805   4.01273  -1.62754
H     2.78367   0.82288   0.15631
H     2.01004  -3.46100  -0.27534
H     0.13553  -2.95076  -1.86250
H     0.94782   1.32317  -1.47767
