13
Generated by autodE on: 2022-10-06. E = -245.298507 Ha
C    -1.73417   0.84892   0.42795
N    -0.90629  -0.27922   0.03695
C     0.41946  -0.21583  -0.10674
N     1.10250  -1.30517  -0.47057
N     1.06657   0.92969   0.11753
H    -2.77600   0.51177   0.46659
H    -1.66303   1.67260  -0.30038
H    -1.45559   1.22856   1.42394
H    -1.35291  -1.17348  -0.13844
H     0.62098  -2.17804  -0.65545
H     2.10704  -1.26140  -0.60171
H     2.07093   0.98422  -0.01223
H     0.56674   1.76967   0.38266
