16
Generated by autodE on: 2022-10-13. E = -326.054881 Ha
C    -0.15066   2.98139   1.38338
C    -0.01926   2.13669   0.17275
N    -0.01518   0.83188   0.22323
C     0.09456  -0.09278  -0.79234
C     0.06089  -1.47968  -0.55116
C    -0.09598  -1.97839   0.88406
O     0.14695  -2.32313  -1.48337
H    -0.23677   2.37369   2.29732
H    -1.03907   3.63303   1.30831
H     0.72019   3.65244   1.48661
H     0.07774   2.59008  -0.81791
H    -0.10859   0.43548   1.16390
H     0.19707   0.30312  -1.80325
H     0.68334  -1.57929   1.55469
H    -0.02461  -3.07420   0.88029
H    -1.07476  -1.69399   1.30596
