16
Generated by autodE on: 2022-10-06. E = -326.057688 Ha
C    -2.96387   0.76851  -0.69286
C    -1.61811   0.38472  -0.20630
N    -0.58522   0.33639  -1.00480
C     0.74313   0.00881  -0.77070
C     1.23254  -0.36209   0.48804
C     2.71160  -0.69354   0.57971
O     0.53141  -0.43892   1.54065
H    -3.32790   1.66037  -0.15295
H    -3.69066  -0.03661  -0.48664
H    -2.96762   0.98149  -1.77290
H    -1.42978   0.12703   0.83570
H    -0.77787   0.58124  -1.98028
H     1.37528   0.06235  -1.65328
H     2.83169  -1.72431   0.95336
H     3.18906  -0.02895   1.31916
H     3.24031  -0.59808  -0.37946
