29
Generated by autodE on: 2022-10-06. E = -571.327987 Ha. Imaginary frequency = -522.4 cm-1
C     2.02064  -0.26110   1.50857
N     1.86108  -0.70026   0.13198
C     1.17275   0.07580  -0.79736
N     1.12902  -0.41413  -2.13444
N     1.41310   1.42613  -0.72507
C    -1.21862   2.08857   0.48907
C    -1.36352   2.98526   1.65098
N    -1.11824   0.79986   0.59631
C    -0.82253  -0.09172  -0.45166
C    -1.07536  -1.51583  -0.24957
C    -1.32798  -2.05106   1.13749
O    -0.98573  -2.28524  -1.21503
H     1.06687  -0.05244   2.02533
H     2.64618   0.64270   1.56052
H     2.53726  -1.05099   2.06906
H     1.62472  -1.68587   0.04528
H     0.57977  -1.27749  -2.16687
H     2.08278  -0.64685  -2.42206
H     1.47520   1.87061   0.18625
H     0.96048   1.98622  -1.44046
H    -1.22075   2.49910  -0.52471
H    -1.35954   2.43682   2.60334
H    -2.29715   3.56539   1.55779
H    -0.53879   3.71857   1.64488
H    -1.11694   0.42260   1.54963
H    -1.12150   0.29625  -1.42653
H    -0.48592  -1.80546   1.80527
H    -1.44121  -3.14117   1.08754
H    -2.23756  -1.60680   1.57397
