49
Generated by autodE on: 2022-06-22. E = -1017.088905 Ha
C    -1.18220   3.09378  -2.01579
C    -0.82625   3.31389  -0.57058
O    -0.20404   4.30967  -0.19075
N    -1.26299   2.38192   0.33992
C    -0.55800   2.18604   1.60162
C     0.01331   0.76619   1.43806
C     0.42723   0.13458   2.76417
C     1.14285   0.78647   0.43126
C     1.97576  -0.24456   0.19267
C     3.00044  -0.24215  -0.83424
C     3.75658  -1.31091  -1.18271
C     3.63097  -2.65770  -0.51096
C     4.79011  -1.21006  -2.26690
C    -1.27454   0.07715   0.77713
C    -2.26208  -0.19803   1.85231
N    -3.06664  -0.38570   2.67846
C    -0.96791  -1.22152   0.03872
C    -0.85979  -2.42822   0.74241
C    -0.44536  -3.59199   0.08852
C    -0.14742  -3.56245  -1.27691
C    -0.27400  -2.36363  -1.98560
C    -0.68176  -1.19931  -1.33157
N    -1.78045   1.13149  -0.11962
C    -3.21861   1.13975  -0.35432
H    -1.00798   2.05051  -2.31306
H    -0.57763   3.77700  -2.62479
H    -2.24623   3.31867  -2.18902
H     0.21592   2.95176   1.71455
H    -1.24657   2.24072   2.45799
H    -0.37907   0.19086   3.50908
H     0.70517  -0.92105   2.63783
H     1.30173   0.66977   3.16169
H     1.24805   1.69266  -0.17509
H     1.85761  -1.16227   0.77431
H     3.14543   0.69955  -1.37652
H     2.58223  -2.95180  -0.35475
H     4.12035  -2.65527   0.47894
H     4.11669  -3.44241  -1.10986
H     5.78621  -1.49598  -1.88306
H     4.85645  -0.19569  -2.68723
H     4.56656  -1.91613  -3.08673
H    -1.08844  -2.46466   1.80936
H    -0.35638  -4.52444   0.65046
H     0.17853  -4.47142  -1.78764
H    -0.04814  -2.33159  -3.05392
H    -0.76594  -0.25908  -1.87519
H    -3.52439   0.12421  -0.64352
H    -3.80097   1.45141   0.53176
H    -3.45773   1.81112  -1.18891
