23
Generated by autodE on: 2022-06-22. E = -351.521384 Ha
C    -3.60125   0.12185   1.14572
C    -2.56324   0.19023   0.28336
C    -2.77766   0.48677  -1.17889
C    -1.20003  -0.02661   0.76371
C    -0.07768   0.00925   0.00223
C     1.25242  -0.21538   0.53048
C     2.41934  -0.19915  -0.16213
C     2.52654   0.06429  -1.63735
C     3.72836  -0.45424   0.52999
H    -4.63121   0.27940   0.81367
H    -3.44207  -0.09420   2.20672
H    -2.23367   1.39623  -1.48373
H    -3.84387   0.63018  -1.40405
H    -2.39741  -0.33319  -1.81062
H    -1.09767  -0.23613   1.83534
H    -0.17090   0.21671  -1.06726
H     1.30600  -0.42044   1.60656
H     1.56096   0.25391  -2.12356
H     3.00469  -0.79240  -2.14449
H     3.18184   0.93353  -1.82337
H     4.41105   0.40563   0.40591
H     3.60027  -0.64450   1.60574
H     4.24594  -1.32102   0.08094
