26
Generated by autodE on: 2022-07-27. E = -665.521258 Ha
C    -1.31596   2.23551  -2.31471
C    -0.70594   1.81425  -1.00428
O     0.51523   1.87922  -0.81115
N    -1.63070   1.38533  -0.09176
N    -1.17165   0.84163   1.03920
C    -1.87195   1.33042   2.24053
C    -0.19273  -0.05222   1.13559
C     0.27408  -0.37449   2.44715
N     0.70523  -0.66989   3.48697
C     0.41095  -0.79809   0.02010
C     1.75728  -1.19580   0.10848
C     2.33524  -1.95463  -0.90916
C     1.57290  -2.34231  -2.01416
C     0.22679  -1.96539  -2.09812
C    -0.35256  -1.19108  -1.09645
H    -2.38120   2.48075  -2.21781
H    -1.21493   1.39112  -3.01893
H    -0.75869   3.08607  -2.73210
H    -1.80919   0.60520   3.05804
H    -2.91700   1.49220   1.95630
H    -1.42161   2.28832   2.53788
H     2.35512  -0.90295   0.97367
H     3.38484  -2.24645  -0.83483
H     2.02437  -2.93952  -2.80944
H    -0.37643  -2.27512  -2.95417
H    -1.39904  -0.89784  -1.17709
