49
Generated by autodE on: 2022-06-22. E = -1017.035332 Ha. Imaginary frequency = -331.7 cm-1
C    -3.17140   2.39216  -2.27111
C    -3.35271   1.42503  -1.12738
O    -4.43289   0.86106  -0.91840
N    -2.23119   1.18524  -0.38378
C    -0.74816   2.52380  -0.29137
C     0.38429   1.93034   0.29987
C     0.76426   2.21445   1.73108
C     1.27048   1.21022  -0.56185
C     2.40497   0.53816  -0.19630
C     3.21088  -0.18896  -1.14305
C     4.27442  -0.98989  -0.86817
C     4.79094  -1.25406   0.51558
C     4.99373  -1.71722  -1.96658
C    -1.30245  -0.20784   1.19609
C    -1.03228  -0.25490   2.58912
N    -0.75772  -0.29034   3.72279
C    -0.57285  -1.12950   0.33627
C     0.58921  -1.76021   0.83982
C     1.31353  -2.66100   0.06139
C     0.91753  -2.93853  -1.24762
C    -0.22592  -2.31255  -1.76366
C    -0.96595  -1.42271  -0.98931
N    -2.34194   0.58976   0.80907
C    -3.13301   1.29227   1.82899
H    -4.06796   2.35926  -2.90256
H    -2.28518   2.14073  -2.87153
H    -3.03944   3.41659  -1.88872
H    -0.73090   2.66879  -1.37088
H    -1.30669   3.27373   0.27442
H    -0.08189   2.63214   2.29465
H     1.11967   1.32229   2.26835
H     1.58912   2.94931   1.76715
H     0.97384   1.15796  -1.61596
H     2.70951   0.54327   0.85277
H     2.89957  -0.10700  -2.19101
H     4.72158  -2.33278   0.74420
H     4.25245  -0.70571   1.29893
H     5.86238  -0.99590   0.58503
H     6.06809  -1.45904  -1.97324
H     4.94420  -2.80962  -1.80662
H     4.57398  -1.49230  -2.95794
H     0.92159  -1.55008   1.85707
H     2.20704  -3.13053   0.47793
H     1.49157  -3.63377  -1.86397
H    -0.55155  -2.52837  -2.78411
H    -1.85963  -0.96492  -1.40738
H    -3.41241   0.59872   2.63033
H    -2.55158   2.12995   2.24630
H    -4.04387   1.67143   1.35599
