47
Generated by autodE on: 2022-10-22. E = -1702.165831 Ha
C     3.63249  -0.75210   2.21652
O     2.77202  -0.60515   1.07479
C     1.96802   0.44213   1.06421
O     1.95671   1.30046   1.92405
C     1.09437   0.56438  -0.19891
C     2.05123   1.08992  -1.32071
C     1.66811   2.34404  -2.04022
O     3.07838   0.48818  -1.56289
N    -0.01093   1.47522   0.06775
C    -1.29359   0.79729   0.16042
C    -2.23372   1.21357  -1.02079
C    -2.00833   2.59191  -1.57029
O    -3.14341   0.50723  -1.40278
C    -2.04244   1.24769   1.44852
C    -3.37104   0.62603   1.74754
O    -1.54894   2.12364   2.12972
C    -0.93993  -0.71132   0.19048
Cl   -0.39758  -1.09177   1.98886
O    -1.95302  -1.52970  -0.14049
C    -1.81570  -2.95535  -0.05650
C     0.36217  -0.75099  -0.68053
O     0.02759  -0.43803  -2.01430
C    -0.69302  -1.37694  -2.81823
O     0.96374  -1.97514  -0.53567
C     2.07124  -2.33808  -1.36616
H     4.30660   0.11172   2.30143
H     3.02961  -0.84365   3.13118
H     4.20510  -1.66979   2.04257
H     2.48843   2.64174  -2.70561
H     1.42659   3.14635  -1.32968
H     0.76055   2.15342  -2.63106
H     0.15982   2.01245   0.91884
H    -1.78647   3.30591  -0.76430
H    -1.13883   2.58876  -2.24188
H    -2.89996   2.89897  -2.13204
H    -4.13796   1.16444   1.16539
H    -3.41239  -0.42822   1.44831
H    -3.59592   0.74632   2.81512
H    -2.80298  -3.35629  -0.31471
H    -1.05991  -3.33448  -0.75348
H    -1.55165  -3.24455   0.97023
H    -1.77110  -1.33012  -2.61314
H    -0.50663  -1.08173  -3.85930
H    -0.33106  -2.40330  -2.66977
H     2.05597  -3.43445  -1.42831
H     3.01387  -2.00184  -0.91792
H     1.97928  -1.91594  -2.37556
