29
Generated by autodE on: 2022-10-22. E = -820.145345 Ha
C     4.52594  -0.55381  -0.43265
O     3.29991   0.16065  -0.22081
C     2.18231  -0.56273  -0.18394
O     2.17076  -1.78106  -0.32601
C     0.95121   0.21083   0.03128
N    -0.13621  -0.60376   0.04119
C    -1.43875  -0.43353   0.06085
C    -2.18929  -1.72173   0.14505
C    -3.68429  -1.69405   0.07502
O    -1.55238  -2.76512   0.26180
C    -2.10697   0.87727  -0.28319
C    -3.07689   1.49059   0.68454
O    -1.94268   1.29939  -1.41721
C     0.81443   1.60368   0.41663
C     2.00459   2.52330   0.46120
O    -0.30132   2.03184   0.75079
H     4.50207  -1.08093  -1.39716
H     5.31703   0.20474  -0.43370
H     4.69401  -1.27857   0.37667
H     0.12262  -1.61080   0.03806
H    -4.06727  -2.72035   0.01742
H    -4.02452  -1.11266  -0.79623
H    -4.08743  -1.20341   0.97592
H    -2.87578   1.18773   1.71991
H    -3.03240   2.58377   0.58718
H    -4.09580   1.17043   0.41235
H     1.65562   3.52112   0.75663
H     2.49609   2.57056  -0.52132
H     2.75506   2.16201   1.17895
