29
Generated by autodE on: 2022-10-26. E = -820.145331 Ha
C     4.36810  -0.96204   0.99278
O     3.26641  -0.51793   0.18819
C     2.06871  -0.49588   0.77023
O     1.88594  -0.83751   1.93404
C     0.97087  -0.03518  -0.09136
N    -0.21047  -0.04915   0.57991
C    -1.47341   0.13421   0.26837
C    -1.99259   0.09558  -1.15009
C    -2.77535   1.25992  -1.68346
O    -1.88687  -0.96478  -1.74673
C    -2.37648   0.07215   1.45628
C    -3.85487   0.18489   1.25060
O    -1.87360  -0.07187   2.56725
C     1.04922   0.57824  -1.40426
C     2.34677   0.64131  -2.16345
O     0.03034   1.09100  -1.89329
H     5.24998  -0.91357   0.34389
H     4.20339  -1.99380   1.33495
H     4.49917  -0.30377   1.86343
H    -0.08940  -0.25107   1.59270
H    -3.84828   1.06459  -1.52364
H    -2.50971   2.20017  -1.18400
H    -2.60605   1.33672  -2.76599
H    -4.20183  -0.52111   0.48008
H    -4.37138  -0.00828   2.19893
H    -4.10145   1.20094   0.90144
H     3.09817   1.22310  -1.61022
H     2.76281  -0.36609  -2.30809
H     2.15235   1.11310  -3.13521
