47
Generated by autodE on: 2022-10-22. E = -1702.108107 Ha. Imaginary frequency = -358.6 cm-1
C     4.83296   0.62864   1.38990
O     3.76134   0.90789   0.48903
C     2.51783   0.92323   1.01748
O     2.33892   0.76205   2.23009
C     1.43602   1.11763   0.08076
C     1.51380   1.21797  -1.32427
C     2.82617   1.20809  -2.08112
O     0.46074   1.30474  -2.02659
N     0.18550   1.13879   0.74534
C    -1.05220   0.84350   0.27612
C    -1.51500   1.56507  -1.01143
C    -1.30566   3.06281  -0.95718
O    -2.29082   1.07107  -1.81488
C    -2.09683   1.08296   1.40018
C    -3.54894   0.92859   1.07014
O    -1.70749   1.42808   2.49919
C    -1.25362  -1.13956   0.06357
Cl   -1.37913  -1.69547   1.81006
O    -2.36382  -1.44461  -0.64529
C    -2.74416  -2.82813  -0.72815
C     0.02406  -1.62265  -0.49177
O     0.31220  -1.71247  -1.74185
C    -0.57597  -1.48195  -2.87243
O     0.95879  -1.92722   0.34726
C     2.29272  -2.23543  -0.11236
H     4.71361  -0.36665   1.84455
H     4.88840   1.38383   2.18800
H     5.74900   0.65488   0.78695
H     2.59818   1.39840  -3.13863
H     3.51853   1.97550  -1.70985
H     3.34174   0.23986  -1.99868
H     0.27740   1.06423   1.75870
H    -2.12680   3.49433  -0.35757
H    -0.35550   3.35162  -0.49489
H    -1.37531   3.46486  -1.97679
H    -3.72957   0.05634   0.43055
H    -3.87445   1.81925   0.50653
H    -4.12699   0.86867   2.00090
H    -3.51221  -2.88674  -1.50886
H    -1.88353  -3.46087  -1.00006
H    -3.15754  -3.16519   0.23347
H    -1.10710  -2.42033  -3.07649
H     0.09649  -1.23570  -3.69987
H    -1.26695  -0.66293  -2.66432
H     2.26182  -3.09413  -0.79480
H     2.85766  -2.46959   0.79500
H     2.71172  -1.35629  -0.61563
