19
Generated by autodE on: 2022-06-22. E = -585.860091 Ha
C     4.19474   0.40045  -0.41867
O     2.85945   0.63313   0.04712
C     1.89712  -0.14190  -0.47902
O     2.11103  -1.00946  -1.30822
C     0.61225   0.24155   0.10728
N    -0.54928  -0.31416  -0.17826
C    -0.64015  -1.42206  -1.15900
C    -1.72661   0.10394   0.41456
C    -1.70761   1.15738   1.35256
N    -1.69485   2.02940   2.12899
C    -2.96737  -0.49173   0.11191
N    -4.02547  -0.94228  -0.09528
H     4.50585  -0.63121  -0.19828
H     4.83034   1.11206   0.12059
H     4.26074   0.57694  -1.50237
H     0.62143   1.05093   0.83597
H    -0.26688  -1.06941  -2.12561
H    -1.68174  -1.73765  -1.24819
H    -0.02012  -2.25374  -0.80953
