26
Generated by autodE on: 2022-06-22. E = -689.456684 Ha
C     2.64303  -1.91571   1.16508
O     2.29055  -0.75179   0.40495
C     0.99661  -0.43401   0.19610
C     0.63589   0.88253   0.19421
O     1.56206   1.80979   0.51393
C     1.59126   3.07379  -0.16304
C    -0.78570   1.26659   0.01038
O    -1.13616   2.42926   0.19095
C    -1.77944   0.21477  -0.35588
C    -3.18928   0.65068  -0.60800
C    -1.41062  -1.08876  -0.40307
C    -2.38499  -2.18081  -0.71742
C     0.01501  -1.47691  -0.19312
O     0.38486  -2.63413  -0.36939
H     3.60815  -1.68682   1.63831
H     2.74993  -2.79568   0.51730
H     1.89747  -2.12107   1.94741
H     2.64032   3.40073  -0.14752
H     1.26031   2.97335  -1.20744
H     0.96649   3.81533   0.35194
H    -3.87402   0.19997   0.12995
H    -3.28576   1.74122  -0.55270
H    -3.52966   0.31166  -1.59993
H    -1.90031  -3.16391  -0.69573
H    -3.21889  -2.17712   0.00342
H    -2.83132  -2.03022  -1.71464
