31
Generated by autodE on: 2022-07-27. E = -635.637104 Ha
C     1.86030  -1.51179   3.55554
C     1.45705  -0.55767   2.49091
N     0.74340  -0.95008   1.45221
C     0.19427  -0.29722   0.37443
C    -0.30846  -1.13736  -0.70007
C    -1.30990  -0.67430  -1.59725
C    -1.83181  -1.49270  -2.59464
C    -1.39231  -2.81595  -2.74712
C    -0.40501  -3.29431  -1.87977
C     0.13763  -2.47427  -0.88944
C     0.14691   1.16766   0.34615
C    -0.15456   1.93662   1.49607
C    -0.22626   3.32820   1.44161
C     0.00392   4.00830   0.23965
C     0.30595   3.26793  -0.90889
C     0.38080   1.87606  -0.85641
H     2.94569  -1.45315   3.74939
H     1.36069  -1.28913   4.51740
H     1.61163  -2.54971   3.28140
H     1.73401   0.49454   2.55246
H     0.56047  -1.95779   1.44350
H    -1.69657   0.33999  -1.48825
H    -2.60655  -1.09615  -3.25682
H    -1.80658  -3.45546  -3.52964
H    -0.03086  -4.31618  -1.98736
H     0.94706  -2.87603  -0.27487
H    -0.35578   1.43596   2.44513
H    -0.47221   3.88809   2.34785
H    -0.04863   5.09873   0.19998
H     0.49710   3.78044  -1.85548
H     0.63199   1.31966  -1.76132
