31
Generated by autodE on: 2022-06-06. E = -635.637100 Ha
C    -3.13179  -2.55014  -1.43250
C    -2.43920  -1.32512  -0.95673
N    -1.14840  -1.33136  -0.68168
C    -0.27452  -0.38945  -0.19463
C     1.13829  -0.72077  -0.26465
C     2.09084  -0.09248   0.58450
C     3.43807  -0.44074   0.55514
C     3.90863  -1.43722  -0.31232
C     2.99219  -2.06971  -1.15888
C     1.64315  -1.71375  -1.14936
C    -0.78621   0.87405   0.34698
C    -0.12233   2.09589   0.08716
C    -0.58027   3.30119   0.61984
C    -1.72389   3.33376   1.42568
C    -2.39930   2.13655   1.69165
C    -1.94145   0.93014   1.16267
H    -2.41496  -3.35609  -1.65817
H    -3.84759  -2.93651  -0.68226
H    -3.71965  -2.34263  -2.34365
H    -2.98782  -0.39432  -0.81431
H    -0.69689  -2.22907  -0.87774
H     1.75616   0.66628   1.29316
H     4.13266   0.06502   1.23171
H     4.96650  -1.70818  -0.33091
H     3.33343  -2.83920  -1.85690
H     0.97839  -2.20047  -1.86763
H     0.76360   2.09488  -0.55061
H    -0.04380   4.22654   0.39378
H    -2.08589   4.27835   1.83810
H    -3.28969   2.14067   2.32599
H    -2.48030   0.01111   1.40172
