12
Generated by autodE on: 2022-06-17. E = -157.300302 Ha
C    -1.96201  -0.00168   0.08963
C    -0.54083   0.19863  -0.34168
C     0.54082  -0.19869   0.34164
C     1.96201   0.00172  -0.08960
H    -2.53035  -0.58051  -0.66000
H    -2.02558  -0.53259   1.05253
H    -2.48829   0.96381   0.19471
H    -0.39305   0.71770  -1.29912
H     0.39305  -0.71777   1.29907
H     2.53013   0.58106   0.65982
H     2.02558   0.53220  -1.05274
H     2.48853  -0.96370  -0.19414
