40
Generated by autodE on: 2022-06-17. E = -732.710489 Ha. Imaginary frequency = -364.5 cm-1
C    -2.37304  -2.05539   0.45987
C    -2.19460  -0.66496   1.02598
C    -1.02397  -0.32542   1.70268
C    -0.96169   0.69006   2.80153
C     0.24967   0.65132  -0.23670
C     0.40195   1.97433   0.23952
N     0.60463   3.04302   0.67620
C     1.47542  -0.17302  -0.20351
C     1.43421  -1.57802  -0.35715
C     2.59284  -2.34945  -0.27639
C     3.83205  -1.75226  -0.01985
C     3.89066  -0.36597   0.15205
C     2.73510   0.41080   0.05706
N    -0.81170   0.35632  -1.10594
C    -0.54746  -0.42770  -2.32115
C    -2.11623   0.58322  -0.73416
C    -2.48388   1.88924  -0.06574
C    -3.18875   0.11727  -1.68365
H    -1.47556  -2.39230  -0.07950
H    -3.22726  -2.12262  -0.22829
H    -2.55523  -2.78424   1.26969
H    -3.11499  -0.18704   1.38235
H    -0.18774  -1.02723   1.65915
H    -0.86342   0.18270   3.77947
H    -1.87207   1.30676   2.84409
H    -0.09480   1.36618   2.71426
H     0.48149  -2.07666  -0.52570
H     2.52230  -3.43282  -0.40240
H     4.73724  -2.35970   0.04950
H     4.84781   0.12184   0.35343
H     2.81023   1.49222   0.18306
H     0.52447  -0.40755  -2.53544
H    -0.87231  -1.47315  -2.23284
H    -1.06978   0.03174  -3.17091
H    -3.53613   1.85613   0.24640
H    -1.87707   2.13692   0.80597
H    -2.37384   2.70943  -0.79814
H    -4.15683   0.13809  -1.16465
H    -3.02672  -0.89449  -2.07177
H    -3.26499   0.80548  -2.54517
