48
Generated by autodE on: 2022-05-31. E = -1115.862375 Ha
C    -3.41794  -0.18151  -1.82941
C    -2.89146   0.49976  -0.59614
O    -3.63066   0.98401   0.24182
C    -1.34310   0.48150  -0.39623
C    -1.03009  -0.95308  -0.00323
C    -0.40345  -1.83087  -0.89560
C    -0.17767  -3.16044  -0.53154
C    -0.58240  -3.62642   0.72282
C    -1.21509  -2.75420   1.61416
C    -1.44204  -1.42508   1.25143
O    -0.69751   0.81453  -1.62061
C    -0.58591   2.25088  -1.73489
C    -1.72966   2.84291  -2.54490
C    -0.52357   2.77495  -0.28978
C     0.88965   3.11689   0.28955
C     1.86534   2.04724  -0.15645
C     1.56041   0.94862   0.56374
C     2.17117  -0.38335   0.51901
C     2.88665  -0.80539  -0.61932
C     3.49183  -2.06020  -0.65758
C     3.39314  -2.92401   0.44012
C     2.68333  -2.51879   1.57376
C     2.07627  -1.26196   1.61314
C     0.39325   1.38853   1.45310
O     0.70138   2.77677   1.67865
C    -0.91119   1.56451   0.60026
H    -4.42923   0.18328  -2.05207
H    -3.47579  -1.26285  -1.61936
H    -2.75142  -0.04737  -2.68942
H    -0.08015  -1.46457  -1.86916
H     0.32525  -3.83344  -1.22964
H    -0.40070  -4.66535   1.00732
H    -1.53240  -3.10889   2.59753
H    -1.94585  -0.75089   1.94737
H     0.36102   2.42493  -2.26759
H    -1.55046   3.91854  -2.69950
H    -2.69657   2.73737  -2.02871
H    -1.80148   2.35962  -3.53068
H    -1.19643   3.62932  -0.14405
H     1.19946   4.16163   0.17504
H     2.61339   2.15302  -0.94107
H     2.94543  -0.14707  -1.48832
H     4.03533  -2.37264  -1.55257
H     3.86056  -3.91090   0.40715
H     2.59338  -3.18884   2.43190
H     1.51944  -0.96228   2.50181
H     0.25234   0.85840   2.39955
H    -1.73264   1.79669   1.28468
