23
Generated by autodE on: 2022-05-31. E = -538.683099 Ha
C     3.09955   0.03945  -0.67638
C     2.21999  -0.83772  -1.16920
C     1.31561  -1.20170   0.02912
O     2.27336  -1.15039   1.10197
C     2.71368   0.19351   0.81528
C     1.36224   0.93124   0.86182
C     0.46532   0.06020   0.36225
C    -0.95551   0.21181   0.06250
C    -1.69354   1.30555   0.56432
C    -3.04425   1.45481   0.25867
C    -3.69347   0.51747  -0.55624
C    -2.97618  -0.57081  -1.05943
C    -1.62215  -0.72557  -0.75111
H     3.88434   0.60083  -1.18274
H     2.08563  -1.19523  -2.18960
H     0.79202  -2.16252  -0.00445
H     3.49575   0.52974   1.50497
H     1.22450   1.97122   1.15414
H    -1.19917   2.03740   1.20681
H    -3.59873   2.30658   0.66005
H    -4.75328   0.63596  -0.79349
H    -3.47237  -1.30709  -1.69630
H    -1.07582  -1.57943  -1.15604
