25
Generated by autodE on: 2022-07-27. E = -577.042818 Ha
C     0.04153   3.12019  -1.28303
C     0.25738   1.88740  -2.03866
O     0.11675   0.69871  -1.59330
C    -0.42536   0.33584  -0.35033
C    -1.72505   0.79268   0.00705
C    -2.59688   1.50998  -1.01058
O    -2.24094   0.53416   1.12357
C     0.39376  -0.66660   0.31322
C     1.68494  -0.97763  -0.18377
C     2.48139  -1.94556   0.42757
C     2.03195  -2.62791   1.56273
C     0.76447  -2.32430   2.07360
C    -0.04457  -1.36506   1.46666
H    -0.92395   3.59162  -1.54242
H     0.82404   3.83876  -1.57501
H     0.04187   2.92609  -0.19868
H     0.63838   1.90615  -3.06553
H    -2.70343   2.57409  -0.74294
H    -3.59804   1.05915  -0.93867
H    -2.25524   1.44522  -2.05272
H     2.06998  -0.44889  -1.05629
H     3.47077  -2.16070   0.01532
H     2.66115  -3.37920   2.04546
H     0.39584  -2.84463   2.96176
H    -1.02559  -1.13553   1.87475
