48
Generated by autodE on: 2022-05-31. E = -1115.720363 Ha. Imaginary frequency = -231.4 cm-1
C    -4.00028   0.23263  -1.66070
C    -3.09259   0.25213  -0.44668
O    -3.59005   0.27364   0.68325
C    -1.65124   0.02424  -0.63950
C    -1.07812  -1.24435  -0.17405
C    -0.12323  -1.92683  -0.96202
C     0.34235  -3.18537  -0.59102
C    -0.11292  -3.79868   0.58140
C    -1.03780  -3.12405   1.38314
C    -1.51732  -1.86556   1.01588
O    -0.97447   0.57998  -1.66323
C    -1.01839   1.76198  -2.21402
C    -2.23048   2.58404  -2.44417
C    -0.57963   2.99933  -0.01381
C     0.92588   3.32937   0.05251
C     1.71193   2.13066  -0.48626
C     1.57430   1.16151   0.44048
C     2.18828  -0.16119   0.53046
C     3.05276  -0.62558  -0.48416
C     3.69521  -1.85554  -0.36952
C     3.49010  -2.65740   0.76085
C     2.62841  -2.21615   1.76724
C     1.98342  -0.98296   1.65461
C     0.65731   1.80286   1.51060
O     1.15634   3.16296   1.47705
C    -0.75808   2.02660   0.91677
H    -4.71008   1.07246  -1.64461
H    -4.58721  -0.69712  -1.57119
H    -3.46483   0.20348  -2.61533
H     0.23706  -1.46841  -1.88310
H     1.07589  -3.69085  -1.22318
H     0.25991  -4.78319   0.87216
H    -1.39349  -3.57984   2.31078
H    -2.24440  -1.35699   1.64691
H    -0.12827   1.93731  -2.82326
H    -2.80571   2.20604  -3.30887
H    -1.91279   3.60863  -2.68485
H    -2.90716   2.61475  -1.57983
H    -1.32008   3.65205  -0.46323
H     1.22690   4.32202  -0.29976
H     2.24560   2.10721  -1.43504
H     3.22362  -0.00873  -1.36868
H     4.36120  -2.19444  -1.16688
H     3.99311  -3.62307   0.84954
H     2.44767  -2.83970   2.64567
H     1.30842  -0.66102   2.44835
H     0.69545   1.38605   2.52117
H    -1.67640   1.64849   1.35712
