25
Generated by autodE on: 2022-10-20. E = -733.792641 Ha. Imaginary frequency = -480.2 cm-1
C     1.52767   2.65185   0.01521
O     1.20729   1.50831   0.80578
C     0.93287   0.34534   0.14347
O     1.85043  -0.12354  -0.75958
C     3.03249  -0.66393  -0.14625
N    -0.46369   1.11014  -1.63426
N    -1.37652   0.45334  -1.36164
C    -1.89311  -0.44422  -0.50593
C    -2.93469   0.08295   0.44460
C    -2.06313  -1.83976  -1.04395
C     0.02855  -0.52647   0.71723
F    -0.52054  -0.23774   1.91116
F     0.22442  -1.85604   0.59909
H     2.22207   2.39417  -0.79829
H     2.00826   3.37421   0.68857
H     0.61714   3.09893  -0.41332
H     3.70889  -0.95732  -0.96024
H     3.52543   0.09238   0.48485
H     2.78690  -1.54735   0.46480
H    -3.93788   0.09190  -0.01557
H    -2.68965   1.09794   0.78781
H    -2.97340  -0.58369   1.31786
H    -1.22881  -2.12158  -1.70148
H    -3.01063  -1.94647  -1.59997
H    -2.09359  -2.53768  -0.19533
