34
Generated by autodE on: 2022-06-17. E = -898.604144 Ha
C     5.02981   0.36134   0.42193
O     3.71470   0.24865  -0.14729
C     2.71686  -0.02265   0.68961
O     2.85212  -0.18823   1.88260
C     1.41669  -0.14469  -0.06269
C     1.36393  -1.38246  -1.01400
C    -0.15444  -1.50187  -1.26920
C    -0.70124  -0.34202  -0.42243
C    -2.17247  -0.30098  -0.13515
C    -2.76158  -1.39090   0.52396
C    -4.12458  -1.37866   0.82371
C    -4.91355  -0.28020   0.46515
C    -4.32975   0.80577  -0.19142
C    -2.96355   0.79857  -0.48950
O    -0.29745   0.89061  -1.17970
C     1.02292   1.03766  -0.97590
O     1.68555   1.91260  -1.47384
N     0.19093  -0.33132   0.72836
C    -0.09192   0.70391   1.72501
H     5.32072  -0.58538   0.89883
H     5.05505   1.17132   1.16462
H     5.69997   0.58951  -0.41427
H     1.76321  -2.25199  -0.47698
H     1.96088  -1.21479  -1.91852
H    -0.43507  -1.36619  -2.32098
H    -0.56169  -2.45499  -0.91185
H    -2.15229  -2.25113   0.80742
H    -4.57295  -2.23155   1.33835
H    -5.98095  -0.27237   0.69778
H    -4.93832   1.66797  -0.47380
H    -2.51169   1.64975  -0.99764
H     0.64987   0.63884   2.52805
H    -0.07728   1.73094   1.31514
H    -1.08445   0.52014   2.15588
