28
Generated by autodE on: 2022-06-17. E = -819.944950 Ha
C     5.12585   0.02195  -0.27824
O     3.78422   0.46336  -0.05117
C     2.81123  -0.45551  -0.23238
O     3.05448  -1.61214  -0.55903
C     1.50453   0.10608  -0.00209
C     1.16396   1.45300   0.25687
O     1.74746   2.50542   0.42915
O    -0.27761   1.44239   0.28744
C    -0.71819   0.20353   0.07586
C    -2.15120  -0.05574   0.06999
C    -2.73200  -1.02433  -0.77147
C    -4.11311  -1.21589  -0.75781
C    -4.92439  -0.44724   0.08268
C    -4.35282   0.52847   0.90698
C    -2.97476   0.73084   0.90005
N     0.29909  -0.62457  -0.08570
C     0.21214  -2.08180  -0.18437
H     5.76548   0.89075  -0.08167
H     5.38902  -0.80051   0.40336
H     5.25813  -0.31443  -1.31744
H    -2.11538  -1.60268  -1.45922
H    -4.55866  -1.96369  -1.41699
H    -6.00540  -0.60335   0.08967
H    -4.98475   1.13401   1.55992
H    -2.52532   1.48872   1.54315
H     1.00503  -2.51798   0.42983
H    -0.76366  -2.40584   0.18924
H     0.34428  -2.40381  -1.22506
