34
Generated by autodE on: 2022-06-17. E = -898.546864 Ha. Imaginary frequency = -486.8 cm-1
C     5.01846   0.64197   0.37526
O     3.67640   0.62594  -0.12767
C     2.70541   0.38018   0.76322
O     2.92475   0.18005   1.94699
C     1.39335   0.34748   0.12009
C     1.30175  -1.79794  -0.93838
C    -0.08694  -1.92997  -0.87829
C    -0.71951  -0.12404  -0.24569
C    -2.18896  -0.15045  -0.04535
C    -2.80978  -1.15350   0.71803
C    -4.19553  -1.15101   0.88603
C    -4.97747  -0.15988   0.28529
C    -4.36620   0.83196  -0.48746
C    -2.98054   0.83867  -0.65388
O    -0.29389   0.62164  -1.33166
C     1.06957   0.84994  -1.19798
O     1.70650   1.36841  -2.09207
N     0.19301   0.11007   0.76514
C     0.07366  -0.51352   2.07231
H     5.28113  -0.33490   0.80696
H     5.13662   1.42235   1.14101
H     5.65887   0.85877  -0.48750
H     1.93166  -2.19762  -0.14047
H     1.81293  -1.53935  -1.86810
H    -0.65754  -1.91312  -1.81092
H    -0.50922  -2.55701  -0.08764
H    -2.21729  -1.94756   1.17245
H    -4.66657  -1.93488   1.48309
H    -6.06211  -0.16379   0.41516
H    -4.97020   1.60806  -0.96290
H    -2.50581   1.61549  -1.25368
H     0.34110  -1.58227   2.01858
H     0.74728  -0.01244   2.77101
H    -0.95854  -0.41210   2.42398
