40
Generated by autodE on: 2022-06-02. E = -1051.526168 Ha
C     3.48375   2.83714  -0.28909
O     2.15632   2.29179  -0.29328
C     2.05168   0.97031  -0.45636
O     3.01989   0.23560  -0.57215
C     0.66632   0.47513  -0.49579
C    -0.46791   1.12961  -0.81903
C    -0.70000   2.55311  -1.18523
C    -1.62709   0.15422  -0.73194
C    -2.49507   0.53414   0.47692
O    -2.30837   0.12378   1.60327
O    -3.45998   1.38895   0.14295
C    -4.29326   1.87815   1.20805
N    -0.98117  -1.12489  -0.60636
C    -1.77288  -2.32321  -0.47340
C     0.38205  -0.97613  -0.12435
C     0.58733  -1.14326   1.41397
C    -0.01556  -2.33059   2.10607
O     1.21004  -0.29488   2.02952
C     1.32980  -1.97317  -0.83802
C     1.26740  -2.01930  -2.33579
O     2.04406  -2.71123  -0.18342
H     4.06761   2.41625   0.54205
H     3.36377   3.91876  -0.15917
H     3.99301   2.62107  -1.23931
H    -1.42019   2.61973  -2.01523
H     0.22859   3.06578  -1.45748
H    -1.14952   3.08907  -0.33134
H    -2.26914   0.20950  -1.62840
H    -5.00678   2.56677   0.74182
H    -4.82464   1.04468   1.68885
H    -3.68441   2.40639   1.95567
H    -1.13077  -3.21100  -0.56121
H    -2.50851  -2.36329  -1.29404
H    -2.33038  -2.39978   0.47861
H    -1.07887  -2.11336   2.29446
H     0.48721  -2.47978   3.07118
H     0.04298  -3.23954   1.49584
H     0.41737  -2.65753  -2.62951
H     1.09868  -1.02406  -2.76902
H     2.19134  -2.46447  -2.72804
