27
Generated by autodE on: 2022-06-02. E = -706.741636 Ha
C     3.97884  -0.30545   0.76699
O     3.04015   0.13324  -0.22779
C     1.81217   0.41861   0.20062
O     1.46720   0.40761   1.36379
C     0.97534   0.87471  -0.93912
N    -0.32717   0.84760  -0.94704
C    -1.01389   1.62458  -2.00439
C    -1.06879  -0.06386  -0.15881
C    -2.30087   0.35504   0.47167
C    -2.61544   1.83896   0.56174
O    -3.09135  -0.44290   1.00138
C    -0.52830  -1.40707  -0.12651
C    -1.37892  -2.54654   0.38255
O     0.62185  -1.66476  -0.53328
H     3.61293  -1.22125   1.25317
H     4.13012   0.47795   1.52336
H     4.91397  -0.50502   0.23196
H     1.48520   1.36204  -1.77283
H    -1.13397   2.66514  -1.67916
H    -1.98917   1.17229  -2.20635
H    -0.39954   1.60072  -2.91299
H    -3.21973   2.14899  -0.30573
H    -3.22373   1.99750   1.46280
H    -1.72195   2.47606   0.60652
H    -0.83735  -3.48383   0.19712
H    -1.55060  -2.42971   1.46360
H    -2.36854  -2.57027  -0.09153
