27
Generated by autodE on: 2022-07-26. E = -706.739823 Ha
C    -2.87855   2.67838   1.41635
O    -2.73156   1.42673   0.73032
C    -1.48809   1.08325   0.37256
O    -0.50758   1.77031   0.59457
C    -1.53695  -0.18368  -0.37681
N    -0.48873  -0.82575  -0.84972
C    -0.76490  -1.81467  -1.92245
C     0.79382  -0.67731  -0.33921
C     0.97421  -0.52482   1.10472
C    -0.08027  -1.03823   2.07212
O     2.02411  -0.08620   1.58331
C     1.90217  -0.71438  -1.29067
C     3.32722  -0.74828  -0.79267
O     1.69098  -0.71374  -2.51157
H    -3.94338   2.76494   1.66011
H    -2.56740   3.51005   0.76759
H    -2.27307   2.68486   2.33426
H    -2.52305  -0.54299  -0.66999
H     0.02839  -2.56581  -1.94057
H    -0.82600  -1.30211  -2.88854
H    -1.72691  -2.29055  -1.69466
H    -0.89306  -1.62137   1.62174
H    -0.51319  -0.19692   2.63462
H     0.45502  -1.66807   2.79886
H     3.46838  -1.47368   0.02042
H     3.61277   0.23643  -0.39392
H     3.97524  -0.99610  -1.64448
