58
Generated by autodE on: 2022-12-30. E = -1395.845396 Ha
C     4.67705  -1.07008  -1.02048
N     3.57240  -0.29532  -0.49173
C     2.41445  -0.86540  -0.14424
O     2.20835  -2.08001  -0.23710
C     1.32969   0.10211   0.38564
O     2.02027   1.23577   0.86712
C     1.34773   2.29581   1.55025
C     0.45650  -0.59139   1.45246
C     1.06943  -0.52533   2.85133
C     2.40024  -1.20458   3.02173
O     0.51264   0.03429   3.78011
N    -0.85974   0.00369   1.31074
C    -1.90051  -0.65206   2.09618
C    -1.15223   0.17462  -0.13406
C    -2.02193   1.43982  -0.35727
O    -2.54145   1.68092  -1.45285
N    -2.15021   2.24225   0.70504
C    -2.80949   3.52792   0.62283
C    -1.85663  -1.07614  -0.69211
C    -1.15856  -2.28143  -0.89624
C    -1.83097  -3.45041  -1.26341
C    -3.21796  -3.45244  -1.42736
C    -3.92663  -2.26925  -1.20852
C    -3.25406  -1.10110  -0.84147
C     0.28785   0.46765  -0.77316
O     0.32175   1.82582  -1.10087
C     1.47612   2.34540  -1.76107
O     0.59864  -0.31594  -1.87990
C    -0.14358  -0.07393  -3.07654
H     5.49028  -0.38772  -1.29548
H     5.05324  -1.79026  -0.27601
H     4.36735  -1.63543  -1.91300
H     3.66910   0.70238  -0.33210
H     2.13096   2.84252   2.09309
H     0.61185   1.92252   2.27098
H     0.84795   2.97615   0.84866
H     0.44077  -1.67234   1.21000
H     2.42995  -2.17438   2.50650
H     3.17800  -0.56798   2.56883
H     2.62077  -1.32203   4.09065
H    -1.70731  -0.48568   3.16222
H    -2.88000  -0.22024   1.85524
H    -1.94962  -1.74220   1.91286
H    -1.60219   1.98216   1.52195
H    -2.91443   3.94382   1.63267
H    -2.23543   4.23833   0.00365
H    -3.80910   3.42175   0.17580
H    -0.07847  -2.32539  -0.78324
H    -1.25826  -4.36773  -1.42057
H    -3.74127  -4.36692  -1.71663
H    -5.01345  -2.24978  -1.31995
H    -3.83977  -0.19939  -0.67009
H     2.06865   2.95891  -1.06644
H     1.12571   2.97758  -2.59034
H     2.10828   1.54570  -2.16631
H     0.33928   0.71201  -3.67901
H    -0.14383  -1.01388  -3.64456
H    -1.17805   0.22616  -2.86459
