33
Generated by autodE on: 2022-12-30. E = -765.314805 Ha
C    -2.67580  -2.70487  -1.29811
N    -2.02552  -1.54482  -0.72860
C    -0.67317  -1.43396  -0.71813
O     0.02990  -2.33700  -1.21027
C    -0.15062  -0.19639  -0.09573
C    -1.13720   0.77592   0.45879
C    -1.65996   1.79855  -0.34996
C    -2.61187   2.68516   0.15894
C    -3.05502   2.55583   1.47898
C    -2.54701   1.53471   2.28818
C    -1.59512   0.64718   1.78061
N     1.16284   0.08628  -0.00920
C     1.51014   1.37357   0.64845
C     2.17852  -0.69913  -0.46945
C     3.59195  -0.46424  -0.40778
C     4.42847  -1.57046  -1.02853
O     4.20016   0.51252   0.08198
H    -2.42718  -2.82316  -2.36540
H    -3.76158  -2.58444  -1.20016
H    -2.37409  -3.63076  -0.78155
H    -2.59396  -0.80842  -0.32698
H    -1.31511   1.89336  -1.38212
H    -3.01020   3.47800  -0.47836
H    -3.80036   3.24890   1.87616
H    -2.89426   1.42708   3.31833
H    -1.19942  -0.15462   2.40813
H     1.11458   1.37126   1.66991
H     1.05082   2.19598   0.08954
H     2.59602   1.47144   0.65519
H     1.84285  -1.61607  -0.93613
H     5.05187  -1.13790  -1.82837
H     3.83613  -2.39791  -1.44105
H     5.11814  -1.96535  -0.26436
