58
Generated by autodE on: 2022-12-30. E = -1395.772697 Ha. Imaginary frequency = -315.6 cm-1
C     4.07387  -1.72413  -0.66817
N     2.79506  -1.04899  -0.70056
C     2.56397   0.06644   0.02602
O     3.46099   0.57865   0.72051
C     1.20409   0.67057  -0.02319
O     0.97466   1.83371   0.66198
C     1.48250   2.07496   1.97447
C     0.04840  -0.90552   1.27428
C     0.76490  -1.31148   2.48635
C     1.96047  -2.20875   2.27187
O     0.48063  -0.93012   3.62680
N    -1.08517  -0.15395   1.24670
C    -1.65003   0.44946   2.46446
C    -1.62606   0.09619  -0.01770
C    -2.40335   1.37836  -0.18946
O    -3.47593   1.42701  -0.80958
N    -1.83415   2.48528   0.33223
C    -2.36305   3.79917   0.03536
C    -2.09695  -1.06172  -0.81935
C    -2.40537  -0.90791  -2.18580
C    -2.86039  -1.98372  -2.94667
C    -3.01827  -3.24645  -2.36472
C    -2.72214  -3.41370  -1.00863
C    -2.26834  -2.33511  -0.24652
C     0.30422   0.55964  -1.13782
O    -0.14163   1.65288  -1.81597
C     0.73963   2.76240  -2.02500
O     0.44225  -0.55667  -1.91027
C     0.67642  -0.39443  -3.31491
H     4.89802  -1.02943  -0.89298
H     4.27582  -2.17899   0.31635
H     4.06985  -2.52030  -1.42362
H     2.02335  -1.43844  -1.23103
H     0.78448   2.78747   2.43654
H     2.48600   2.51552   1.93303
H     1.51322   1.15586   2.57061
H     0.20618  -1.54725   0.41202
H     2.85508  -1.56939   2.17917
H     2.09549  -2.84271   3.15935
H     1.88447  -2.82369   1.36684
H    -1.00804   1.23246   2.88679
H    -1.77564  -0.33505   3.21826
H    -2.63167   0.86739   2.22664
H    -0.84881   2.41251   0.58576
H    -1.80174   4.54889   0.60801
H    -2.27958   4.03924  -1.03958
H    -3.42534   3.86592   0.31303
H    -2.27839   0.06608  -2.65617
H    -3.08717  -1.83586  -4.00546
H    -3.37056  -4.09066  -2.96209
H    -2.85073  -4.39015  -0.53500
H    -2.05407  -2.48729   0.81260
H     0.63713   3.49848  -1.21512
H     0.44418   3.21983  -2.97913
H     1.78724   2.43031  -2.08586
H     1.60739   0.16595  -3.49429
H     0.77338  -1.41029  -3.71726
H    -0.16278   0.11541  -3.80462
