17
Generated by autodE on: 2022-06-04. E = -3306.076367 Ha
Cl   -0.82658   2.04194   1.02182
C    -0.85296   0.73126  -0.10130
C     0.13536  -0.13178  -0.39289
Br    1.86538  -0.18590   0.34306
C    -0.46703  -1.24561  -1.23477
C    -1.37934  -2.06630  -0.26671
C    -2.52154  -1.06387   0.06984
C    -2.12443   0.20717  -0.74885
C    -1.52721  -0.43966  -2.01644
H     0.25179  -1.83798  -1.81300
H    -0.82554  -2.40388   0.62078
H    -1.76529  -2.95738  -0.78335
H    -2.59985  -0.84177   1.14349
H    -3.49833  -1.43721  -0.27130
H    -2.92061   0.95019  -0.87602
H    -2.24508  -1.08133  -2.54941
H    -1.08769   0.29274  -2.70833
