20
Generated by autodE on: 2022-06-04. E = -644.914196 Ha
N     4.61405   0.88313  -0.18642
C     3.51596   0.48219  -0.20788
C     2.21368  -0.02133  -0.24065
N     1.07000   0.69584   0.13327
C    -0.00240  -0.05490  -0.01470
C    -1.38910   0.27439   0.24626
C    -2.37596  -0.70445   0.01845
C    -3.71568  -0.40860   0.26022
C    -4.08296   0.85722   0.72825
C    -3.10422   1.83222   0.95574
C    -1.76196   1.54883   0.71814
O     0.35224  -1.25282  -0.47161
C     1.78847  -1.30706  -0.64537
O     2.31017  -2.32171  -1.05755
H     1.07230   1.65721   0.47099
H    -2.08569  -1.69005  -0.34651
H    -4.47747  -1.17026   0.08262
H    -5.13418   1.08609   0.91623
H    -3.38967   2.82086   1.32036
H    -1.01229   2.32159   0.89885
