37
Generated by autodE on: 2022-06-04. E = -3950.956303 Ha. Imaginary frequency = -487.4 cm-1
N    -1.88102   3.21879   2.27502
C    -1.07058   2.65415   1.65699
C    -0.13958   1.93766   0.88270
N     0.90793   1.19588   1.38233
C     1.38487   0.46275   0.32525
C     2.62673  -0.32036   0.38635
C     3.43344  -0.45051  -0.75470
C     4.59133  -1.22794  -0.70277
C     4.94924  -1.88062   0.48050
C     4.14384  -1.75424   1.61788
C     2.98371  -0.98170   1.57406
O     1.18460   1.25746  -0.79516
C     0.19522   2.19419  -0.50939
O    -0.21437   2.97773  -1.32839
C    -0.17175  -0.84000  -0.01757
Cl    0.29736  -1.48033  -1.60208
C    -0.30987  -1.87677   1.10819
C    -1.49037  -2.81049   0.70992
C    -2.73693  -1.88998   0.85612
C    -2.11816  -0.52690   1.30674
C    -0.99228  -1.05227   2.21787
C    -1.34102  -0.02050   0.09999
Br   -2.35612   0.56169  -1.39725
H     0.97340   0.88390   2.34632
H     3.15413   0.06051  -1.67572
H     5.21771  -1.32246  -1.59244
H     5.85588  -2.48872   0.51763
H     4.41838  -2.26294   2.54437
H     2.35746  -0.90109   2.46445
H     0.62332  -2.39408   1.35900
H    -1.36913  -3.21009  -0.30515
H    -1.53348  -3.66018   1.40605
H    -3.41441  -2.24686   1.64546
H    -3.31737  -1.79693  -0.07087
H    -2.83077   0.18710   1.73668
H    -1.39007  -1.69967   3.01219
H    -0.38689  -0.28313   2.69907
