40
Generated by autodE on: 2022-06-18. E = -844.969674 Ha
C    -1.95426   1.63574   2.25302
C    -2.38976   0.32994   1.67119
O    -3.50309  -0.13518   1.82027
C    -1.35295  -0.47567   0.84077
C    -1.41113  -1.84793   1.36931
N    -1.44112  -2.91377   1.82741
N     0.01510   0.02960   0.99623
C     0.60886   0.01016  -0.14571
C     1.97448   0.57067  -0.26757
C     2.91418   0.09513  -1.19974
C     4.19239   0.65405  -1.26552
C     4.54889   1.70324  -0.41396
C     3.62028   2.18910   0.51330
C     2.34774   1.62527   0.58872
C    -0.20755  -0.58582  -1.29842
C     0.16489  -2.07553  -1.46676
C    -0.00808   0.12216  -2.64510
C    -1.66627  -0.39918  -0.71562
C    -2.68622  -1.43393  -1.18172
C    -2.20775   1.00170  -1.04974
H    -1.40880   2.24259   1.51725
H    -2.82662   2.17649   2.64187
H    -1.24901   1.42817   3.07473
H     2.66481  -0.72838  -1.86665
H     4.91319   0.26491  -1.98810
H     5.54705   2.14335  -0.47376
H     3.88863   3.01358   1.17785
H     1.61913   2.00636   1.30525
H     0.00259  -2.66056  -0.55207
H    -0.43315  -2.52258  -2.27394
H     1.22282  -2.17933  -1.74258
H    -0.80906  -0.17261  -3.34029
H     0.94577  -0.17066  -3.10349
H    -0.01526   1.21628  -2.55329
H    -3.66210  -1.23418  -0.71460
H    -2.81304  -1.36657  -2.27314
H    -2.40009  -2.46379  -0.93316
H    -1.51061   1.80251  -0.76605
H    -3.16861   1.18133  -0.54706
H    -2.39379   1.08078  -2.12862
