18
Generated by autodE on: 2022-06-18. E = -235.968071 Ha
C     1.40697  -1.36662   0.19698
C     0.67406  -0.06319  -0.01197
C     1.62809   1.08244  -0.25041
C    -0.67405   0.06321   0.01197
C    -1.40703   1.36657  -0.19723
C    -1.62805  -1.08240   0.25065
H     0.75432  -2.22981   0.37435
H     2.03890  -1.59615  -0.67981
H     2.09856  -1.28460   1.05475
H     2.32074   1.18903   0.60381
H     1.14034   2.05156  -0.40895
H     2.26310   0.87617  -1.13071
H    -2.09941   1.28391  -1.05429
H    -2.03814   1.59682   0.67995
H    -0.75448   2.22956  -0.37593
H    -1.14020  -2.05121   0.41078
H    -2.26388  -0.87530   1.13016
H    -2.31987  -1.19019  -0.60408
