40
Generated by autodE on: 2022-06-18. E = -844.889532 Ha. Imaginary frequency = -343.6 cm-1
C    -3.33079   0.72779   2.13551
C    -1.90769   0.70849   1.63317
O    -1.30036   1.75668   1.37639
C    -1.28080  -0.59203   1.47396
C    -1.88381  -1.78655   1.92333
N    -2.40277  -2.78104   2.25118
N     0.03444  -0.60807   1.13426
C     0.70455  -0.25979   0.18438
C     2.05226   0.20914  -0.05559
C     3.03839  -0.61749  -0.62148
C     4.31585  -0.10380  -0.84640
C     4.60651   1.22859  -0.53513
C     3.62066   2.05197   0.02111
C     2.34493   1.54878   0.26764
C    -0.46229  -0.16853  -1.66909
C     0.28545  -1.28854  -2.37472
C    -0.09787   1.22676  -2.14050
C    -1.77980  -0.41463  -1.25885
C    -2.32369  -1.81347  -1.23344
C    -2.79177   0.69227  -1.24418
H    -3.32627   0.61925   3.23338
H    -3.79219   1.69082   1.88088
H    -3.92970  -0.09719   1.72479
H     2.80758  -1.65561  -0.85984
H     5.08835  -0.74870  -1.27056
H     5.60613   1.62646  -0.72353
H     3.84837   3.09081   0.26935
H     1.56538   2.17478   0.70463
H     0.29742  -2.22760  -1.80458
H    -0.19810  -1.50060  -3.34533
H     1.32353  -1.00045  -2.58680
H    -0.61144   1.45083  -3.09280
H     0.98236   1.31330  -2.32203
H    -0.38519   2.00421  -1.41944
H    -3.23963  -1.88182  -0.63031
H    -2.58467  -2.12386  -2.26438
H    -1.59968  -2.54853  -0.85610
H    -3.70012   0.40973  -0.69558
H    -3.09047   0.91250  -2.28786
H    -2.40142   1.62941  -0.82779
