18
Generated by autodE on: 2022-06-03. E = -559.518301 Ha
C     2.85876  -0.39046   0.24846
C     1.60454  -0.95412  -0.36722
O     1.58713  -2.05094  -0.92627
C     0.38415  -0.16101  -0.27716
C     0.07974   0.96432   0.39502
F     0.83855   1.72348   1.15778
C    -1.42615   1.21336   0.21906
C    -2.14638   0.09566   1.00991
C    -1.88147  -1.02325   0.32939
C    -0.99230  -0.57710  -0.85243
O    -1.56327   0.72434  -1.12434
H     2.71798  -0.26121   1.33399
H     3.70160  -1.06915   0.06379
H     3.07885   0.60540  -0.16746
H    -1.76987   2.24539   0.34555
H    -2.69121   0.24266   1.94129
H    -2.15664  -2.05405   0.54940
H    -0.96310  -1.21557  -1.74052
