28
Generated by autodE on: 2022-06-03. E = -774.406646 Ha
C     4.71809  -1.68183   0.62697
N     3.34740  -1.61550   0.16922
C     2.50330  -0.61944   0.48854
O     2.78949   0.36159   1.19008
N     1.22574  -0.80989  -0.07374
N     0.44906   0.16617   0.25605
C    -0.80536   0.37035  -0.05457
C    -1.32429   1.64801   0.54967
O    -0.55071   2.33419   1.24581
N    -2.59665   1.96917   0.29565
C    -3.23817   3.15895   0.81106
C    -1.57314  -0.57646  -0.89945
O    -2.77161  -0.37468  -1.17617
N    -0.88220  -1.64328  -1.33159
C    -1.45617  -2.68381  -2.15887
H     4.89848  -2.60709   1.19637
H     5.42215  -1.65505  -0.22008
H     4.91840  -0.82249   1.27743
H     2.98065  -2.36821  -0.40511
H     0.85892   0.91815   0.86119
H    -3.10781   1.29899  -0.28919
H    -3.54005   3.83043  -0.00880
H    -2.54187   3.69466   1.46696
H    -4.13897   2.89504   1.38682
H     0.09382  -1.71181  -1.03548
H    -2.50834  -2.45274  -2.35688
H    -1.39370  -3.66044  -1.65382
H    -0.92061  -2.75835  -3.11834
