32
Generated by autodE on: 2022-05-29. E = -984.836359 Ha
C    -2.58443  -3.23930   0.41117
N    -1.59234  -2.18148   0.39989
C    -1.77057  -1.07754  -0.32934
O    -2.77406  -0.84784  -1.01146
C    -0.63595  -0.08044  -0.33070
C    -0.70598   1.25446  -0.19467
C    -1.78778   2.17180   0.26320
C    -3.09777   1.63253   0.74117
O    -1.52913   3.36923   0.25727
C     0.62399   1.87595  -0.57382
C     1.30061   2.53240   0.56349
N     1.85906   3.03510   1.44606
O     1.41115   0.79142  -1.06523
C     0.80965  -0.44280  -0.70312
C     0.86793  -1.35213  -1.86172
N     0.91415  -2.07400  -2.76670
C     1.57860  -1.11957   0.48883
O     1.10499  -2.11236   1.04591
N     2.73133  -0.53325   0.79212
C     3.59702  -0.97245   1.87148
H    -2.27322  -4.00859   1.12786
H    -3.56777  -2.84719   0.71064
H    -2.69151  -3.70002  -0.58451
H    -0.66559  -2.33030   0.81803
H    -3.68784   2.44863   1.17640
H    -2.93874   0.83557   1.48409
H    -3.63564   1.17901  -0.10385
H     0.50426   2.62490  -1.37274
H     3.00818   0.27074   0.23413
H     4.52145  -1.41789   1.47285
H     3.86227  -0.11498   2.50602
H     3.07024  -1.72155   2.47372
