16
Generated by autodE on: 2022-05-29. E = -438.207083 Ha
C     2.63588   0.36231  -1.20472
N     2.61737   0.03432   0.20832
C     1.54108  -0.16459   0.98706
O     1.59813  -0.43692   2.19126
C     0.23166  -0.04619   0.34820
C    -0.90367   0.03208  -0.08090
C    -2.25786   0.13520  -0.61126
C    -2.86773  -1.13822  -1.11454
O    -2.82487   1.21694  -0.62688
H     1.61078   0.42317  -1.59009
H     3.17622  -0.40809  -1.77565
H     3.12855   1.33215  -1.37313
H     3.51024  -0.05606   0.69010
H    -3.88117  -0.94459  -1.48996
H    -2.23667  -1.55967  -1.91431
H    -2.89580  -1.88118  -0.30044
