16
Generated by autodE on: 2022-05-29. E = -546.494134 Ha
C    -3.37805   1.61185  -0.13270
N    -2.41739   0.56594   0.15536
C    -1.09964   0.68364  -0.10923
O    -0.57916   1.68779  -0.62036
C    -0.26322  -0.47612   0.24723
C    -0.75351  -1.66027   0.83771
N    -1.20565  -2.61977   1.32581
O     1.04191  -0.48696   0.03567
C     1.85313   0.38463  -0.47300
C     3.20819   0.00201  -0.53539
N     4.34093  -0.26949  -0.60832
H    -3.88855   1.93817   0.78676
H    -4.13911   1.25946  -0.84643
H    -2.85270   2.46845  -0.56959
H    -2.76380  -0.29150   0.57630
H     1.48337   1.34665  -0.82486
