16
Generated by autodE on: 2022-07-26. E = -546.489079 Ha
C     1.23728  -2.72637   1.28409
N     0.37886  -2.01455   0.35608
C     0.44619  -0.67698   0.23234
O     1.18283   0.03833   0.92508
C    -0.36850  -0.06911  -0.83744
C    -0.77961  -0.77348  -1.98903
N    -1.12576  -1.39857  -2.91282
O    -0.55071   1.23852  -0.91972
C    -0.43039   2.25061  -0.12416
C    -0.21033   2.21434   1.26666
N    -0.13403   2.34904   2.42430
H     2.30046  -2.59518   1.02666
H     1.08929  -2.36468   2.31343
H     0.99131  -3.79375   1.24289
H    -0.26079  -2.54330  -0.22966
H    -0.65696   3.20618  -0.60136
