32
Generated by autodE on: 2022-05-29. E = -984.705807 Ha. Imaginary frequency = -239.0 cm-1
C    -0.87110  -3.39777   1.68984
N    -0.99366  -1.97953   1.40914
C    -1.17022  -1.52152   0.15849
O    -1.26914  -2.24722  -0.83671
C    -1.23100  -0.06508   0.05924
C    -1.50938   1.13550   0.10884
C    -2.32273   2.33645   0.35201
C    -3.80282   2.10284   0.24228
O    -1.83151   3.41657   0.62741
C     0.60615   2.21884  -0.38068
C     0.93899   2.20848   1.00161
N     1.09586   2.36570   2.14555
O     0.87756   1.31634  -1.27835
C     1.05697   0.00410  -1.21152
C     0.85564  -0.63854  -2.46043
N     0.68286  -1.19576  -3.46956
C     1.86826  -0.62761  -0.13972
O     2.48221   0.07527   0.66823
N     1.90883  -1.97312  -0.14751
C     2.59686  -2.70310   0.90120
H    -0.17502  -3.87189   0.98330
H    -0.48983  -3.52324   2.71002
H    -1.84373  -3.90954   1.60725
H    -0.91165  -1.30969   2.16836
H    -4.10643   1.30147   0.93455
H    -4.34307   3.03163   0.46713
H    -4.04282   1.75840  -0.77694
H     0.32604   3.17884  -0.81713
H     1.26511  -2.48485  -0.74592
H     2.55805  -3.77360   0.66854
H     3.64909  -2.38963   0.96350
H     2.12807  -2.53253   1.88401
