45
Generated by autodE on: 2022-06-02. E = -1522.840530 Ha
C     1.54696  -2.80417  -3.36354
N     1.76550  -1.93027  -2.22658
C     0.81738  -1.13243  -1.71796
O    -0.31456  -1.00849  -2.18521
C     1.25228  -0.18975  -0.54322
C     2.44824  -0.69755   0.16482
N     3.43601  -1.05655   0.69121
C     0.10098   0.04416   0.44617
C    -0.25596   1.33735   0.38993
C     0.57760   2.12629  -0.59120
C    -0.21311   2.83019  -1.69846
N     1.48385   1.12144  -1.15230
C     2.84310   1.54826  -1.41204
C    -1.39687   2.01017   1.11292
F    -1.33464   1.72217   2.46389
F    -1.20296   3.37480   1.07293
C    -2.78955   1.69763   0.54666
C    -2.93682   0.40825  -0.26926
C    -2.89113  -0.92546   0.49764
C    -1.91929  -1.03874   1.67189
C    -0.40773  -1.03442   1.39268
C     0.36644  -0.99071   2.71381
Cl   -0.02632  -2.70516   0.64207
H     0.48216  -2.78923  -3.62355
H     1.84155  -3.83437  -3.11408
H     2.13037  -2.47456  -4.23785
H     2.67017  -1.96941  -1.76709
H     1.14820   2.89052  -0.02668
H     0.49073   3.28889  -2.40957
H    -0.85489   3.62517  -1.29568
H    -0.83250   2.10345  -2.24476
H     3.38513   0.77741  -1.97894
H     2.81966   2.45645  -2.03201
H     3.41828   1.77533  -0.49166
H    -3.49699   1.73539   1.39064
H    -3.02867   2.54472  -0.11211
H    -3.90936   0.46601  -0.78289
H    -2.18165   0.40854  -1.06602
H    -3.89256  -1.12211   0.91464
H    -2.69316  -1.73712  -0.22128
H    -2.12198  -0.24343   2.39842
H    -2.12190  -1.97729   2.20833
H     1.44657  -1.10112   2.55877
H     0.01877  -1.79405   3.37910
H     0.17928  -0.02113   3.19588
