23
Generated by autodE on: 2022-06-02. E = -1009.688765 Ha
C     2.52554  -0.31795  -1.86146
C     1.09205  -0.02906  -1.44305
Cl    0.47721   1.39306  -2.48170
C     0.92117   0.36937  -0.05613
C     0.47251   0.46889   1.06560
C    -0.51442   0.11499   2.08956
F    -0.83456   1.17700   2.89311
F     0.02111  -0.83379   2.93095
C    -1.77158  -0.43161   1.42297
C    -1.53777  -1.53641   0.37424
C    -1.28358  -1.11210  -1.10029
C     0.14585  -1.23293  -1.66241
H     3.15915   0.56997  -1.73157
H     2.92518  -1.13343  -1.23915
H     2.55221  -0.63055  -2.91478
H    -2.40139  -0.81064   2.24376
H    -2.29517   0.42564   0.97244
H    -2.44851  -2.15311   0.38191
H    -0.73158  -2.20337   0.72326
H    -1.90927  -1.75947  -1.73277
H    -1.65562  -0.08829  -1.27103
H     0.64865  -2.10712  -1.21573
H     0.11032  -1.40716  -2.74869
