45
Generated by autodE on: 2022-06-02. E = -1522.737325 Ha. Imaginary frequency = -298.0 cm-1
C     0.81742  -2.72470  -3.29753
N     1.58966  -1.82669  -2.46434
C     1.00465  -0.75424  -1.87734
O    -0.14450  -0.42664  -2.19168
C     1.84107  -0.09014  -0.81887
C     2.88074  -0.90075  -0.29339
N     3.70012  -1.61855   0.13083
C    -0.14968   0.03863   0.81849
C    -0.49756   1.19155   0.51049
C     1.01485   2.18362  -0.87823
C     0.35790   2.33821  -2.21440
N     1.94698   1.26934  -0.56658
C     2.79202   1.60442   0.59258
C    -1.63654   2.12676   0.62729
F    -2.05324   2.51664  -0.63215
F    -1.24133   3.29213   1.24390
C    -2.82752   1.52930   1.36062
C    -3.22233   0.14196   0.81465
C    -2.93385  -1.05164   1.74268
C    -1.57817  -1.14183   2.44844
C    -0.28434  -1.19082   1.60970
C     0.92025  -1.43504   2.51536
Cl   -0.39936  -2.64694   0.44902
H     0.47178  -2.22770  -4.21800
H     1.44716  -3.57892  -3.57525
H    -0.07104  -3.09484  -2.76037
H     2.53869  -2.08800  -2.22371
H     1.15554   3.11573  -0.33018
H     1.12353   2.21716  -3.00067
H    -0.05462   3.35259  -2.28312
H    -0.42553   1.60470  -2.41814
H     3.81568   1.24959   0.42468
H     2.81317   2.69053   0.72068
H     2.38137   1.12590   1.49532
H    -2.56534   1.48583   2.42793
H    -3.64883   2.25486   1.25794
H    -2.73335  -0.01825  -0.15843
H    -4.30251   0.13580   0.60366
H    -3.68836  -1.05396   2.54760
H    -3.09810  -1.97806   1.16961
H    -1.58257  -2.04132   3.08423
H    -1.44887  -0.28592   3.13131
H     0.76474  -2.34937   3.10556
H     1.84609  -1.53538   1.93899
H     1.02336  -0.58420   3.20657
