28
Generated by autodE on: 2022-06-17. E = -757.968246 Ha. Imaginary frequency = -404.8 cm-1
C     3.19807  -1.33769   0.42316
C     2.36211  -0.18773   0.88294
O     2.59420   0.48004   1.87830
N     1.27833   0.13853   0.02219
N     0.56800   1.15498   0.48305
C    -0.65842   1.29886  -0.12716
C    -1.58819   2.20216   0.48959
N    -2.37827   2.88756   0.99451
C    -0.65893   1.31280  -1.56895
N    -0.68572   1.30902  -2.72974
C    -1.38273  -0.67372   0.27318
C    -2.53545  -0.80800  -0.69845
C    -1.79671  -0.53218   1.71968
C    -0.15326  -1.38991   0.07299
C     0.19112  -2.02863  -1.20536
O     0.95422  -2.97905  -1.29339
H     3.91869  -1.60298   1.20602
H     3.73863  -1.03418  -0.48856
H     2.58177  -2.20644   0.15221
H     0.61733   1.34858   1.49437
H    -3.24558   0.02225  -0.56845
H    -3.07784  -1.74207  -0.47557
H    -2.22700  -0.84413  -1.74998
H    -2.11151  -1.52035   2.09614
H    -2.64639   0.15406   1.83871
H    -0.96378  -0.19268   2.35473
H     0.28508  -1.87003   0.95194
H    -0.25838  -1.58802  -2.12088
