34
Generated by autodE on: 2022-05-30. E = -1598.015769 Ha
C     3.90758   0.98105   2.36659
N     2.95317   1.01646   1.27641
C     2.22994  -0.05896   0.94072
O     2.38239  -1.17747   1.43611
C     1.21765   0.14615  -0.20275
C     1.89666  -0.36515  -1.48105
O     0.98101   1.56335  -0.33487
C    -0.31151   1.81815  -0.82677
C    -0.30950   1.90189  -2.30375
N    -0.24136   2.03532  -3.45331
C    -1.19985   0.69548  -0.24625
Cl   -2.54114   0.27614  -1.38025
C    -1.85405   1.01297   1.14880
C    -0.82498   1.64591   2.06915
C    -0.02219   0.64275   2.43969
C    -0.54956  -0.58030   1.70452
O    -1.95290  -0.31338   1.66506
C    -0.19451  -0.45294   0.14363
C    -0.45928  -1.82387  -0.49821
F     0.49419  -2.70434  -0.14088
F    -0.47841  -1.79386  -1.84042
F    -1.62839  -2.34940  -0.10579
H     4.54501   0.08969   2.28568
H     4.53825   1.87754   2.32196
H     3.40053   0.95236   3.34649
H     2.66626   1.91096   0.89137
H     2.19533  -1.41463  -1.37342
H     1.24614  -0.26621  -2.35682
H     2.79937   0.24040  -1.63991
H    -0.63496   2.80261  -0.45401
H    -2.82837   1.50315   1.06270
H    -0.76478   2.70559   2.31284
H     0.84955   0.66661   3.08942
H    -0.32976  -1.56233   2.13088
