18
Generated by autodE on: 2022-05-30. E = -493.563683 Ha
C     2.76797  -1.87896   0.27363
N     1.56775  -1.08271   0.13591
C     1.27681  -0.03326   0.93441
O     2.00166   0.35700   1.86245
C     0.00524   0.67204   0.65347
C    -0.46612   1.83497   1.42004
O    -0.69543   0.20400  -0.33125
C    -1.86505   0.64903  -0.78746
C    -2.41248  -0.04503  -1.86644
N    -2.89762  -0.61023  -2.77263
H     3.36000  -1.86309  -0.65511
H     2.52410  -2.92748   0.50853
H     3.37661  -1.46820   1.08733
H     0.90822  -1.32669  -0.59584
H    -0.60723   2.70589   0.75165
H     0.25161   2.08724   2.20724
H    -1.45458   1.62393   1.87112
H    -2.34713   1.50431  -0.31854
