34
Generated by autodE on: 2022-05-30. E = -1597.895501 Ha. Imaginary frequency = -228.6 cm-1
C     3.72778   0.63156   2.59672
N     2.88265   0.95057   1.46411
C     2.66672   0.05873   0.47954
O     3.27760  -1.01232   0.38893
C     1.65226   0.43306  -0.55392
C     1.68862  -0.21367  -1.88580
O     1.05921   1.56893  -0.32922
C     0.04500   2.16267  -0.95762
C    -0.15578   2.09872  -2.35027
N    -0.41138   2.11086  -3.49062
C    -1.57510   0.31752  -0.13915
Cl   -2.49948   0.19029  -1.59754
C    -2.19118   1.03260   1.10861
C    -1.10326   1.84269   1.81429
C    -0.27518   0.92994   2.33053
C    -0.86822  -0.41797   1.92351
O    -2.28457  -0.11313   1.98264
C    -0.71171  -0.61469   0.37916
C    -0.46992  -1.99577  -0.11132
F     0.71323  -2.49440   0.30209
F    -0.51167  -2.11717  -1.44848
F    -1.41340  -2.84354   0.37693
H     4.72730   0.31758   2.26060
H     3.82876   1.52342   3.22673
H     3.30039  -0.18579   3.20181
H     2.30666   1.78452   1.50011
H     2.13244  -1.20990  -1.78678
H     0.70195  -0.29419  -2.35178
H     2.33276   0.38924  -2.55341
H    -0.30281   3.05155  -0.43418
H    -3.15969   1.50861   0.92732
H    -1.03011   2.92904   1.81735
H     0.65409   1.06406   2.87883
H    -0.60800  -1.29273   2.52796
