41
Generated by autodE on: 2022-05-29. E = -958.064219 Ha
C    -4.50415  -1.12504   1.31965
C    -4.39978   0.13193   0.71667
C    -3.29722   0.43337  -0.08844
C    -2.28625  -0.51571  -0.28783
C    -1.07470  -0.15201  -1.09653
O    -0.56571  -1.28377  -1.80639
N     0.79392  -0.93156  -2.10044
N     1.27526  -0.35461  -0.91469
C     2.13552  -1.16368  -0.13967
C     2.48657  -0.75035   1.15993
C     3.36540  -1.51567   1.92906
C     3.91647  -2.69697   1.42344
C     3.57787  -3.09954   0.12741
C     2.70008  -2.34487  -0.65287
C     0.14602   0.30912  -0.22991
C     0.24276   1.80872  -0.11498
C    -0.35139   2.45389   0.97813
C    -0.33226   3.84866   1.07562
C     0.28499   4.61167   0.08000
C     0.88097   3.97277  -1.01342
C     0.85666   2.57968  -1.11196
C    -2.39140  -1.77391   0.32338
C    -3.49872  -2.07773   1.11814
H    -5.36858  -1.36410   1.94364
H    -5.18219   0.87946   0.86760
H    -3.21676   1.41289  -0.56596
H    -1.32037   0.64708  -1.81770
H     0.70984  -0.16630  -2.77918
H     2.08718   0.18049   1.56463
H     3.62351  -1.17674   2.93553
H     4.60386  -3.29227   2.02828
H     4.00035  -4.01828  -0.28772
H     2.44206  -2.66242  -1.66177
H     0.03733  -0.12252   0.77341
H    -0.82952   1.85591   1.75804
H    -0.79628   4.33958   1.93447
H     0.30530   5.70140   0.15662
H     1.36753   4.56342  -1.79347
H     1.32364   2.08312  -1.96538
H    -1.60289  -2.51295   0.16987
H    -3.57721  -3.06254   1.58501
