41
Generated by autodE on: 2022-05-29. E = -958.016530 Ha. Imaginary frequency = -493.1 cm-1
C    -3.17916  -3.01813   0.88968
C    -3.56245  -2.35899  -0.28383
C    -2.91057  -1.18878  -0.67248
C    -1.85810  -0.65575   0.09696
C    -1.16601   0.54718  -0.40590
O    -0.30202  -0.15654  -2.00412
N     0.94958   0.21733  -1.86586
N     1.46764   0.14358  -0.65448
C     1.49364  -1.12054  -0.02196
C     2.02110  -1.15765   1.28222
C     2.09983  -2.36036   1.98110
C     1.68320  -3.55481   1.38068
C     1.19359  -3.52712   0.07164
C     1.08726  -2.32324  -0.62751
C    -0.06244   1.15045   0.26923
C     0.32150   2.54212  -0.01027
C     1.06324   3.26402   0.94626
C     1.48140   4.56874   0.69191
C     1.17796   5.17973  -0.53181
C     0.45037   4.47373  -1.49330
C     0.02241   3.16779  -1.23738
C    -1.49344  -1.32082   1.28107
C    -2.14636  -2.49077   1.67134
H    -3.68680  -3.93601   1.19545
H    -4.37182  -2.76016  -0.89847
H    -3.20390  -0.68032  -1.59436
H    -1.79122   1.19875  -1.01830
H     1.14937   1.13187  -2.29289
H     2.35709  -0.22538   1.74054
H     2.49831  -2.36726   2.99844
H     1.74610  -4.49842   1.92706
H     0.87202  -4.45309  -0.41141
H     0.67370  -2.31422  -1.63393
H     0.17853   0.80111   1.27202
H     1.30783   2.78519   1.89796
H     2.04921   5.11432   1.44949
H     1.50800   6.20160  -0.73269
H     0.20988   4.94172  -2.45091
H    -0.55412   2.63848  -1.99902
H    -0.69120  -0.93087   1.90607
H    -1.84268  -2.99484   2.59173
