39
Generated by autodE on: 2022-06-18. E = -931.514084 Ha
C     3.79746   2.26383   0.83028
N     3.03599   1.06153   0.56999
C     2.14543   0.55889   1.43215
O     1.92492   1.03773   2.55414
C     1.39682  -0.70245   0.96488
C     1.70890  -1.81705   1.97146
N     1.79159  -1.09466  -0.41507
C     0.58018  -1.33682  -1.21698
C     0.71391  -2.52230  -2.05961
N     0.82384  -3.47297  -2.71650
C    -0.57731  -1.44851  -0.17819
C    -0.12891  -0.42211   0.87163
C    -0.46569   1.01700   0.44312
C    -1.85384   1.11586  -0.13710
C    -2.59104   2.38431  -0.20752
N    -1.94940   3.48723   0.25812
O    -3.74675   2.48020  -0.67115
C    -2.44834   0.01036  -0.67230
N    -1.91190  -1.23558  -0.68367
C    -2.52714  -2.30446  -1.45313
H     3.21628   3.17571   0.60977
H     4.09427   2.29822   1.88784
H     4.70075   2.26801   0.20626
H     3.06246   0.60218  -0.33822
H     1.12831  -2.72299   1.74516
H     2.77981  -2.07263   1.93219
H     1.46936  -1.48651   2.99096
H     2.37040  -1.93137  -0.38165
H     0.36883  -0.48593  -1.88769
H    -0.53872  -2.45699   0.25685
H    -0.61714  -0.63629   1.83126
H    -0.35807   1.66091   1.32769
H     0.28012   1.38089  -0.28572
H    -2.41911   4.38324   0.19163
H    -0.99347   3.46493   0.58860
H    -3.44275   0.09483  -1.11525
H    -2.12680  -2.36425  -2.48029
H    -2.34692  -3.27066  -0.95875
H    -3.61124  -2.13777  -1.51445
