39
Generated by autodE on: 2022-06-18. E = -931.442359 Ha. Imaginary frequency = -399.7 cm-1
C     1.98266   2.76711   0.31058
N     1.86920   1.46559   0.93717
C     1.65210   0.34977   0.20665
O     1.63059   0.40108  -1.03641
C     1.46565  -0.91803   0.97139
C     1.95749  -0.99574   2.39088
N     1.51121  -2.08195   0.26458
C     0.81803  -2.26857  -0.90157
C     0.60578  -3.57962  -1.36812
N     0.34721  -4.65357  -1.75646
C    -1.23336  -1.44954  -0.03064
C    -0.78109  -0.89098   1.16766
C    -1.14754   0.53193   1.53122
C    -1.38890   1.35240   0.28169
C    -1.38258   2.81930   0.29409
N    -1.25962   3.41492   1.50770
O    -1.48708   3.51420  -0.73971
C    -1.68028   0.73046  -0.89646
N    -1.74494  -0.62260  -1.04564
C    -2.01806  -1.21720  -2.34303
H     1.86410   3.54226   1.07691
H     1.20418   2.89856  -0.45390
H     2.96281   2.90071  -0.17768
H     1.87080   1.41472   1.94818
H     1.79298  -2.00446   2.79743
H     3.03116  -0.75694   2.47568
H     1.40752  -0.29294   3.03524
H     1.60822  -2.91425   0.84446
H     0.82323  -1.45563  -1.61950
H    -1.54493  -2.49000  -0.09263
H    -0.68251  -1.58588   2.00362
H    -0.35590   0.98433   2.15081
H    -2.04846   0.52609   2.18050
H    -1.20800   4.42666   1.54818
H    -1.15806   2.88928   2.36615
H    -1.89847   1.31937  -1.78877
H    -2.60315  -0.51811  -2.95398
H    -2.59874  -2.14273  -2.21512
H    -1.08799  -1.46795  -2.88156
