31
Generated by autodE on: 2022-06-17. E = -743.252990 Ha
C     3.30932   0.16160   1.98942
N     2.18718  -0.09499   1.10846
C     1.73832   0.78049   0.20688
O     2.20747   1.89706  -0.02163
C     0.47936   0.32956  -0.56328
C     0.69529   0.60149  -2.00011
N     0.85068   0.78098  -3.13502
O     0.22908  -1.06322  -0.40957
C    -1.14997  -1.31214  -0.05071
C    -1.66941  -2.49126  -0.85986
C    -1.16478  -1.64874   1.39407
N    -1.16332  -1.92253   2.52124
C    -1.87837   0.02372  -0.31813
C    -3.18010   0.22662   0.44092
C    -0.78510   1.05715  -0.01717
C    -1.03255   2.45133  -0.56703
H     4.14757  -0.51660   1.76670
H     3.64341   1.19635   1.84928
H     3.01359   0.01887   3.03947
H     1.71452  -0.99416   1.15061
H    -2.71658  -2.69657  -0.59483
H    -1.60905  -2.23961  -1.92793
H    -1.06979  -3.39101  -0.66211
H    -2.08087   0.03901  -1.40200
H    -3.00788   0.28577   1.52676
H    -3.66212   1.16177   0.12117
H    -3.88199  -0.59805   0.24420
H    -0.64979   1.11375   1.07573
H    -1.90798   2.89768  -0.07334
H    -0.16627   3.10212  -0.38199
H    -1.22562   2.42547  -1.65048
