19
Generated by autodE on: 2022-06-17. E = -585.840642 Ha
C     3.58671   0.71739   0.50257
N     2.15357   0.54437   0.37270
C     1.63491  -0.52321  -0.26314
O     2.32784  -1.41854  -0.77032
C     0.16468  -0.60423  -0.34725
C    -0.42413  -1.70738  -0.99803
N    -0.84550  -2.64922  -1.54533
O    -0.51622   0.38143   0.22011
C    -1.77386   0.67509   0.33717
C    -2.87567  -0.13257  -0.22944
C    -1.99579   1.87294   1.06301
N    -2.21892   2.85238   1.65570
H     3.78085   1.63577   1.06944
H     4.04520  -0.13117   1.03455
H     4.07267   0.80031  -0.48289
H     1.53059   1.24513   0.75928
H    -2.88229  -1.14516   0.20817
H    -3.83618   0.35351  -0.02001
H    -2.75339  -0.23503  -1.32096
