25
Generated by autodE on: 2022-06-16. E = -627.413389 Ha
C     2.96945  -0.62940   0.89156
C     2.18261   0.22078  -0.05416
O     2.64222   1.15497  -0.67043
C     0.66931  -0.14213  -0.24102
C     0.63912  -1.36667  -1.05404
N     0.62713  -2.32658  -1.70572
N     0.04990  -0.45201   1.06826
C    -1.08602   0.13923   1.09832
C    -1.93843   0.01291   2.25324
N    -2.65627  -0.06577   3.16246
C    -1.51928   0.90798  -0.12794
C    -2.63896   0.16158  -0.86578
C    -0.15965   1.02262  -0.86450
C    -0.20274   1.07061  -2.38391
H     2.76356  -1.69784   0.72647
H     2.65113  -0.39786   1.92073
H     4.04027  -0.41709   0.78073
H    -1.88901   1.90231   0.16485
H    -3.52079   0.05737  -0.21523
H    -2.31713  -0.84435  -1.17456
H    -2.94257   0.72256  -1.76093
H     0.33053   1.93582  -0.49997
H    -0.78376   1.94330  -2.71792
H    -0.66044   0.16993  -2.81740
H     0.81579   1.16616  -2.78725
