12
Generated by autodE on: 2022-06-16. E = -157.299004 Ha
C    -1.53523  -0.67723  -0.08870
C    -0.72067   0.56090   0.13948
C     0.61663   0.67748   0.11889
C     1.62587  -0.40180  -0.13645
H    -0.92041  -1.56460  -0.29661
H    -2.22982  -0.53866  -0.93607
H    -2.16611  -0.89905   0.79024
H    -1.30110   1.46911   0.34618
H     1.03724   1.67305   0.30966
H     2.31585  -0.50335   0.71990
H     2.25585  -0.15106  -1.00823
H     1.16822  -1.38426  -0.32079
