18
Generated by autodE on: 2022-12-30. E = -551.550895 Ha
C    -2.24464  -2.03232   0.28617
C    -2.54511  -0.56809   0.14028
O    -3.67920  -0.09864   0.12637
C    -1.41857   0.35901   0.00170
O    -0.23500  -0.13797   0.02179
C     0.95519   0.44596  -0.08531
C     1.04488   1.84214  -0.26114
N     1.09988   2.99866  -0.40653
C     2.12807  -0.41193  -0.00461
C     1.89750  -1.88570   0.19658
O     3.24868   0.08920  -0.09773
H    -3.18528  -2.58632   0.39496
H    -1.69466  -2.39622  -0.59668
H    -1.60015  -2.20625   1.16246
H    -1.56496   1.43782  -0.11850
H     2.86703  -2.39884   0.21800
H     1.36007  -2.06390   1.14149
H     1.27420  -2.29457  -0.61399
