24
Generated by autodE on: 2022-12-30. E = -630.223207 Ha
C     3.56245   0.03854  -1.43000
N     2.26514   0.27347  -0.83357
C     1.52178  -0.73880  -0.32371
O     1.92908  -1.91712  -0.33272
C     0.22445  -0.38287   0.24083
C    -0.47706   0.77787   0.23789
O    -0.09985   1.94885  -0.26565
C    -0.97984   3.07622  -0.14503
C    -1.86502   0.42871   0.84142
C    -2.58632  -0.44280  -0.21221
C    -1.91063  -1.59579  -0.21387
C    -0.77663  -1.40204   0.81905
O    -1.45917  -0.56994   1.78665
H     3.97853   0.99677  -1.76531
H     3.49634  -0.63785  -2.29845
H     4.26305  -0.41402  -0.70929
H     1.87922   1.21196  -0.82867
H    -0.47641   3.90842  -0.65079
H    -1.14120   3.32906   0.91342
H    -1.94180   2.87233  -0.63826
H    -2.43124   1.24151   1.30616
H    -3.42063  -0.11402  -0.83030
H    -2.04611  -2.47961  -0.83662
H    -0.34513  -2.30029   1.27184
