42
Generated by autodE on: 2022-12-30. E = -1181.787959 Ha. Imaginary frequency = -128.3 cm-1
C     3.92104   1.03857   1.67314
N     2.77808   0.29250   1.18568
C     2.46485   0.26619  -0.12864
O     3.19033   0.78576  -0.99016
C     1.20697  -0.41490  -0.50476
C     0.91485  -0.76180  -1.98935
C    -0.59080  -0.62877  -2.24939
C    -1.15690  -1.63688  -1.57801
C     0.01307  -2.39410  -0.94728
O     1.04014  -2.20939  -1.93822
C     0.61881  -1.48907   0.15603
O     0.70969  -1.75559   1.42978
C     0.07343  -2.93475   1.96651
C    -2.07111   0.40823   0.80762
C    -1.58682   0.07068   2.08037
N    -1.17077  -0.19027   3.14177
C    -3.39151   0.03743   0.36409
C    -3.88979   0.62509  -0.93252
O    -4.08562  -0.72400   1.05165
O    -1.33883   1.21431  -0.00552
C    -0.10576   1.54920   0.20087
C     0.48686   2.57995  -0.67906
C    -0.15746   2.88212  -1.99801
O     1.50656   3.13526  -0.28787
H     4.00827   0.88579   2.75594
H     4.85185   0.70061   1.19259
H     3.80659   2.11708   1.47440
H     2.13285  -0.12075   1.85130
H     1.60851  -0.31386  -2.70531
H    -1.06368   0.17507  -2.80972
H    -2.20660  -1.88291  -1.42938
H    -0.13368  -3.44434  -0.68104
H    -0.98973  -2.94413   1.69161
H     0.18060  -2.86053   3.05303
H     0.58321  -3.83257   1.59056
H    -3.15716   0.50860  -1.74283
H    -4.06326   1.70650  -0.80418
H    -4.83423   0.13693  -1.20531
H     0.32911   1.39534   1.19144
H     0.26518   2.19037  -2.74679
H    -1.24512   2.73604  -1.97711
H     0.09535   3.90754  -2.29814
