28
Generated by autodE on: 2022-10-06. E = -989.678752 Ha
C    -3.95350  -0.96875   0.28833
O    -2.70525  -0.26682   0.39882
C    -1.94515  -0.21357  -0.69205
O    -2.24563  -0.71829  -1.75242
C    -0.61634   0.53069  -0.45145
C    -0.91531   1.95078   0.07214
C    -0.74695   3.08246  -0.89709
O    -1.34129   2.09769   1.20351
O     0.08080   0.58218  -1.68004
C     1.15017  -0.38054  -1.68769
C     0.93415  -1.27357  -0.47363
C     2.19417  -1.96000   0.09760
O     3.30717  -1.41001  -0.11252
O     1.99805  -3.01492   0.75363
C     0.25981  -0.29436   0.52266
C     1.30572   0.57235   1.26197
O     1.74959   0.10308   2.33759
O     1.65155   1.65659   0.72007
H    -4.58874  -0.50209  -0.47801
H    -4.42868  -0.89500   1.27307
H    -3.77719  -2.02221   0.02773
H    -1.05684   4.02394  -0.42508
H    -1.34923   2.89145  -1.80000
H     0.30299   3.14059  -1.21519
H     1.11528  -0.93440  -2.63828
H     2.11484   0.14343  -1.61226
H     0.20634  -2.06396  -0.71080
H    -0.33961  -0.83472   1.26332
