10
Generated by autodE on: 2022-10-06. E = -455.046548 Ha
O     1.67438   0.01142   1.63252
C     1.52807   0.05764   0.38358
O     2.11406  -0.65936  -0.46815
C     0.63500   1.16118  -0.15249
C    -0.66913   1.08508  -0.46669
C    -1.53546  -0.14758  -0.35782
O    -2.70718  -0.04475  -0.82161
O    -1.04812  -1.18408   0.17513
H     1.14807   2.12320  -0.29073
H    -1.17939   1.97253  -0.85877
