18
Generated by autodE on: 2022-10-06. E = -534.518433 Ha
C    -1.35624   0.76426   2.21490
O    -0.51336   0.62635   1.28605
C    -0.32839  -0.10637   0.15544
C    -1.27436  -1.07812  -0.35645
C    -2.58256  -1.29781   0.36910
O    -1.03368  -1.72761  -1.38231
C     0.93721   0.22310  -0.49307
O     1.35728  -0.27639  -1.52667
O     1.63581   1.17146   0.17506
C     2.88676   1.55226  -0.40269
H    -2.27905   0.18557   2.26957
H    -1.08538   1.50957   2.96745
H    -3.16427  -0.36451   0.44605
H    -3.16409  -2.03627  -0.19755
H    -2.41527  -1.68266   1.38847
H     3.30659   2.31705   0.26202
H     3.57043   0.69219  -0.46404
H     2.74433   1.96905  -1.41112
