28
Generated by autodE on: 2022-10-06. E = -989.579054 Ha. Imaginary frequency = -169.2 cm-1
C    -3.94019  -1.36226  -0.82368
O    -2.68736  -0.74352  -1.12005
C    -2.29468   0.24318  -0.27359
O    -2.97496   0.56665   0.69043
C    -1.00349   0.80471  -0.63643
C    -0.38841   1.90843   0.06455
C     0.82061   2.60155  -0.52454
O    -0.83988   2.31535   1.14642
O    -0.52416   0.28642  -1.81524
C     0.70301   0.07213  -2.13076
C     1.46934  -1.45981  -0.49296
C     2.91587  -1.00983  -0.28938
O     3.28239   0.12056  -0.71165
O     3.65367  -1.87557   0.24038
C     0.44772  -1.29738   0.39579
C     0.51054  -0.57011   1.71797
O    -0.49035  -0.71950   2.47069
O     1.53911   0.11272   1.97905
H    -4.08984  -2.12794  -1.59486
H    -4.76160  -0.63061  -0.85894
H    -3.92100  -1.83158   0.17131
H     0.86985   3.60970  -0.09161
H     0.79668   2.67003  -1.62247
H     1.72828   2.05148  -0.23020
H     0.82129  -0.46756  -3.07442
H     1.54936   0.58822  -1.67403
H     1.33597  -2.21127  -1.28080
H    -0.49074  -1.82544   0.20546
