69
Generated by autodE on: 2022-07-02. E = -2273.361831 Ha
C    -8.58218  17.25677  -5.76007
N    -7.92028  18.40276  -6.35477
C    -6.98725  19.08798  -5.68600
O    -6.67903  18.83737  -4.51861
C    -6.35874  20.33503  -6.36520
Cl   -6.55070  20.20595  -8.22968
C    -7.27032  21.52006  -5.98679
C    -7.50511  21.79560  -4.49660
C    -6.28667  21.82297  -3.58007
C    -5.23030  22.88305  -3.85011
C    -4.41725  22.79723  -5.19064
C    -5.06352  23.50912  -6.39741
O    -4.78602  23.25531  -7.54881
O    -5.91338  24.46910  -6.03915
C    -6.47881  25.25490  -7.09859
C    -3.16774  23.66019  -4.85910
O    -2.34592  23.36580  -4.01920
O    -3.17717  24.82580  -5.49227
C    -2.07545  25.71327  -5.24110
C    -4.06450  21.35801  -5.59541
C    -4.86231  20.38847  -6.10756
C    -3.99198  19.20747  -6.59237
C    -4.50269  17.78676  -6.36334
C    -3.61385  19.47685  -8.08947
O    -3.18635  20.58618  -8.42863
N    -3.66173  18.44849  -8.94853
C    -3.32292  18.62551 -10.34772
N    -2.77840  19.39945  -5.79166
C    -2.62977  20.82077  -5.49221
C    -1.66000  21.53963  -6.45625
O    -1.73673  22.70699  -6.77381
O    -0.70004  20.72386  -6.87488
C     0.21970  21.24841  -7.84512
C    -2.02861  20.84634  -4.07335
O    -0.83782  20.89099  -3.85122
O    -2.96320  20.66474  -3.14811
C    -2.52870  20.64459  -1.78136
H    -7.87089  16.43310  -5.58470
H    -9.03722  17.52720  -4.79582
H    -9.36773  16.90913  -6.44161
H    -8.07672  18.61926  -7.33356
H    -8.24674  21.29572  -6.43791
H    -6.92372  22.40815  -6.51511
H    -8.20476  21.04106  -4.10559
H    -8.03231  22.76246  -4.43966
H    -6.64565  22.00065  -2.55285
H    -5.81467  20.83232  -3.56519
H    -4.48871  22.80495  -3.04598
H    -5.65966  23.89255  -3.79395
H    -5.68290  25.78116  -7.64476
H    -7.15094  25.97274  -6.61529
H    -7.03950  24.61297  -7.79330
H    -2.27159  26.60978  -5.83944
H    -2.02457  25.96646  -4.17315
H    -1.13688  25.23697  -5.55706
H    -4.73266  17.63908  -5.30450
H    -3.71334  17.07329  -6.64195
H    -5.39627  17.55350  -6.95685
H    -4.08897  17.57581  -8.66372
H    -4.02302  19.31852 -10.84339
H    -2.30752  19.03524 -10.45436
H    -3.36936  17.65236 -10.85149
H    -1.94570  19.03216  -6.24785
H    -0.32592  21.53792  -8.75435
H     0.92248  20.43667  -8.06322
H     0.75278  22.11859  -7.43734
H    -3.43480  20.51196  -1.17962
H    -1.83126  19.81204  -1.61122
H    -2.03840  21.59576  -1.52902
