30
Generated by autodE on: 2022-07-27. E = -837.432394 Ha
C    -2.66969  -3.84645  -1.71460
N    -2.15064  -2.95870  -0.69146
C    -1.41737  -1.88367  -1.00847
O    -1.13767  -1.57512  -2.17805
C    -0.92259  -1.03160   0.12465
C    -1.32642  -1.21536   1.53941
N    -0.16585  -0.05675  -0.30998
C     0.54409   0.95320   0.30388
C     0.82638   2.11932  -0.51052
O     1.47720   3.10234  -0.18139
O     0.28031   2.00656  -1.75234
C     0.56117   3.05984  -2.67640
C     1.16864   0.80002   1.60664
O     1.56950   1.70877   2.32182
O     1.34149  -0.49978   1.93948
C     1.85507  -0.76544   3.24602
H    -3.35750  -3.31290  -2.38908
H    -3.21128  -4.66652  -1.22924
H    -1.85355  -4.26568  -2.32360
H    -2.33052  -3.17675   0.28255
H    -2.35823  -1.59216   1.58778
H    -0.67380  -1.92941   2.06603
H    -1.27943  -0.25946   2.08061
H    -0.15974  -0.02249  -1.34377
H     0.03796   2.79719  -3.60373
H     1.64239   3.13946  -2.86493
H     0.18961   4.02246  -2.29527
H     2.86944  -0.35550   3.35954
H     1.88003  -1.85710   3.34740
H     1.20215  -0.33123   4.01812
