39
Generated by autodE on: 2022-07-02. E = -1435.857279 Ha
C    -1.56425  -3.36386   3.15115
N    -1.04490  -2.17660   2.49871
C     0.14139  -1.65463   2.83564
O     0.87973  -2.13665   3.69499
C     0.56065  -0.38169   2.07501
Cl    0.30623   0.99647   3.30013
C    -0.18742  -0.05872   0.87636
C    -0.36586   0.31988  -0.26012
C    -0.03168   0.83903  -1.58024
C    -1.06042   1.87322  -2.07178
O    -0.80450   3.01819  -2.36060
O    -2.27159   1.32802  -2.13885
C    -3.34080   2.16730  -2.60970
C     0.03024  -0.24889  -2.66696
O     0.07704   0.02817  -3.84619
O     0.07299  -1.47810  -2.17742
C     0.19624  -2.55420  -3.12620
C     1.38489   1.48489  -1.44051
C     2.44792   0.62240  -0.73091
C     2.57350   0.72485   0.81634
C     2.05082  -0.43847   1.67925
H    -0.85042  -4.19787   3.07128
H    -2.50472  -3.65167   2.66654
H    -1.75525  -3.17980   4.22048
H    -1.60202  -1.72224   1.78139
H    -4.24220   1.54488  -2.58890
H    -3.45987   3.03713  -1.94855
H    -3.13222   2.50597  -3.63441
H     0.21422  -3.47431  -2.53196
H    -0.66338  -2.55445  -3.81072
H     1.12806  -2.44710  -3.69872
H     1.71800   1.73305  -2.45897
H     1.25201   2.43667  -0.90612
H     3.41252   0.94585  -1.15004
H     2.34064  -0.43344  -1.03044
H     3.64693   0.80145   1.04571
H     2.13044   1.66990   1.17148
H     2.19223  -1.39372   1.14589
H     2.62166  -0.51037   2.61549
