69
Generated by autodE on: 2022-07-02. E = -2273.283481 Ha. Imaginary frequency = -331.5 cm-1
C    -8.12717  17.02893  -6.65491
N    -7.47644  18.24080  -7.11677
C    -6.84297  19.05138  -6.26261
O    -6.86911  18.89362  -5.03804
C    -6.13510  20.29839  -6.82672
Cl   -5.63915  20.01626  -8.61097
C    -7.13453  21.47858  -6.88749
C    -7.86045  21.84170  -5.58711
C    -7.00337  22.25618  -4.38385
C    -5.95612  23.33522  -4.70179
C    -4.46142  22.82385  -4.68682
C    -3.65649  23.94166  -5.37436
O    -3.74632  24.10566  -6.57523
O    -2.94094  24.71125  -4.57712
C    -2.22533  25.79873  -5.19044
C    -4.16404  22.49776  -3.21168
O    -4.20115  21.36620  -2.77112
O    -4.00966  23.56930  -2.44946
C    -3.77298  23.33968  -1.05090
C    -4.33119  21.57744  -5.48607
C    -4.89698  20.63810  -6.09342
C    -3.35877  18.97844  -5.98503
C    -3.69663  18.53236  -4.59613
C    -3.57497  18.04192  -7.15764
O    -2.93954  18.20712  -8.20675
N    -4.47958  17.06341  -7.00536
C    -4.89295  16.24132  -8.12543
N    -2.34354  19.81693  -6.26173
C    -2.05274  20.99617  -5.62240
C    -1.51789  22.05025  -6.51918
O    -0.87203  23.02196  -6.17166
O    -1.84805  21.81564  -7.79987
C    -1.41560  22.77860  -8.76919
C    -1.59461  21.05141  -4.22145
O    -1.45876  22.08323  -3.58434
O    -1.30116  19.84481  -3.72115
C    -0.99923  19.78333  -2.32105
H    -8.54979  16.50377  -7.51950
H    -7.41039  16.36387  -6.14579
H    -8.93628  17.26323  -5.94714
H    -7.31031  18.36418  -8.11075
H    -6.57394  22.34140  -7.27527
H    -7.89226  21.22194  -7.64202
H    -8.52919  22.67945  -5.84772
H    -8.51810  21.01179  -5.28460
H    -7.68165  22.63602  -3.60473
H    -6.52114  21.36867  -3.95199
H    -6.00524  24.16509  -3.98291
H    -6.13327  23.76712  -5.69558
H    -1.49157  25.40553  -5.90550
H    -1.72141  26.32091  -4.36954
H    -2.92604  26.47291  -5.70240
H    -3.69422  24.33274  -0.59452
H    -2.83447  22.78295  -0.91812
H    -4.60567  22.77718  -0.60620
H    -4.69649  18.08732  -4.55939
H    -2.95855  17.78119  -4.26868
H    -3.69111  19.36644  -3.89155
H    -4.99622  16.98708  -6.13672
H    -5.63388  15.51323  -7.77579
H    -4.03506  15.70245  -8.55480
H    -5.34194  16.85813  -8.92065
H    -2.16464  19.82866  -7.27276
H    -0.32104  22.87971  -8.75543
H    -1.75050  22.39652  -9.74028
H    -1.88055  23.75284  -8.56322
H    -0.82244  18.72477  -2.09818
H    -1.84801  20.15900  -1.73169
H    -0.10117  20.37409  -2.09109
