40
Generated by autodE on: 2022-06-02. E = -3587.928181 Ha
C    -1.39373   3.58319  -1.11605
O    -1.04939   2.51692  -0.22330
C    -0.56319   1.40080  -0.78169
O    -0.47445   1.23806  -1.97602
C    -0.16066   0.40333   0.28978
C    -1.06923   0.52788   1.58048
C    -2.51872   0.38010   1.14804
C    -2.67774  -0.92088   0.88289
C    -1.31822  -1.55166   1.15041
O    -0.81246  -0.73399   2.21464
C    -0.35130  -1.14099  -0.01161
Br   -1.16324  -1.72726  -1.71286
C     1.07633  -1.74261   0.07533
C     1.16366  -3.20280   0.47723
N     1.81051  -0.87500   0.98982
C     1.39707   0.48382   0.68165
C     1.62932   1.46645   1.86708
C     2.29120   0.93931   3.10316
O     1.28022   2.62369   1.75372
C     2.28662   1.09648  -0.43808
C     3.60568   0.44175  -0.71820
O     1.94910   2.13301  -0.97474
H    -1.75689   4.40194  -0.48435
H    -0.50667   3.90260  -1.68211
H    -2.18014   3.26370  -1.81489
H    -0.83365   1.36542   2.23938
H    -3.22227   1.20104   1.02215
H    -3.54808  -1.44091   0.48664
H    -1.29355  -2.61424   1.40807
H     1.51287  -1.62706  -0.92974
H     0.53728  -3.82438  -0.17858
H     2.20288  -3.55206   0.39189
H     0.83849  -3.35380   1.51819
H     1.50685  -1.10430   1.93545
H     3.21934   0.40452   2.85423
H     2.49376   1.77207   3.78801
H     1.61957   0.21765   3.59789
H     4.13775   1.02141  -1.48326
H     3.47389  -0.59714  -1.05252
H     4.19898   0.40436   0.20901
