21
Generated by autodE on: 2022-07-27. E = -478.789218 Ha
C    -1.58981  -3.17189   0.33103
C    -1.03603  -1.95678  -0.30507
N    -0.48471  -1.01258   0.39754
C     0.11299   0.21739   0.05374
C     0.60925   1.00149   1.16288
C     0.45056   0.45300   2.57667
O     1.16188   2.10561   1.02215
C     0.19203   0.59477  -1.33348
C     0.83347   1.90800  -1.72553
O    -0.25645  -0.13629  -2.24283
H    -1.08526  -4.06535  -0.07568
H    -2.65714  -3.27415   0.06980
H    -1.48281  -3.16172   1.42599
H    -1.06828  -1.81035  -1.38313
H    -0.47857  -1.19458   1.40432
H    -0.60841   0.29733   2.84198
H     0.87989   1.18254   3.27441
H     0.97733  -0.50711   2.70735
H     0.31244   2.76129  -1.26759
H     0.79188   1.98788  -2.82074
H     1.87714   1.96370  -1.38411
