60
Generated by autodE on: 2022-07-01. E = -1923.096006 Ha
C     3.02132   2.61377   2.46391
O     2.07082   2.03117   1.55639
C     2.41888   0.88342   0.99368
O     3.49377   0.34795   1.15823
C     1.35069   0.39410  -0.03042
C     2.06124   0.67763  -1.38115
O     2.88036  -0.05983  -1.88417
O     1.75631   1.88572  -1.82933
C     2.33480   2.27870  -3.08482
N     0.12094   1.10068   0.14643
C    -1.09028   0.36234  -0.11784
C    -1.86382   0.95055  -1.32397
O    -2.72601   0.35924  -1.93887
O    -1.53256   2.21452  -1.54710
C    -2.22597   2.89419  -2.60783
C    -2.07710   0.51202   1.08009
C    -1.58909   0.98748   2.30444
C    -2.44160   1.15647   3.39770
C    -3.80294   0.86406   3.28346
C    -4.30240   0.40807   2.06087
C    -3.44987   0.23652   0.96793
C    -0.55059  -1.11518  -0.44679
C    -0.47056  -1.23355  -2.02386
C    -1.21393  -2.27418  -2.81110
O     0.10402  -0.32327  -2.59527
C    -1.42595  -2.23305   0.14268
F    -0.91948  -3.45531  -0.11198
F    -2.66443  -2.21431  -0.36716
F    -1.54951  -2.15130   1.47874
C     0.94358  -1.11859   0.12611
C     1.82628  -2.13292  -0.66651
C     3.21019  -2.47202  -0.19301
O     1.34111  -2.71083  -1.62011
C     1.01406  -1.49910   1.65393
C     1.12488  -2.93987   2.07342
O     1.04192  -0.61888   2.48594
H     2.57050   3.55117   2.80787
H     3.19362   1.93682   3.31258
H     3.97158   2.80967   1.94757
H     2.00282   1.59170  -3.87596
H     1.96848   3.29249  -3.28001
H     3.43178   2.27074  -3.02026
H     0.12267   2.04842  -0.21210
H    -1.81531   3.90941  -2.63125
H    -2.04209   2.38233  -3.56266
H    -3.30485   2.91874  -2.40039
H    -0.53202   1.22441   2.38942
H    -2.03597   1.52361   4.34359
H    -4.47139   0.99842   4.13716
H    -5.36641   0.18614   1.94990
H    -3.86649  -0.11438   0.02653
H    -2.26153  -1.94775  -2.89211
H    -0.77757  -2.29896  -3.81777
H    -1.18991  -3.27146  -2.36450
H     3.86827  -2.50223  -1.07151
H     3.18470  -3.48632   0.23412
H     3.60005  -1.76525   0.54411
H     2.15914  -3.09149   2.42115
H     0.90761  -3.66868   1.28751
H     0.46324  -3.10386   2.93453
