36
Generated by autodE on: 2022-07-01. E = -1049.114403 Ha
C    -3.52530   2.46028   1.31793
O    -3.12709   1.38094   0.46589
C    -1.85138   0.97580   0.57224
O    -1.05850   1.53212   1.33191
C    -1.50426  -0.16280  -0.25157
N    -0.19605  -0.60399  -0.27650
C     0.96278  -0.02725  -0.05176
C     1.05294   1.47015  -0.03577
O     0.55739   2.16272  -0.89981
O     1.81388   1.91594   0.95423
C     1.99428   3.33965   1.03376
C     2.17401  -0.84282   0.02190
C     2.10826  -2.19458   0.42161
C     3.25846  -2.98126   0.44419
C     4.49346  -2.43403   0.08143
C     4.57238  -1.09074  -0.30309
C     3.42739  -0.29812  -0.33131
C    -2.38632  -1.13952  -0.87294
O    -1.95113  -2.18072  -1.37042
O    -3.69128  -0.84609  -0.86155
C    -4.56749  -1.81220  -1.45340
H    -4.58276   2.64413   1.09364
H    -3.40691   2.18846   2.37723
H    -2.93226   3.36255   1.10765
H    -0.16196  -1.59543  -0.55697
H     2.63452   3.51296   1.90570
H     1.02114   3.83278   1.16740
H     2.47889   3.71499   0.12137
H     1.16037  -2.62584   0.74985
H     3.19192  -4.02369   0.76285
H     5.39461  -3.05067   0.10625
H     5.53371  -0.65792  -0.58796
H     3.50447   0.74257  -0.64930
H    -4.50066  -2.77517  -0.92625
H    -5.57830  -1.39891  -1.35500
H    -4.32287  -1.96222  -2.51523
