39
Generated by autodE on: 2022-05-29. E = -1027.319154 Ha
C    -2.79175   3.70552   0.15128
N    -2.08006   2.55968  -0.37851
C    -0.85379   2.20814   0.05640
O    -0.16462   2.92351   0.80089
C    -0.30825   0.91997  -0.42170
C    -0.84038  -0.32120  -0.51956
C    -2.16752  -0.85063  -0.18772
C    -2.92713  -0.31247   0.87050
C    -4.18634  -0.82970   1.17317
C    -4.70859  -1.89384   0.42943
C    -3.95843  -2.44537  -0.61376
C    -2.69540  -1.93421  -0.91620
C     0.35764  -1.21093  -0.85870
O     1.20749  -0.33944  -1.60378
C     1.18715   0.74731  -0.66855
C     1.77230   0.07264   0.60741
C     1.15308  -1.34269   0.48171
N     2.27130  -2.27558   0.31283
N     3.37941  -1.73543   0.31047
C     3.28408  -0.24254   0.58809
C     3.96554   0.01704   1.93647
C     4.01831   0.43451  -0.48325
N     4.61275   0.97281  -1.32159
H    -3.28373   3.47265   1.11184
H    -3.55861   4.02299  -0.56708
H    -2.09175   4.53518   0.31573
H    -2.60142   1.88207  -0.92563
H    -2.51721   0.49907   1.47350
H    -4.75982  -0.40618   2.00086
H    -5.69505  -2.29770   0.66876
H    -4.35785  -3.27978  -1.19472
H    -2.11817  -2.36725  -1.73539
H     0.17045  -2.15294  -1.38285
H     1.73057   1.61875  -1.04632
H     1.49584   0.61699   1.51488
H     0.52035  -1.68766   1.30755
H     5.00607  -0.33602   1.92110
H     3.41404  -0.51587   2.72421
H     3.95246   1.09374   2.15746
