30
Generated by autodE on: 2022-05-29. E = -746.809927 Ha
C    -1.84925  -3.38187  -0.26820
N    -1.41642  -2.09215   0.23012
C    -1.85871  -0.93058  -0.29753
O    -2.79919  -0.87022  -1.10606
C    -1.20390   0.31126   0.15297
C     0.08494   0.65945   0.36252
C     1.34346  -0.07506   0.22065
C     2.44299   0.23811   1.04440
C     3.64805  -0.45460   0.91757
C     3.78319  -1.46184  -0.04288
C     2.70505  -1.76947  -0.88050
C     1.49767  -1.08351  -0.75333
C     0.01254   2.19324   0.62366
C    -0.32974   2.84436  -0.73501
C    -1.59875   2.49559  -0.96774
C    -1.99997   1.63669   0.25088
O    -1.25419   2.28853   1.29252
H    -1.65922  -4.14982   0.49287
H    -1.31730  -3.66456  -1.19371
H    -2.92519  -3.35573  -0.48606
H    -0.59132  -2.05931   0.82029
H     2.34552   1.01935   1.80069
H     4.48693  -0.20481   1.57130
H     4.72836  -2.00003  -0.14516
H     2.80908  -2.54228  -1.64569
H     0.67361  -1.31126  -1.43110
H     0.82762   2.63511   1.20538
H     0.37101   3.39894  -1.35790
H    -2.23008   2.68476  -1.83505
H    -3.06566   1.55074   0.48583
