9
Generated by autodE on: 2022-05-29. E = -280.430042 Ha
C    -1.86324  -0.04796  -0.26950
C    -0.36919  -0.01747  -0.05119
C     0.42379  -1.18548  -0.01090
N     1.03301  -2.18163   0.01470
N     0.24991   1.12855   0.10378
N     0.75208   2.13743   0.23570
H    -2.27271   0.96985  -0.21452
H    -2.35115  -0.66299   0.50222
H    -2.10323  -0.46938  -1.25819
