39
Generated by autodE on: 2022-05-29. E = -1027.226598 Ha. Imaginary frequency = -419.3 cm-1
C    -2.87993   3.76001   0.01353
N    -2.17376   2.56720  -0.40870
C    -0.96174   2.24168   0.08780
O    -0.29545   3.01726   0.79332
C    -0.40608   0.92354  -0.26918
C    -0.93411  -0.31830  -0.37128
C    -2.28740  -0.83802  -0.16359
C    -3.15542  -0.26675   0.78983
C    -4.43915  -0.77785   0.97792
C    -4.88155  -1.86988   0.22267
C    -4.02549  -2.45525  -0.71530
C    -2.73778  -1.95041  -0.90222
C     0.30600  -1.23011  -0.58233
O     1.16351  -0.35659  -1.33183
C     1.12072   0.72542  -0.38831
C     1.58794  -0.00170   0.88949
C     1.04145  -1.26266   0.77097
N     2.82807  -2.51607   0.12469
N     3.63313  -1.69082   0.14303
C     3.85750  -0.38970   0.46537
C     4.51366  -0.11772   1.79766
C     4.16905   0.44848  -0.64423
N     4.37447   1.19619  -1.51431
H    -3.29480   3.65352   1.03115
H    -3.70513   3.95640  -0.68262
H    -2.20031   4.62341   0.01160
H    -2.69130   1.85219  -0.90929
H    -2.81060   0.56758   1.40250
H    -5.09572  -0.32726   1.72588
H    -5.88774  -2.26845   0.37167
H    -4.36136  -3.31187  -1.30427
H    -2.07843  -2.41140  -1.64008
H     0.14003  -2.18455  -1.09185
H     1.69769   1.59207  -0.72405
H     1.83458   0.52233   1.81137
H     0.79995  -1.95716   1.57382
H     5.59532  -0.32498   1.77594
H     4.04094  -0.72964   2.57860
H     4.36824   0.94430   2.04051
