23
Generated by autodE on: 2022-06-20. E = -351.521380 Ha
C     3.73451   0.51600  -0.29415
C     2.54081  -0.09054  -0.47603
C     2.42559  -1.37663  -1.25380
C     1.32883   0.50024   0.08819
C     0.07589  -0.00892  -0.02042
C    -1.09313   0.61867   0.56123
C    -2.37460   0.17602   0.50106
C    -2.80832  -1.07908  -0.20173
C    -3.48470   0.94407   1.16123
H     4.65706   0.09616  -0.70467
H     3.81454   1.44943   0.27154
H     1.75234  -1.25894  -2.11917
H     3.40646  -1.70902  -1.62195
H     1.99888  -2.18044  -0.63106
H     1.46637   1.43553   0.64408
H    -0.06893  -0.94118  -0.57297
H    -0.90661   1.55172   1.10674
H    -3.56083  -0.84298  -0.97479
H    -3.30559  -1.76221   0.50944
H    -1.98576  -1.62495  -0.68129
H    -4.00365   0.31718   1.90860
H    -4.25271   1.23527   0.42219
H    -3.12111   1.85336   1.66201
