24
Generated by autodE on: 2022-06-20. E = -572.272440 Ha
C     1.42114   1.57969  -2.85160
O     1.10901   0.43755  -2.05534
C     0.51327   0.68161  -0.85237
O     0.22698   1.82541  -0.49351
C     0.28746  -0.51892  -0.11063
C     0.77841  -1.76214  -0.53297
N     1.18561  -2.80783  -0.87400
N    -0.30906  -0.43452   1.18381
C     0.48956  -0.94915   2.30949
C    -1.45068   0.17845   1.38567
C    -2.33526   0.55428   0.25661
C    -1.90405   0.49534   2.77115
H     2.12829   2.24580  -2.33350
H     0.51324   2.14904  -3.10282
H     1.88230   1.19370  -3.76935
H     1.13073  -0.14735   2.70372
H    -0.15773  -1.33881   3.10210
H     1.12408  -1.76080   1.93657
H    -2.15697   1.60797  -0.01572
H    -2.14148  -0.05937  -0.63373
H    -3.38324   0.46275   0.57690
H    -1.07846   0.82340   3.41729
H    -2.35539  -0.40360   3.22761
H    -2.67551   1.27512   2.73984
