24
Generated by autodE on: 2022-07-27. E = -572.271990 Ha
C    -2.71199   0.53991   2.52756
O    -1.87585   0.84347   1.41191
C    -1.05842  -0.15750   0.97681
O    -1.06201  -1.27314   1.50163
C    -0.24013   0.24830  -0.12070
C    -0.26196   1.54571  -0.64526
N    -0.25826   2.62805  -1.09827
N     0.61712  -0.72154  -0.73166
C    -0.01487  -1.95258  -1.24451
C     1.89311  -0.49880  -0.93629
C     2.68981  -1.43981  -1.77342
C     2.56353   0.68609  -0.34369
H    -2.11420   0.26365   3.40986
H    -3.40366  -0.28384   2.29342
H    -3.28199   1.45344   2.73846
H    -1.02412  -2.02382  -0.83450
H     0.56450  -2.83419  -0.94392
H    -0.06869  -1.90501  -2.34155
H     2.15401  -1.72883  -2.68945
H     2.88726  -2.36582  -1.20469
H     3.65385  -0.99006  -2.03875
H     2.48948   1.54846  -1.03061
H     3.63032   0.46941  -0.19772
H     2.09112   0.98112   0.60416
