47
Generated by autodE on: 2022-06-20. E = -923.757955 Ha. Imaginary frequency = -492.5 cm-1
C     3.07162  -4.51492   0.75483
C     2.02513  -3.66342   0.79716
C     0.62015  -4.15248   1.03670
C     2.23783  -2.22824   0.59641
C     1.26922  -1.28960   0.62075
C     1.49109   0.14156   0.35284
C     1.00689   0.39070  -1.55454
C     1.71801  -0.70513  -2.31419
C     1.61470   1.74164  -1.88979
N    -0.38379   0.30752  -1.52886
C    -1.03937  -0.90265  -2.03782
C    -1.10277   1.17684  -0.69303
C    -1.10697   2.57312  -0.92035
N    -1.11409   3.73411  -1.06873
C    -2.15523   0.65508   0.16066
O    -2.38599  -0.52698   0.39355
O    -2.86306   1.64662   0.75457
C    -3.86527   1.24478   1.69119
C     0.77999   1.10645   1.12970
C    -0.12440   0.71152   2.25921
C     1.28454   2.51375   1.22574
H     4.08899  -4.15288   0.57693
H     2.93848  -5.59127   0.89537
H    -0.04029  -3.88502   0.19476
H     0.59374  -5.24375   1.16517
H     0.18445  -3.68625   1.93593
H     3.27089  -1.91706   0.40077
H     0.23660  -1.59355   0.80660
H     2.53829   0.41248   0.17179
H     1.54365  -0.57769  -3.39549
H     1.40286  -1.71293  -2.02516
H     2.79871  -0.61874  -2.13936
H     1.42999   1.93642  -2.96001
H     2.70086   1.71411  -1.73188
H     1.20158   2.57811  -1.32664
H    -2.11968  -0.73693  -2.07167
H    -0.83970  -1.79052  -1.42045
H    -0.69671  -1.09805  -3.06256
H    -3.42048   0.68830   2.52932
H    -4.62764   0.61838   1.20486
H    -4.32220   2.17109   2.05999
H    -0.68082  -0.21443   2.08572
H    -0.83074   1.51759   2.50375
H     0.50609   0.54992   3.15470
H     2.16882   2.69795   0.60464
H     0.50493   3.24713   0.95549
H     1.55093   2.72672   2.27626
