34
Generated by autodE on: 2022-05-29. E = -1076.226523 Ha
C     4.15418   0.80577   0.40866
O     2.72930   0.93403   0.54768
C     2.12321   0.09973   1.39036
O     2.70852  -0.73353   2.04969
C     0.60928   0.25613   1.38983
C     0.06194   0.03571   2.79909
N     0.19797   1.58710   0.89028
N    -1.10577   1.36915   0.39472
C    -2.17747   2.06735   0.87604
C    -1.87679   3.25226   1.75628
O    -3.32565   1.73694   0.57083
C    -1.25324   0.03548  -0.18058
C    -0.94149  -0.00408  -1.70622
O     0.49328   0.11075  -1.69941
C     0.74561  -1.06738  -0.91393
C    -0.07106  -2.10323  -1.67276
F     0.19784  -3.40339  -1.65974
C    -1.11962  -1.44147  -2.16610
F    -2.20156  -1.88970  -2.79304
C    -0.04242  -0.76213   0.39888
H     4.40956  -0.19686   0.03744
H     4.64769   0.97865   1.37520
H     4.45503   1.56984  -0.31660
H    -1.03526   0.10862   2.79271
H     0.46264   0.79421   3.48679
H     0.33974  -0.96174   3.16404
H     0.78801   1.81596   0.08887
H    -1.20450   3.96138   1.25280
H    -1.37253   2.92329   2.67695
H    -2.82266   3.74826   2.00695
H    -2.24523  -0.36462   0.05142
H    -1.42121   0.77480  -2.30829
H     1.81608  -1.28055  -0.82082
H    -0.31975  -1.68725   0.91550
