34
Generated by autodE on: 2022-05-29. E = -1076.134773 Ha. Imaginary frequency = -309.3 cm-1
C     3.82129   0.91277   0.87952
O     2.40140   0.98360   1.07671
C     1.86258   0.11653   1.94093
O     2.50809  -0.69547   2.57595
C     0.38266   0.21187   1.99986
C    -0.33018  -0.48036   3.11584
N    -0.17810   1.25469   1.37401
N    -1.47899   1.18700   1.10202
C    -2.02740   2.23432   0.40151
C    -1.27433   3.54102   0.30309
O    -3.13132   2.08396  -0.13021
C    -1.39674  -0.77382  -0.06060
C    -1.11939  -0.17263  -1.45355
O     0.23441   0.28947  -1.26014
C     0.76267  -0.98836  -0.84533
C     0.31694  -1.84721  -2.04015
F     0.97486  -2.92313  -2.45791
C    -0.85653  -1.33899  -2.41901
F    -1.73118  -1.75276  -3.33032
C    -0.18246  -1.29822   0.34114
H     4.10464  -0.08415   0.51305
H     4.05861   1.67600   0.13016
H     4.34872   1.12329   1.82069
H     0.16060  -1.43328   3.34519
H    -0.29117   0.15326   4.01958
H    -1.38253  -0.65636   2.86617
H     0.43722   1.73304   0.70625
H    -1.93757   4.30606  -0.11876
H    -0.40989   3.41924  -0.37276
H    -0.89131   3.86807   1.28063
H    -2.38957  -1.05430   0.28061
H    -1.79192   0.61162  -1.81560
H     1.84192  -0.95722  -0.66174
H    -0.03354  -2.14253   1.01153
