36
Generated by autodE on: 2022-10-21. E = -1007.978152 Ha
C    -0.42350  -2.15733   1.91840
O     0.31642  -1.34813   0.99969
C    -0.40059  -0.74140  -0.00753
O    -1.16361  -1.63444  -0.76633
C    -0.44687  -2.66471  -1.44738
C     0.55150   0.12502  -0.90683
C     1.97994   0.22447  -0.46566
C     2.95790  -0.51038  -1.14644
C     4.29209  -0.45954  -0.73241
C     4.65495   0.33577   0.35812
C     3.67940   1.07565   1.03721
C     2.34539   1.01778   0.63173
O    -0.03477   1.45557  -0.91342
N    -1.40783   1.32401  -0.61102
C    -2.17656   1.13023  -1.69933
N    -2.86349   1.06350  -2.63797
C    -1.44870   0.33337   0.49560
C    -2.81580  -0.20777   0.64161
N    -3.88044  -0.62007   0.83755
O    -0.96552   0.88432   1.65637
C    -1.71723   1.96482   2.22267
H    -1.04468  -2.89783   1.39388
H     0.32049  -2.67720   2.53506
H    -1.05907  -1.53525   2.56739
H     0.10618  -2.26581  -2.31283
H     0.25502  -3.17520  -0.77154
H    -1.19917  -3.38010  -1.80281
H     0.49437  -0.27399  -1.92820
H     2.66950  -1.12533  -2.00248
H     5.04959  -1.03679  -1.26757
H     5.69816   0.38123   0.67962
H     3.96037   1.69731   1.89056
H     1.58024   1.58158   1.16704
H    -1.77001   2.81336   1.52531
H    -2.73456   1.63598   2.48794
H    -1.17844   2.26184   3.13003
