19
Generated by autodE on: 2022-10-21. E = -514.640773 Ha
C     2.68148   0.41046  -0.41200
O     1.67895   0.69330   0.56529
C     0.38016   0.62863   0.07307
C    -0.07233   1.78756  -0.60100
N    -0.34030   2.78762  -1.14470
C    -0.30440  -0.56159   0.19864
O    -1.56259  -0.82986  -0.10673
C    -2.50707   0.19263  -0.44799
O     0.36161  -1.59448   0.70488
C    -0.34144  -2.81064   1.00063
H     3.65449   0.48734   0.09339
H     2.64703   1.13860  -1.24099
H     2.56015  -0.60670  -0.82052
H    -3.48514  -0.30241  -0.45597
H    -2.29224   0.60351  -1.44358
H    -2.49732   0.99004   0.30888
H     0.40639  -3.47569   1.44795
H    -0.74476  -3.26249   0.08353
H    -1.15692  -2.62681   1.71459
