17
Generated by autodE on: 2022-10-26. E = -493.285557 Ha
N    -2.91587   1.01084  -2.75045
C    -2.68165   1.23541  -1.61592
N    -2.52264   1.55427  -0.35093
O    -1.34853   0.95891   0.20377
C    -0.52823   0.21355  -0.42589
C     0.61604  -0.32518   0.24135
C     1.48952  -1.14249  -0.51115
C     2.61693  -1.69012   0.09326
C     2.87933  -1.42801   1.44281
C     2.01550  -0.61654   2.19578
C     0.88738  -0.06421   1.60540
H    -0.71323  -0.00696  -1.48592
H     1.27003  -1.33629  -1.56330
H     3.29383  -2.32212  -0.48453
H     3.76458  -1.85877   1.91602
H     2.23173  -0.41995   3.24763
H     0.20856   0.56800   2.17962
