36
Generated by autodE on: 2022-10-21. E = -1007.912139 Ha. Imaginary frequency = -329.0 cm-1
C     0.01889  -2.16880   2.22171
O     0.39613  -1.24949   1.17728
C    -0.60956  -0.91059   0.32930
O    -1.07701  -1.86911  -0.51983
C    -0.13889  -2.69857  -1.21366
C     0.50273   0.52152  -0.86017
C     1.90071   0.31491  -0.51040
C     2.68163  -0.57497  -1.26956
C     4.01605  -0.79727  -0.93104
C     4.57776  -0.14070   0.16906
C     3.80198   0.74200   0.93275
C     2.46924   0.96799   0.60135
O     0.01104   1.71159  -0.51324
N    -1.35167   1.94355  -0.72602
C    -1.79793   1.50057  -1.88609
N    -2.32652   1.15897  -2.88089
C    -1.61140  -0.01940   0.80068
C    -2.94003  -0.09717   0.28911
N    -4.02652  -0.19862  -0.11671
O    -1.30282   0.71446   1.85813
C    -2.22051   1.73010   2.29054
H    -0.40171  -3.09071   1.79314
H     0.93977  -2.40041   2.77083
H    -0.71302  -1.70330   2.89909
H     0.19569  -2.20968  -2.14084
H     0.73004  -2.93390  -0.58436
H    -0.67422  -3.62288  -1.46461
H     0.11322   0.08757  -1.78828
H     2.23771  -1.08352  -2.12706
H     4.62046  -1.48438  -1.52700
H     5.62206  -0.31871   0.43580
H     4.24088   1.24854   1.79508
H     1.85313   1.63723   1.20336
H    -2.40124   2.42942   1.46181
H    -3.16427   1.27351   2.62305
H    -1.73204   2.23829   3.12904
