44
Generated by autodE on: 2022-05-31. E = -1241.120018 Ha
C     3.56097   1.52493   2.57887
O     3.03511   0.85652   1.42491
C     2.26425   1.58919   0.60935
O     2.03594   2.77440   0.80534
C     1.70802   0.85023  -0.52285
C     1.86450  -0.42175  -0.95925
C     2.70258  -1.54613  -0.48531
C     0.91042  -0.53653  -2.15044
O     0.92815   0.80421  -2.67394
C     0.65499   1.46363  -1.42384
C    -0.74809   0.84786  -1.10531
C    -0.59214  -0.57641  -1.70159
C    -1.09368  -1.44363  -0.53585
C    -0.92030  -2.95093  -0.69937
C    -2.01243  -3.67857  -1.41520
O     0.09078  -3.48719  -0.29127
O    -2.57325  -1.13671  -0.47923
C    -2.66680   0.07310   0.10459
O    -3.71073   0.64054   0.30133
C    -1.19621   0.51286   0.36267
C    -0.96860   1.62123   1.37754
C    -1.63759   2.93111   1.09557
O    -0.23835   1.44540   2.33523
N    -0.57151  -0.79906   0.63104
C    -0.90041  -1.42668   1.91538
H     2.74018   1.89565   3.21010
H     4.20288   2.36749   2.28327
H     4.14751   0.77430   3.12119
H     2.04934  -2.36271  -0.14018
H     3.29262  -1.95208  -1.32455
H     3.37374  -1.24891   0.32738
H     1.17866  -1.27349  -2.91479
H     0.66381   2.55206  -1.52969
H    -1.51907   1.44405  -1.60606
H    -1.21162  -0.74579  -2.58859
H    -2.27563  -3.15580  -2.34813
H    -2.91637  -3.67721  -0.78470
H    -1.69879  -4.70942  -1.62114
H    -1.19523   3.37216   0.18685
H    -2.70862   2.77941   0.89594
H    -1.48752   3.61332   1.94169
H    -0.49633  -2.44591   1.92347
H    -1.98713  -1.47827   2.11419
H    -0.42345  -0.85963   2.71988
