22
Generated by autodE on: 2022-05-31. E = -666.232494 Ha
C     3.62800  -0.42540   0.04248
C     2.55877   0.60721  -0.15544
O     2.79493   1.78210  -0.39388
C     1.16784   0.10313  -0.03939
O     0.96987  -1.19261   0.21706
C    -0.42831  -1.44886   0.28826
O    -0.82765  -2.57228   0.51387
C    -1.02965  -0.17668   0.04853
C    -2.44615   0.13903   0.00757
C    -3.39582  -1.00757   0.25005
O    -2.86308   1.27900  -0.21260
N     0.00672   0.73257  -0.14503
C    -0.17064   2.16296  -0.41869
H     3.53159  -0.88575   1.03880
H     4.61020   0.05142  -0.06106
H     3.51814  -1.23335  -0.69855
H    -3.24694  -1.80090  -0.49901
H    -4.42550  -0.63117   0.19731
H    -3.21166  -1.46379   1.23515
H    -0.74547   2.27580  -1.34452
H    -0.73373   2.61174   0.40693
H     0.81612   2.61788  -0.51360
