22
Generated by autodE on: 2022-05-31. E = -574.845895 Ha
C    -3.56458  -0.69849  -0.39861
O    -2.17513  -0.75460  -0.05781
C    -1.46991   0.38634  -0.19600
O    -1.97701   1.42624  -0.59091
C    -0.07346   0.19690   0.17634
C     0.97603   1.02557  -0.01833
C     1.09660   2.36991  -0.62311
C     2.19890   0.19921   0.45487
C     2.40123  -0.92390  -0.58594
C     1.36599  -1.74852  -0.39956
C     0.54650  -1.10553   0.74121
O     1.60681  -0.54084   1.53592
H    -3.69479  -0.41859  -1.45448
H    -4.09070   0.03030   0.23562
H    -3.96103  -1.70569  -0.22419
H     1.79114   2.32532  -1.48103
H     1.54621   3.07328   0.09899
H     0.12876   2.76184  -0.95681
H     3.07990   0.77062   0.76727
H     3.19763  -0.95501  -1.32856
H     1.08163  -2.64644  -0.94724
H    -0.11156  -1.75507   1.32585
