44
Generated by autodE on: 2022-05-31. E = -1241.056539 Ha. Imaginary frequency = -443.1 cm-1
C     3.20161   1.64874   2.70501
O     2.81522   0.92088   1.53106
C     2.08464   1.58707   0.62534
O     1.78903   2.76648   0.75038
C     1.66966   0.78016  -0.51988
C     1.85710  -0.51764  -0.85922
C     2.62755  -1.63465  -0.26549
C     1.09664  -0.66427  -2.18296
O     1.36061   0.62799  -2.78216
C     0.84539   1.38698  -1.65564
C    -0.58059   0.82618  -1.60627
C    -0.43463  -0.53700  -1.92652
C    -1.29435  -1.48572  -0.35597
C    -1.16040  -2.95015  -0.64990
C    -2.28999  -3.56607  -1.41653
O    -0.16074  -3.56625  -0.32146
O    -2.55451  -0.94650  -0.61171
C    -2.59592   0.31003  -0.02601
O    -3.52954   1.06224  -0.21286
C    -1.37566   0.40232   0.75391
C    -1.01590   1.49243   1.66914
C    -1.63087   2.83725   1.39833
O    -0.23370   1.31121   2.59855
N    -0.81760  -0.85796   0.76641
C     0.12030  -1.38285   1.75756
H     2.31051   1.99658   3.24604
H     3.82870   2.51106   2.43650
H     3.77090   0.94391   3.32184
H     2.00350  -2.53885  -0.21618
H     3.46741  -1.87414  -0.94242
H     3.02891  -1.39801   0.72515
H     1.40472  -1.49041  -2.83148
H     0.93661   2.46641  -1.80340
H    -1.44851   1.44631  -1.82035
H    -1.10520  -1.02723  -2.63432
H    -2.46577  -3.00664  -2.34906
H    -3.21785  -3.50255  -0.82592
H    -2.05012  -4.61260  -1.64067
H    -1.49021   3.12466   0.34572
H    -2.71629   2.79624   1.58037
H    -1.16908   3.58015   2.06077
H     0.38885  -2.40068   1.47221
H    -0.37675  -1.39100   2.73660
H     1.01378  -0.75868   1.82690
