41
Generated by autodE on: 2022-10-22. E = -3530.958041 Ha
C     1.96751   3.16248   1.21474
N     1.58615   2.22386   0.18379
C     2.02303   0.95511   0.13023
O     2.92554   0.49889   0.83836
C     1.32071   0.07013  -0.93366
C     2.33914  -0.29641  -2.01022
N     0.16586   0.77349  -1.52211
C    -1.05927   0.34233  -0.83129
C    -2.15536   0.03734  -1.88874
C    -3.57315  -0.09636  -1.42420
O    -1.83449  -0.08401  -3.05665
C    -1.52770   1.40353   0.16782
C    -1.97308   2.63912  -0.32685
C    -2.31252   3.67494   0.54443
C    -2.20754   3.48998   1.92774
C    -1.76346   2.26353   2.42721
C    -1.42535   1.22543   1.55203
C    -0.65691  -0.97291  -0.15561
O    -1.65163  -1.68659   0.38854
C    -1.41052  -2.62406   1.44205
C     0.67725  -1.13270  -0.24317
Br    1.70760  -2.61367   0.32706
H     1.20697   3.20952   2.01311
H     2.08663   4.17028   0.79117
H     2.92116   2.84849   1.65799
H     0.79326   2.42891  -0.42015
H     1.88941  -0.98601  -2.74058
H     3.21717  -0.77616  -1.55870
H     2.67027   0.61386  -2.53287
H     0.06505   0.47734  -2.49520
H    -4.01521   0.91254  -1.37720
H    -3.62891  -0.52586  -0.41641
H    -4.14436  -0.69590  -2.14537
H    -2.04082   2.79744  -1.40611
H    -2.65575   4.63130   0.14294
H    -2.46829   4.30086   2.61176
H    -1.67206   2.11053   3.50506
H    -1.06323   0.28243   1.96227
H    -2.39305  -2.83689   1.88233
H    -0.75140  -2.18747   2.20690
H    -0.97236  -3.55484   1.05709
