33
Generated by autodE on: 2022-10-22. E = -765.349746 Ha
C     4.92803   1.84912  -0.05531
N     3.56027   1.60105  -0.46475
C     2.79952   0.67700   0.15264
O     3.23605  -0.01478   1.09350
C     1.40533   0.50541  -0.32820
C     0.83970   1.19603  -1.52065
N     0.73995  -0.36938   0.40304
C    -0.52625  -0.85626   0.45403
C    -0.64617  -1.96533   1.37532
C    -1.99885  -2.58596   1.62731
O     0.36000  -2.40662   1.97262
C    -1.65829  -0.21187  -0.23899
C    -1.92862   1.15677  -0.03935
C    -3.01294   1.76974  -0.66856
C    -3.85653   1.02676  -1.50149
C    -3.60612  -0.33512  -1.69884
C    -2.51653  -0.94795  -1.07649
H     4.97871   2.21193   0.98437
H     5.36355   2.60832  -0.71597
H     5.53333   0.93161  -0.12101
H     3.15775   2.18083  -1.19140
H     0.33668   2.14391  -1.26167
H     1.63342   1.42194  -2.24634
H     0.10015   0.56035  -2.02419
H     1.34546  -0.83613   1.10580
H    -2.81149  -1.84676   1.61887
H    -1.97268  -3.10758   2.59404
H    -2.22120  -3.32992   0.84440
H    -1.28431   1.73964   0.62231
H    -3.20559   2.83225  -0.50126
H    -4.70629   1.50675  -1.99250
H    -4.25806  -0.92307  -2.34951
H    -2.31590  -2.00682  -1.25041
