8
Generated by autodE on: 2022-10-22. E = -2765.505926 Ha
C    -3.61512   0.12419   0.59558
O    -2.75207  -0.40582  -0.44194
C    -1.47874  -0.23784  -0.26981
C    -0.27965  -0.09985  -0.14713
Br    1.50386   0.10400   0.02992
H    -4.64000  -0.10285   0.28050
H    -3.47129   1.21125   0.68069
H    -3.39044  -0.36718   1.55360
