41
Generated by autodE on: 2022-10-22. E = -3530.830544 Ha. Imaginary frequency = -300.8 cm-1
C     3.37340   2.11759   1.46979
N     2.85048   1.55937   0.24016
C     1.53979   1.24255   0.12707
O     0.74725   1.49312   1.04179
C     1.17203   0.56958  -1.16064
C     2.25335   0.23528  -2.14575
N    -0.07345   0.51127  -1.63501
C    -1.30019   0.45404  -1.03755
C    -2.25083  -0.27831  -1.90123
C    -3.70340  -0.34236  -1.52215
O    -1.83748  -0.84876  -2.92091
C    -1.77385   1.49386  -0.09274
C    -1.47991   2.84265  -0.36580
C    -1.94966   3.86011   0.46514
C    -2.73173   3.55120   1.58311
C    -3.03628   2.21437   1.85831
C    -2.56453   1.19479   1.02867
C    -0.57927  -1.47041   0.23365
O    -1.77300  -1.89207   0.60616
C    -1.74578  -3.07087   1.43646
C     0.65835  -1.49528   0.14042
Br    2.31005  -2.23473   0.46885
H     4.44979   2.29131   1.35090
H     3.21403   1.43099   2.31736
H     2.88342   3.07298   1.71545
H     3.49650   1.36092  -0.51332
H     3.02435  -0.39472  -1.67711
H     1.84035  -0.31676  -3.00143
H     2.75105   1.14161  -2.53180
H    -0.13461  -0.00248  -2.52668
H    -3.82276  -0.90728  -0.58600
H    -4.11513   0.66316  -1.35193
H    -4.25971  -0.84779  -2.32206
H    -0.86994   3.09163  -1.23667
H    -1.70496   4.90059   0.23723
H    -3.10028   4.34662   2.23519
H    -3.64150   1.96008   2.73205
H    -2.78738   0.15535   1.26513
H    -2.79119  -3.31049   1.66758
H    -1.18819  -2.86712   2.36345
H    -1.27579  -3.90463   0.89262
