29
Generated by autodE on: 2022-06-22. E = -634.408970 Ha
C    -1.06335   3.90551   0.94072
C    -0.70752   2.54566   1.42909
N    -0.45662   1.54331   0.78989
C    -0.13385   0.41575   0.23247
C     1.29717   0.18290  -0.05594
C     1.84479  -1.11602  -0.08521
C     3.20833  -1.31062  -0.31193
C     4.05926  -0.21829  -0.50926
C     3.53023   1.07668  -0.47252
C     2.16782   1.27573  -0.25086
C    -1.21073  -0.56172  -0.03332
C    -2.38050  -0.55692   0.75405
C    -3.41534  -1.45788   0.50502
C    -3.31165  -2.38328  -0.53980
C    -2.16183  -2.39039  -1.33600
C    -1.12287  -1.49102  -1.08951
H    -0.33059   4.62692   1.33590
H    -2.03789   4.19487   1.36497
H    -1.10167   3.98059  -0.15998
H     1.20467  -1.98060   0.09288
H     3.60998  -2.32684  -0.32457
H     5.12546  -0.37433  -0.68876
H     4.18294   1.93962  -0.62568
H     1.76544   2.29100  -0.23702
H    -2.47319   0.16061   1.57234
H    -4.30902  -1.43957   1.13373
H    -4.12238  -3.08907  -0.73447
H    -2.07364  -3.09818  -2.16394
H    -0.24400  -1.49939  -1.73517
