20
Generated by autodE on: 2022-06-22. E = -457.715330 Ha
C    -2.92951   0.20164  -1.21321
N    -1.74660   0.38926  -0.38922
C    -1.85727   1.06679   0.83167
C    -0.83112   1.18846   1.68857
C     0.53656   0.60795   1.42551
C     0.55620  -0.12141   0.09208
C     1.77545  -0.78312  -0.39963
N     2.85819  -0.71910   0.41569
O     1.84398  -1.37407  -1.49677
C    -0.55113  -0.18601  -0.69996
H    -3.42137   1.16688  -1.40938
H    -2.63752  -0.24222  -2.17323
H    -3.65986  -0.46597  -0.72520
H    -2.84187   1.49308   1.03247
H    -0.99314   1.73881   2.61823
H     0.82672  -0.07087   2.25362
H     1.30156   1.41123   1.44776
H     3.71475  -1.17475   0.12063
H     2.83668  -0.26747   1.32104
H    -0.51042  -0.71971  -1.65071
