23
Generated by autodE on: 2022-05-25. E = -514.038355 Ha
C     0.27341   1.75011  -1.62947
C    -0.06129   1.25839  -0.21512
C    -0.67751   2.39780   0.59445
C     1.21428   0.67070   0.43349
C     1.11295  -0.77098   0.02374
C     2.23698  -1.67105   0.08238
N     3.16349  -2.36851   0.14239
N    -0.03290  -1.19077  -0.36485
C    -0.97343  -0.03658  -0.28446
C    -1.98468  -0.08181  -1.43075
C    -1.71077  -0.21675   0.98196
N    -2.29932  -0.37437   1.96947
H    -0.61351   2.15506  -2.13670
H     0.69893   0.95197  -2.25607
H     1.01843   2.55663  -1.55834
H    -1.63727   2.71240   0.15568
H    -0.85084   2.11360   1.64238
H    -0.00231   3.26690   0.58709
H     2.14605   1.14740   0.09850
H     1.18530   0.72413   1.53598
H    -2.63768   0.80164  -1.39578
H    -1.45957  -0.10294  -2.39375
H    -2.60635  -0.98452  -1.35171
