37
Generated by autodE on: 2022-06-17. E = -746.946093 Ha
C    -2.62276   2.77665   0.78498
N    -1.87448   1.66143   0.24293
C    -2.38623   0.41973   0.21451
O    -3.53900   0.15513   0.59074
C    -1.45928  -0.69054  -0.26363
N    -0.54257  -0.34826  -1.35871
C     0.84794  -0.66424  -1.00557
C     1.58030  -1.27556  -2.20592
C     1.57360   0.60570  -0.50195
O     0.94580   1.60193  -0.10207
N     2.91487   0.60694  -0.51138
C     3.68202   1.71412   0.02849
C     0.68037  -1.69773   0.14950
C     1.89031  -1.94191   1.03962
C    -0.56527  -1.19703   0.89260
C    -1.24599  -2.21779   1.79136
H    -3.62147   2.83412   0.32685
H    -2.08371   3.70908   0.57285
H    -2.76044   2.69151   1.87703
H    -0.86567   1.75848   0.07019
H    -2.13758  -1.50688  -0.56683
H    -0.63827   0.61631  -1.66092
H     0.98496  -2.11377  -2.59431
H     1.70813  -0.53786  -3.01301
H     2.57287  -1.66930  -1.93790
H     3.40787  -0.23511  -0.78356
H     4.74945   1.51502  -0.12646
H     3.49659   1.84391   1.10741
H     3.41866   2.65577  -0.47637
H     0.41507  -2.64757  -0.34761
H     2.78023  -2.21439   0.45096
H     1.68818  -2.77233   1.73328
H     2.13635  -1.05492   1.64428
H    -0.26360  -0.32694   1.50034
H    -0.59573  -2.51013   2.63016
H    -1.50486  -3.12762   1.22480
H    -2.17652  -1.80680   2.21332
