12
Generated by autodE on: 2022-06-17. E = -157.300302 Ha
C    -1.92155  -0.31526  -0.25724
C    -0.49271  -0.41487   0.18373
C     0.49266   0.41501  -0.18356
C     1.92158   0.31516   0.25712
H    -2.60068  -0.20522   0.60688
H    -2.08229   0.54121  -0.93084
H    -2.24219  -1.23146  -0.78446
H    -0.25178  -1.24458   0.86311
H     0.25171   1.24477  -0.86286
H     2.08184  -0.53995   0.93255
H     2.60023   0.20245  -0.60705
H     2.24331   1.23228   0.78203
