25
Generated by autodE on: 2022-06-17. E = -589.585103 Ha
C     4.88995  -0.07772  -0.13688
N     3.63094   0.49107   0.28766
C     2.41941  -0.02639  -0.04369
O     2.29152  -1.07068  -0.72208
C     1.26490   0.70445   0.44456
N     0.07367   0.19719   0.12363
C    -1.16637   0.59631   0.38943
C    -1.36863   1.83708   1.18572
C    -2.18568  -0.29838  -0.16959
O    -1.85485  -1.29787  -0.84689
N    -3.48547  -0.01204   0.06653
C    -4.54865  -0.84748  -0.45123
H     5.55678  -0.25149   0.72267
H     5.41620   0.57942  -0.85007
H     4.69619  -1.03787  -0.62953
H     3.64660   1.35491   0.81977
H     1.33132   1.61223   1.04039
H     0.11684  -0.66879  -0.43929
H    -0.95531   1.72792   2.20577
H    -0.83652   2.68700   0.72014
H    -2.42433   2.11920   1.27772
H    -3.73012   0.78184   0.64494
H    -4.49246  -1.87328  -0.05088
H    -5.51353  -0.41177  -0.16419
H    -4.50600  -0.91560  -1.55015
