37
Generated by autodE on: 2022-06-17. E = -746.871694 Ha. Imaginary frequency = -420.9 cm-1
C    -4.66441   0.80972   1.07007
N    -3.62477   0.19278   0.27291
C    -2.37802   0.71246   0.20155
O    -2.08383   1.80187   0.73274
C    -1.37490  -0.10736  -0.48442
N    -0.19707   0.50003  -0.73320
C     0.95571  -0.17226  -0.97449
C     0.95916  -1.32513  -1.93541
C     2.14518   0.68483  -0.77777
O     2.04651   1.80810  -0.24284
N     3.34445   0.18706  -1.14868
C     4.57663   0.89310  -0.86330
C     0.75783  -1.40079   1.01028
C     1.49518  -0.48882   1.95707
C    -0.62474  -1.54332   1.10419
C    -1.34785  -2.79827   0.68703
H    -4.82667   1.85479   0.76470
H    -4.41451   0.80900   2.14481
H    -5.59988   0.25458   0.92800
H    -3.78497  -0.72808  -0.12188
H    -1.69169  -0.93130  -1.12097
H    -0.05532   1.37951  -0.22500
H     0.07282  -1.95866  -1.80463
H     0.96861  -0.96972  -2.98224
H     1.83455  -1.97350  -1.78997
H     3.39574  -0.74275  -1.54607
H     4.56834   1.90103  -1.30652
H     4.73943   1.00489   0.22180
H     5.41620   0.32924  -1.28817
H     1.33006  -2.22112   0.56529
H     1.03866   0.51461   1.98000
H     1.47116  -0.87725   2.99219
H     2.55306  -0.36782   1.68153
H    -1.11994  -0.95628   1.88640
H    -2.40148  -2.60163   0.42895
H    -0.86823  -3.27247  -0.18356
H    -1.35473  -3.54386   1.50347
