45
Generated by autodE on: 2022-06-01. E = -1420.109632 Ha
C    -1.61312   3.72321   2.27688
N    -1.13686   2.83963   1.23271
C    -1.59501   1.57333   1.14670
O    -2.50299   1.12046   1.84684
N    -1.00202   0.79531   0.13818
N    -0.13245   1.42084  -0.76494
C    -0.73187   1.81310  -2.04545
C     1.09134   0.63821  -0.78164
C     1.73705   0.66061  -2.10200
N     2.27095   0.70190  -3.12900
C     2.13642   1.27832   0.19237
O     1.88451   2.21128   0.91420
O     3.31665   0.70333   0.06542
C     4.38520   1.20117   0.89646
C     0.64606  -0.86242  -0.36420
C     0.75643  -1.73240  -1.53033
N     0.89925  -2.41646  -2.45565
C     1.38909  -1.46595   0.87481
C     0.91072  -2.91857   1.08787
C    -0.51516  -2.74226   1.67851
C    -0.71955  -1.21384   1.65607
C     0.68978  -0.73765   2.03760
C    -0.83827  -0.65980   0.20143
C    -1.97712  -1.31578  -0.61185
F    -2.17159  -0.70703  -1.79310
F    -1.76111  -2.61375  -0.88960
F    -3.12865  -1.23961   0.06950
H    -2.71146   3.71156   2.31338
H    -1.28144   4.74645   2.05798
H    -1.23661   3.43710   3.27449
H    -0.23960   3.02021   0.78811
H    -1.69986   2.27952  -1.82548
H    -0.09019   2.57020  -2.51603
H    -0.88195   0.97611  -2.74436
H     4.13053   1.05455   1.95505
H     4.54952   2.26791   0.69291
H     5.26910   0.61399   0.62652
H     2.47330  -1.36346   0.78442
H     0.92673  -3.51053   0.16275
H     1.58450  -3.41234   1.80120
H    -0.54233  -3.05866   2.73043
H    -1.28560  -3.31330   1.15194
H    -1.54131  -0.86353   2.28202
H     0.80536   0.35075   2.05731
H     1.00753  -1.13257   3.01193
