24
Generated by autodE on: 2022-06-01. E = -717.732143 Ha
C     3.49388   1.92276   0.04855
N     2.90908   0.62108  -0.19433
C     1.74942   0.24810   0.37012
O     1.09695   0.95514   1.14286
N     1.44902  -1.10351   0.08688
N     0.23402  -1.51280   0.20000
C     0.10081  -2.96145   0.47769
C    -0.90010  -0.77888   0.09601
C    -2.11669  -1.35380   0.53265
N    -3.12733  -1.81009   0.89379
C    -0.94473   0.51209  -0.61897
O    -0.11079   0.89143  -1.41853
O    -2.06484   1.17725  -0.33205
C    -2.28627   2.40451  -1.04552
H     4.23737   2.13287  -0.73026
H     2.71436   2.69718   0.01754
H     3.99041   1.97539   1.03246
H     3.42050  -0.07288  -0.73063
H    -0.63356  -3.40461  -0.20443
H     1.08961  -3.40635   0.34002
H    -0.22560  -3.08567   1.51946
H    -3.24092   2.79627  -0.67739
H    -1.47422   3.11560  -0.83797
H    -2.34251   2.21349  -2.12674
