21
Generated by autodE on: 2022-06-01. E = -702.345085 Ha
N     0.49204   3.13234  -1.03467
C     0.11430   2.16777  -0.50301
C    -0.40689   1.03554   0.17463
C     0.12115  -0.20464   0.28659
C     1.39507  -0.72782  -0.28214
F     2.14142   0.22336  -0.86548
F     1.15443  -1.67718  -1.21120
F     2.15298  -1.30390   0.67117
C    -0.91268  -1.08483   0.95549
C    -2.04357  -1.27834  -0.11141
C    -2.65826   0.14341  -0.23104
C    -1.80933   0.97870   0.77990
C    -1.57448  -0.05724   1.89795
H    -0.52513  -2.01230   1.39197
H    -1.64189  -1.65988  -1.05948
H    -2.77610  -2.00540   0.26708
H    -2.60029   0.55614  -1.24759
H    -3.71228   0.15491   0.08110
H    -2.23404   1.95062   1.05390
H    -2.50987  -0.42532   2.34358
H    -0.89744   0.30357   2.68539
