49
Generated by autodE on: 2022-06-20. E = -962.978208 Ha
C    -0.02417  -2.46310   2.33814
C    -0.21086  -1.27172   1.75266
C    -0.73745  -0.08213   2.50982
C     0.08773  -1.08632   0.27359
C     1.03066   0.07678  -0.00913
C     2.42170   0.11004   0.48665
C     3.04853  -1.05427   0.96554
C     4.36681  -1.01125   1.42568
C     5.07399   0.19402   1.42151
C     4.45769   1.36031   0.95072
C     3.14461   1.31858   0.48670
N     0.52732   1.04208  -0.68824
C    -0.88624   0.78673  -0.98182
C    -1.19535   1.12772  -2.44288
C    -1.77404   1.70973  -0.12177
O    -2.99340   1.51526  -0.02937
N    -1.15607   2.74155   0.47073
C    -1.84259   3.63139   1.38439
C    -1.15291  -0.71923  -0.59137
C    -1.29324  -1.65219  -1.76105
C    -2.44131  -2.11267  -2.29038
C    -2.43177  -3.07003  -3.45231
C    -3.81221  -1.71976  -1.80765
H    -0.24867  -2.61739   3.39799
H     0.35639  -3.32099   1.77570
H    -0.84454  -0.30770   3.58028
H    -0.06906   0.78774   2.40235
H    -1.72486   0.22797   2.13008
H     0.54149  -2.01811  -0.09339
H     2.50975  -2.00129   0.97568
H     4.84241  -1.92463   1.79010
H     6.10345   0.22714   1.78597
H     5.00514   2.30574   0.94883
H     2.65901   2.22460   0.12185
H    -0.98711   2.19180  -2.63127
H    -2.25236   0.93001  -2.66689
H    -0.57578   0.52299  -3.11917
H    -0.14191   2.76149   0.40691
H    -1.19811   4.49251   1.60146
H    -2.78105   3.99263   0.93974
H    -2.08719   3.12518   2.33413
H    -2.06436  -0.76623   0.01260
H    -0.35225  -1.98027  -2.21957
H    -1.41017  -3.34589  -3.75340
H    -2.98278  -3.99448  -3.20336
H    -2.94567  -2.63162  -4.32627
H    -4.41917  -1.35757  -2.65563
H    -4.34829  -2.59437  -1.39792
H    -3.79741  -0.92912  -1.04742
