49
Generated by autodE on: 2022-06-20. E = -962.890228 Ha. Imaginary frequency = -316.5 cm-1
C     1.26258  -2.35390   2.26021
C     0.29217  -1.56894   1.75132
C    -0.55584  -0.70061   2.64186
C     0.03734  -1.54295   0.29466
C     1.33471   0.15770  -0.19896
C     2.61622   0.25253   0.46344
C     2.88587   1.36682   1.28259
C     4.08728   1.43398   1.98659
C     5.02946   0.40513   1.86861
C     4.76219  -0.70284   1.05632
C     3.55147  -0.79297   0.37007
N     0.65822   0.89943  -0.89067
C    -0.58382   1.14290  -1.28738
C    -0.92910   1.10669  -2.74264
C    -1.44596   1.78925  -0.28249
O    -1.04476   2.09305   0.85756
N    -2.72421   2.04361  -0.67563
C    -3.73590   2.40482   0.29660
C    -1.20648  -1.20867  -0.25473
C    -1.64954  -1.73182  -1.52556
C    -2.89863  -1.68080  -2.05834
C    -3.19235  -2.28395  -3.40402
C    -4.08119  -1.05235  -1.37286
H     1.46339  -2.38481   3.33497
H     1.87966  -2.98681   1.61673
H    -0.20693  -0.74123   3.68359
H    -0.54493   0.34531   2.29868
H    -1.61125  -1.02141   2.62276
H     0.65580  -2.23757  -0.28457
H     2.13899   2.15911   1.36454
H     4.29406   2.29595   2.62496
H     5.97274   0.46456   2.41637
H     5.49622  -1.50689   0.96869
H     3.32467  -1.66406  -0.24677
H    -1.82053   0.47648  -2.90950
H    -0.10655   0.66014  -3.31716
H    -1.14092   2.11020  -3.14895
H    -3.05075   1.60013  -1.52689
H    -3.42439   3.29144   0.86698
H    -4.67068   2.63723  -0.22939
H    -3.92998   1.59037   1.01717
H    -1.94827  -0.74049   0.39346
H    -0.87298  -2.22395  -2.12485
H    -3.96124  -3.07507  -3.32805
H    -3.60394  -1.52705  -4.09661
H    -2.29434  -2.72023  -3.86680
H    -3.84371  -0.63429  -0.38642
H    -4.89156  -1.79290  -1.24485
H    -4.50641  -0.24204  -1.99210
