31
Generated by autodE on: 2022-10-20. E = -784.201016 Ha
C     4.45703  -0.00824   0.79982
O     3.07794  -0.39951   0.66413
C     2.27838   0.44844   0.03058
O     2.62180   1.51931  -0.42442
C     0.88251  -0.08465  -0.11701
N     0.67783  -1.16239  -0.78705
C    -0.77417  -1.35540  -0.91925
C    -1.11766  -1.34898  -2.41728
C    -1.13451  -2.70575  -0.27978
C    -1.39932  -0.18871  -0.18164
C    -2.84018   0.01158  -0.03562
C    -3.34252   1.20656   0.73389
O    -3.63763  -0.78797  -0.53647
C    -0.37476   0.57863   0.31166
O    -0.51458   1.68215   1.03792
C     0.57802   2.22674   1.79046
H     4.94598  -0.82040   1.34884
H     4.91515   0.11598  -0.19150
H     4.52947   0.93390   1.36130
H    -0.59751  -2.17165  -2.92953
H    -0.81789  -0.39685  -2.88014
H    -2.20117  -1.47539  -2.54445
H    -2.21664  -2.87298  -0.36162
H    -0.60475  -3.52019  -0.79523
H    -0.85536  -2.71863   0.78445
H    -4.44028   1.19260   0.74617
H    -2.95365   1.19258   1.76384
H    -2.98351   2.14087   0.27513
H     0.12478   2.87604   2.54934
H     1.23834   2.81614   1.14175
H     1.14552   1.42738   2.29046
