13
Generated by autodE on: 2022-10-20. E = -344.660254 Ha
C    -2.92308  -0.91481  -0.78030
O    -2.30015   0.08540   0.07787
C    -1.02179   0.12133   0.10434
C     0.19402   0.19853   0.16818
C     1.63025   0.27093   0.23094
C     2.38262  -0.71304  -0.62724
O     2.20235   1.09117   0.94527
H    -2.62232  -0.73732  -1.82194
H    -4.00288  -0.77791  -0.65840
H    -2.61702  -1.91724  -0.45102
H     3.46406  -0.57284  -0.49568
H     2.10951  -0.57082  -1.68554
H     2.09870  -1.74244  -0.35473
