31
Generated by autodE on: 2022-10-20. E = -784.066720 Ha. Imaginary frequency = -245.1 cm-1
C     4.28809  -0.47523   0.77899
O     2.87241  -0.64468   0.58778
C     2.29117   0.15658  -0.30820
O     2.87105   0.99991  -0.96927
C     0.83398   0.00264  -0.29671
N     0.14310  -0.73459  -0.99237
C    -0.79306  -1.41424  -1.53259
C    -1.41583  -0.95295  -2.81453
C    -1.21255  -2.71960  -0.93260
C    -1.66228   0.58665   1.07313
C    -2.80848  -0.09202   0.58978
C    -3.59041   0.60371  -0.50550
O    -3.20868  -1.16874   1.06578
C    -0.52454   1.04613   1.25868
O     0.39320   1.74855   1.85762
C     0.81806   2.95070   1.17555
H     4.57029  -1.18252   1.56697
H     4.83195  -0.70301  -0.14886
H     4.51018   0.55472   1.09311
H    -2.51115  -1.03152  -2.73765
H    -1.13699   0.08170  -3.05293
H    -1.09910  -1.61097  -3.64177
H    -1.13737  -3.52090  -1.68551
H    -2.26837  -2.64943  -0.62048
H    -0.60236  -2.97825  -0.05770
H    -4.11939  -0.14593  -1.11155
H    -2.95034   1.22828  -1.14398
H    -4.34567   1.25779  -0.03668
H     1.59309   3.40128   1.80614
H    -0.03651   3.63454   1.06483
H     1.22980   2.69612   0.18865
