32
Generated by autodE on: 2022-05-29. E = -1066.017507 Ha
C     2.91999  -2.08679   0.95743
C     1.60507  -1.86759   0.27576
O     1.21610  -2.54305  -0.65658
C     0.70998  -0.74114   0.84257
O    -0.64966  -1.13774   0.78744
C    -1.45232  -0.17693   0.12749
C    -2.30066  -0.84202  -0.98636
C    -2.15635  -2.32151  -1.14677
O    -3.03282  -0.15620  -1.67055
C    -2.40234   0.52085   1.15032
C    -2.18619   0.17318   2.59130
O    -3.24227   1.30800   0.76765
C    -0.47291   0.85606  -0.42884
C    -0.94280   1.98518  -1.27768
C     0.75373   0.52358   0.00762
C     2.05426   1.21940  -0.22345
F     1.95622   2.36077  -0.91443
F     2.66094   1.51514   0.94731
F     2.91523   0.42324  -0.90421
H     2.71372  -2.62531   1.89993
H     3.39975  -1.13738   1.23628
H     3.58426  -2.69502   0.33036
H     1.00650  -0.54191   1.88814
H    -2.42666  -2.82732  -0.20606
H    -1.10099  -2.56593  -1.33859
H    -2.79865  -2.66652  -1.96678
H    -1.14580   0.39300   2.87932
H    -2.88319   0.74893   3.21323
H    -2.33598  -0.90683   2.74269
H    -0.18134   2.76175  -1.39300
H    -1.85254   2.42543  -0.84590
H    -1.21786   1.60807  -2.27535
