10
Generated by autodE on: 2022-05-29. E = -453.905079 Ha
C     3.32919   0.28462  -0.01490
C     1.88385   0.15885  -0.00783
C     0.67698   0.05453  -0.00213
C    -0.77425  -0.06637   0.00345
F    -1.31344   0.40701   1.14347
F    -1.33909   0.61678  -1.01070
F    -1.17284  -1.34734  -0.11655
H     3.78148  -0.40733   0.71313
H     3.62904   1.31116   0.24926
H     3.73287   0.05110  -1.01288
