22
Generated by autodE on: 2022-07-26. E = -611.992283 Ha
C     3.87188  -1.07622   0.13536
C     2.50637  -0.98340  -0.47559
O     2.21000  -1.45132  -1.56873
C     1.49628  -0.27137   0.33767
O     0.33379  -0.19815  -0.19293
C    -0.84623   0.32566   0.15223
C    -1.86093   0.09900  -0.87774
C    -1.42844  -0.65397  -2.11551
O    -3.01631   0.50330  -0.74506
C    -0.98495   1.01966   1.42332
C    -2.31660   1.60596   1.80528
O    -0.00765   1.12093   2.17699
H     4.26297  -0.06347   0.33035
H     4.55059  -1.62010  -0.53353
H     3.81083  -1.58684   1.11106
H     1.68249   0.17094   1.31485
H    -0.60390  -0.13038  -2.62330
H    -1.05268  -1.65481  -1.85269
H    -2.28790  -0.74298  -2.79171
H    -2.65141   2.33803   1.05575
H    -2.21239   2.08838   2.78622
H    -3.08855   0.82329   1.84877
