22
Generated by autodE on: 2022-05-29. E = -611.994408 Ha
C     2.04241  -2.48193   0.26586
C     2.48334  -1.17999  -0.33731
O     3.61677  -0.97322  -0.76017
C     1.51217  -0.07893  -0.43433
O     0.33142  -0.30559   0.00953
C    -0.79723   0.41341   0.09762
C    -1.89045  -0.34636   0.70295
C    -1.60264  -1.76852   1.12587
O    -3.00613   0.15093   0.86239
C    -0.82066   1.78438  -0.38778
C    -2.09078   2.58507  -0.28671
O     0.20103   2.28286  -0.87986
H     2.88305  -3.18686   0.26230
H     1.68762  -2.32389   1.29660
H     1.19810  -2.89971  -0.30510
H     1.76974   0.88923  -0.86104
H    -1.28270  -2.37557   0.26498
H    -2.51538  -2.19495   1.56046
H    -0.78820  -1.80071   1.86580
H    -2.90329   2.10006  -0.84761
H    -1.89750   3.58689  -0.69286
H    -2.42796   2.65656   0.75759
