49
Generated by autodE on: 2022-06-26. E = -1335.810368 Ha
C     1.83122   4.05987   0.91444
O     1.66186   2.64815   1.11309
C     1.90018   1.86736   0.06778
O     2.37197   2.24860  -0.98341
C     1.67662   0.37158   0.37998
C     2.72754   0.09384   1.51499
C     4.04172  -0.48563   1.07471
O     2.51769   0.41524   2.66606
N     1.99679  -0.41527  -0.80243
C     0.97025  -1.41014  -1.11301
C     1.57644  -2.73971  -1.57783
C     0.12706  -0.92068  -2.23631
N    -0.45167  -0.53721  -3.16662
C     0.13504  -1.50040   0.23251
C     0.78076  -2.47817   1.22186
C    -1.28125  -2.01073  -0.04774
O    -1.50923  -3.20618  -0.11533
C    -2.39069  -1.04229  -0.26835
O    -3.55270  -1.65712  -0.48289
C    -4.80688  -0.97663  -0.33694
C    -2.14506   0.30381  -0.30932
O    -3.08288   1.16900  -0.75915
C    -3.44947   2.25263   0.10674
C    -0.78389   0.83440  -0.08849
O    -0.50075   1.94918  -0.50124
C     0.19228  -0.02098   0.73374
C    -0.25964   0.16774   2.19262
H     2.86427   4.28474   0.61442
H     1.60235   4.52897   1.87784
H     1.13480   4.41551   0.14139
H     4.73037  -0.49877   1.92903
H     3.90962  -1.50021   0.67356
H     4.45909   0.12133   0.25582
H     2.24596   0.18053  -1.58993
H     2.11362  -2.58332  -2.52433
H     0.79045  -3.49164  -1.73742
H     2.29064  -3.10431  -0.83019
H     0.23318  -2.46227   2.17275
H     1.83115  -2.23923   1.42243
H     0.73450  -3.49954   0.83037
H    -5.56104  -1.77075  -0.26506
H    -5.01596  -0.33982  -1.20525
H    -4.81500  -0.37322   0.58290
H    -4.17098   2.86162  -0.45206
H    -2.57880   2.86732   0.37420
H    -3.92582   1.86117   1.01988
H    -1.30260  -0.15916   2.30242
H    -0.19855   1.22793   2.47053
H     0.36039  -0.40450   2.88685
