23
Generated by autodE on: 2022-06-26. E = -646.324315 Ha
C     3.48015  -0.34132  -0.15865
O     2.26281   0.37640  -0.39193
C     1.14239  -0.15900   0.11717
O     1.13804  -1.23813   0.69874
C    -0.03779   0.66978  -0.05848
N    -1.28254   0.15506   0.19622
C    -1.84423  -1.02868   0.28988
C    -3.28951  -1.13838   0.66648
C    -1.17741  -2.24022  -0.04877
N    -0.81131  -3.29504  -0.38109
C    -0.10496   2.11447  -0.25900
C     1.13083   2.93355  -0.50888
O    -1.21798   2.66814  -0.20843
H     3.67452  -0.43893   0.91952
H     3.43261  -1.34263  -0.61081
H     4.27263   0.24959  -0.63259
H    -1.93845   0.95603   0.28239
H    -3.39092  -1.68015   1.62133
H    -3.84611  -1.70460  -0.09666
H    -3.73422  -0.13967   0.77838
H     1.60772   2.63130  -1.45298
H     1.87498   2.78388   0.28636
H     0.84210   3.99122  -0.56158
