26
Generated by autodE on: 2022-06-26. E = -689.460871 Ha
C    -2.98491   1.39249  -0.82961
O    -1.69327   1.72154  -0.30797
C    -0.72455   0.81836  -0.15923
C    -0.72541  -0.50771  -0.47373
O    -1.78463  -1.13394  -1.06642
C    -2.53098  -2.02319  -0.22895
C     0.48587  -1.32771  -0.25519
O     0.48459  -2.51031  -0.59255
C     1.69951  -0.71074   0.36016
C     2.88710  -1.59149   0.58824
C     1.71121   0.60741   0.67851
C     2.91016   1.27169   1.28166
C     0.50960   1.44549   0.43305
O     0.49041   2.63693   0.71009
H    -3.54844   2.33406  -0.81870
H    -3.49175   0.65452  -0.19176
H    -2.91119   1.01440  -1.85743
H    -3.34063  -2.43125  -0.84845
H    -2.96450  -1.47889   0.62655
H    -1.90323  -2.84741   0.14083
H     3.16594  -1.59955   1.65495
H     3.76426  -1.21180   0.03835
H     2.68683  -2.61998   0.26634
H     3.18538   0.78857   2.23367
H     3.78413   1.17674   0.61634
H     2.72311   2.33581   1.46756
