49
Generated by autodE on: 2022-06-26. E = -1335.766275 Ha. Imaginary frequency = -301.7 cm-1
C     1.65981   4.04701   1.19727
O     1.86058   2.62581   1.09301
C     1.30786   2.01327   0.05603
O     0.70022   2.56600  -0.83869
C     1.50118   0.52456   0.12339
C     2.91149   0.16199   0.62944
C     3.98515   0.27511  -0.42235
O     3.16533  -0.08420   1.78681
N     1.07944  -0.08670  -1.03924
C     0.95074  -1.43947  -1.13190
C     2.05593  -2.40090  -0.79917
C     0.09642  -1.87710  -2.19762
N    -0.60109  -2.27641  -3.03837
C    -0.15675  -1.55877   1.01527
C     0.51850  -2.65606   1.78694
C    -1.32608  -1.96366   0.24733
O    -1.66291  -3.14119   0.08974
C    -2.15946  -0.89102  -0.39925
O    -3.02138  -1.39582  -1.27757
C    -3.60080  -0.59117  -2.31144
C    -2.04303   0.41484  -0.01025
O    -2.96025   1.34713  -0.39821
C    -2.48929   2.47141  -1.14723
C    -1.07000   0.79121   1.02349
O    -1.14536   1.89757   1.55957
C     0.01259  -0.18656   1.42676
C     0.49265   0.08618   2.84012
H     2.03559   4.55112   0.29650
H     0.59033   4.26028   1.33038
H     2.22596   4.36305   2.08000
H     4.14151   1.35051  -0.61900
H     4.91831  -0.16034  -0.04272
H     3.69644  -0.18347  -1.37635
H     0.41521   0.47729  -1.57704
H     2.79113  -2.40122  -1.62163
H     1.64557  -3.41412  -0.70893
H     2.57714  -2.15681   0.13124
H     0.00977  -2.79750   2.75728
H     0.45986  -3.60783   1.24681
H     1.56920  -2.42569   2.00086
H    -4.41722   0.03016  -1.92325
H    -2.83405   0.04367  -2.77897
H    -3.98963  -1.30227  -3.05144
H    -3.38023   3.04971  -1.42572
H    -1.81450   3.09890  -0.55038
H    -1.96959   2.13956  -2.06064
H    -0.36304  -0.05114   3.52300
H     1.29251  -0.58858   3.14600
H     0.84378   1.11821   2.94826
