14
Generated by autodE on: 2022-06-17. E = -270.687342 Ha
C    -2.09349   0.75714   0.77517
C    -0.94838  -0.04680   0.23862
C    -1.27706  -1.47542  -0.07728
C     0.27234   0.52770   0.07406
C     1.46207  -0.13536  -0.42989
O     2.54765   0.42617  -0.55695
H    -2.92776   0.75739   0.05240
H    -1.80985   1.79567   0.99436
H    -2.48567   0.29006   1.69524
H    -1.64583  -1.97655   0.83387
H    -2.10749  -1.50861  -0.80279
H    -0.43839  -2.05504  -0.47956
H     0.40837   1.58226   0.33664
H     1.36425  -1.20840  -0.70892
