15
Generated by autodE on: 2022-07-27. E = -562.556852 Ha
C     2.99283  -2.09183  -0.92635
O     1.91179  -1.59443  -0.11439
C     1.15113  -0.65341  -0.64615
O     1.27679  -0.16822  -1.75335
C     0.07774  -0.22423   0.28307
C    -0.10038  -0.76753   1.57722
N    -0.23507  -1.22431   2.63873
N    -0.72710   0.72068  -0.17463
N    -1.72402   1.23801   0.47626
C    -2.40918   2.17945  -0.15412
N    -3.09209   3.01969  -0.59926
H     3.68545  -1.27461  -1.17128
H     3.49424  -2.85291  -0.31922
H     2.59561  -2.53463  -1.85033
H    -0.49366   1.03323  -1.13753
