29
Generated by autodE on: 2022-06-17. E = -833.218099 Ha. Imaginary frequency = -381.4 cm-1
C     3.75204  -1.80146  -0.52783
O     2.55587  -1.42520   0.18195
C     1.99670  -0.27384  -0.15323
O     2.41062   0.49898  -0.99100
C     0.72326  -0.03557   0.59660
C     0.59042  -0.62937   1.89792
N     0.48026  -1.11743   2.94599
N     0.22543   1.23695   0.45692
N    -1.04045   1.34893   0.85954
C    -1.62107   2.53031   0.66160
N    -2.21514   3.53119   0.55513
C    -1.90514  -0.29178  -0.11510
C    -2.69845   0.52306  -1.05208
O    -2.32508   0.94513  -2.13588
C    -0.77030  -1.09223  -0.49142
C    -0.22616  -1.00715  -1.90074
C    -0.72249  -2.48461   0.10284
H     4.05056  -2.76991  -0.11280
H     4.53793  -1.05162  -0.36361
H     3.53784  -1.89066  -1.60183
H     0.53296   1.73016  -0.39290
H    -2.46599  -0.62499   0.76019
H    -3.72181   0.75917  -0.67924
H     0.65108  -1.66038  -2.01126
H     0.03747   0.01371  -2.19941
H    -0.99686  -1.36193  -2.60462
H    -1.32961  -3.15359  -0.53009
H     0.30385  -2.87855   0.10843
H    -1.13073  -2.51946   1.12128
