48
Generated by autodE on: 2022-06-21. E = -1132.120132 Ha
C     0.44812  -0.44790  -3.06295
O    -0.47303   0.25415  -2.23908
C    -0.41311   0.09073  -0.84341
C    -1.10726  -1.18778  -0.38841
O    -1.52678  -2.01523  -1.18057
C    -1.20684  -1.36916   1.08683
C    -1.16358  -2.78171   1.57401
C    -1.41101  -0.26604   1.85771
C    -1.59216  -0.27559   3.34374
C    -1.70098   1.02520   1.18274
O    -2.44231   1.83894   1.70994
C    -1.10345   1.35207  -0.20540
O    -2.08339   1.94705  -1.00584
C    -3.23088   1.16102  -1.30589
C     0.12143   2.34727  -0.05068
C     0.03881   3.27720   1.16154
C     0.29835   3.19169  -1.31986
N     1.27272   1.46140   0.10457
C     1.01821   0.26026  -0.25716
C     2.02727  -0.81546  -0.10625
C     3.25823  -0.50047   0.50624
C     4.23421  -1.47450   0.69444
C     4.00447  -2.79203   0.27841
C     2.79128  -3.11921  -0.32895
C     1.81174  -2.14123  -0.52226
H     1.49150  -0.17682  -2.83337
H     0.22631  -0.14004  -4.09389
H     0.32582  -1.53832  -2.98587
H    -1.46137  -2.87869   2.62397
H    -0.14542  -3.18984   1.45284
H    -1.82729  -3.40058   0.95096
H    -1.12190   0.61589   3.78611
H    -2.66317  -0.23075   3.60298
H    -1.15947  -1.17060   3.80581
H    -3.93378   1.81997  -1.83353
H    -3.72367   0.77925  -0.39612
H    -2.97390   0.31496  -1.96139
H     0.88780   3.97596   1.13748
H     0.08195   2.72235   2.10926
H    -0.89469   3.85562   1.13870
H    -0.52129   3.91687  -1.41215
H     0.31952   2.56435  -2.21921
H     1.24656   3.74493  -1.24900
H     3.43246   0.52329   0.83589
H     5.17970  -1.20785   1.17230
H     4.76889  -3.55781   0.42884
H     2.59925  -4.14217  -0.65964
H     0.88523  -2.43744  -1.00635
