22
Generated by autodE on: 2022-06-21. E = -442.579611 Ha
C    -3.17478  -1.75922  -0.02763
C    -2.65147  -0.36922   0.20981
C    -3.41195   0.53639   1.13919
N    -1.59975   0.03934  -0.38076
C    -0.63219   0.47422  -1.03409
C     0.74148   0.33267  -0.50112
C     1.03236  -0.37856   0.68136
C     2.34478  -0.48745   1.13706
C     3.38792   0.11658   0.42166
C     3.11372   0.82550  -0.75184
C     1.79851   0.92826  -1.21141
H    -2.54045  -2.31475  -0.73170
H    -3.22502  -2.31767   0.92262
H    -4.20234  -1.71550  -0.42896
H    -2.93222   1.52074   1.22632
H    -3.48179   0.08453   2.14331
H    -4.44564   0.67275   0.77614
H     0.21710  -0.84730   1.23884
H     2.56128  -1.04260   2.05312
H     4.41630   0.03132   0.78114
H     3.92638   1.29569  -1.31040
H     1.57040   1.47448  -2.12975
