48
Generated by autodE on: 2022-06-21. E = -1132.059295 Ha. Imaginary frequency = -321.5 cm-1
C    -0.93947  -1.09851  -3.02582
O    -0.04887  -0.49137  -2.08782
C    -0.58950  -0.24367  -0.84665
C    -0.73036  -1.41770   0.06557
O    -0.28551  -2.51928  -0.26604
C    -1.37846  -1.17474   1.36689
C    -1.30977  -2.26541   2.39519
C    -2.09410  -0.02941   1.56503
C    -2.85447   0.18001   2.83815
C    -2.17249   1.06236   0.53753
O    -2.87628   2.08514   0.75611
C    -1.44509   0.86497  -0.67491
O    -1.44563   1.81952  -1.66504
C    -2.71148   2.13413  -2.24568
C     0.35374   2.19571   1.24297
C    -0.06108   2.22237   2.67663
C     0.17120   3.42256   0.41800
N     1.05321   1.20072   0.79328
C     1.18397   0.18535   0.12011
C     2.31015  -0.65599  -0.23406
C     3.03576  -0.41065  -1.41382
C     4.08613  -1.25839  -1.76267
C     4.41283  -2.35081  -0.95036
C     3.68291  -2.59855   0.21649
C     2.62481  -1.76261   0.57587
H    -1.31545  -2.06283  -2.65030
H    -0.35947  -1.26942  -3.94272
H    -1.79128  -0.43782  -3.25240
H    -0.92848  -1.87679   3.35337
H    -0.65453  -3.07841   2.05753
H    -2.30659  -2.69098   2.60171
H    -3.39347   1.13396   2.81982
H    -3.57976  -0.63539   2.99712
H    -2.17706   0.16775   3.70783
H    -2.50816   2.77328  -3.11633
H    -3.35676   2.67077  -1.53577
H    -3.22858   1.21988  -2.58333
H     0.55858   2.95699   3.21930
H     0.03843   1.24070   3.15508
H    -1.10335   2.57148   2.73813
H    -0.91177   3.63310   0.36978
H     0.56391   3.30202  -0.59760
H     0.65360   4.28262   0.91155
H     2.76985   0.43896  -2.04441
H     4.65452  -1.06466  -2.67509
H     5.23654  -3.01148  -1.22983
H     3.93471  -3.45154   0.85053
H     2.04502  -1.95268   1.48060
