49
Generated by autodE on: 2022-06-22. E = -1092.213408 Ha
C     1.01707  -0.62081   3.46153
C     0.47108  -0.52777   2.07925
N    -0.60814   0.08920   1.77855
C    -0.87966  -0.07494   0.32234
C    -1.46483   1.19267  -0.29125
C    -1.59752   2.37950   0.43695
C    -2.10857   3.53328  -0.16975
C    -2.48782   3.51368  -1.51380
C    -2.35566   2.32954  -2.24954
C    -1.85107   1.17948  -1.64091
C    -1.92083  -1.19983   0.19262
C    -3.14143  -1.04119   0.87297
C    -4.13774  -2.01413   0.80084
C    -3.93591  -3.17172   0.03939
C    -2.73113  -3.33802  -0.64453
C    -1.73072  -2.36006  -0.56851
C     0.51760  -0.42736  -0.27313
C     1.35597   0.82637  -0.57418
C     2.82675   0.50571  -0.62748
C     3.78879   1.32028  -1.37660
N     3.29259   2.41141  -2.01907
O     5.00797   1.05478  -1.44774
C     3.31322  -0.54494   0.09780
N     2.56536  -1.35848   0.87966
C     3.13438  -2.55096   1.48430
C     1.11807  -1.23366   0.88815
H     0.42404  -0.01561   4.15991
H     2.06623  -0.28614   3.48442
H     1.00950  -1.67093   3.79872
H    -1.29794   2.39615   1.48469
H    -2.20741   4.45192   0.41403
H    -2.88559   4.41426  -1.98774
H    -2.64925   2.30256  -3.30180
H    -1.75528   0.25697  -2.21868
H    -3.30973  -0.13807   1.46214
H    -5.07838  -1.86758   1.33747
H    -4.71542  -3.93486  -0.02192
H    -2.56047  -4.23396  -1.24640
H    -0.80421  -2.51800  -1.12006
H     0.44978  -1.02834  -1.18628
H     1.00705   1.24656  -1.52821
H     1.15552   1.60007   0.18765
H     2.33446   2.71717  -1.90816
H     3.94325   3.02360  -2.49828
H     4.38168  -0.76929   0.07494
H     2.84843  -3.46103   0.92661
H     4.22939  -2.47248   1.49162
H     2.78874  -2.66572   2.52203
H     0.70459  -2.25822   0.87726
