29
Generated by autodE on: 2022-06-22. E = -634.408966 Ha
C    -2.49372  -3.31765   0.15090
C    -1.76870  -2.25466   0.89832
N    -1.04077  -1.37975   0.47325
C    -0.27631  -0.38064   0.15104
C    -0.93232   0.91184  -0.14073
C    -0.28200   2.14154   0.08896
C    -0.93732   3.35075  -0.14986
C    -2.25565   3.36482  -0.61680
C    -2.91605   2.15130  -0.83900
C    -2.26381   0.94080  -0.60597
C     1.18533  -0.60050   0.13483
C     1.75760  -1.61274   0.93273
C     3.13159  -1.84981   0.91294
C     3.96983  -1.08603   0.09261
C     3.41352  -0.08682  -0.71242
C     2.03858   0.15461  -0.69517
H    -3.57194  -3.22158   0.35539
H    -2.19333  -4.30155   0.54471
H    -2.31825  -3.28555  -0.93850
H     0.73638   2.15408   0.47841
H    -0.41409   4.29097   0.04104
H    -2.76473   4.31290  -0.80479
H    -3.94590   2.14685  -1.20442
H    -2.78608   0.00040  -0.79549
H     1.11393  -2.21592   1.57680
H     3.55206  -2.63549   1.54554
H     5.04617  -1.27196   0.07741
H     4.05432   0.50788  -1.36812
H     1.62271   0.92406  -1.34650
