46
Generated by autodE on: 2022-06-21. E = -1052.871994 Ha
C     1.99931  -2.40709  -1.94114
N     1.17900  -2.25376  -0.75089
C     0.55568  -3.35785  -0.21130
C    -0.50154  -3.31095   0.62908
C    -1.11569  -2.00139   1.03460
C    -0.85248  -0.89660  -0.02448
C    -1.74704  -0.93531  -1.26362
N    -2.25857  -2.12746  -1.60903
O    -1.93530   0.09156  -1.92583
C    -0.84364   0.48012   0.64520
C    -2.06948   1.22778   1.00024
C    -1.96755   2.55429   1.46088
C    -3.10622   3.27693   1.81092
C    -4.37185   2.68610   1.71330
C    -4.48629   1.36865   1.26188
C    -3.34608   0.64567   0.90424
N     0.32613   0.90461   0.96607
C     1.33775  -0.07321   0.56348
C     2.62609   0.53741   0.07420
C     3.85660  -0.04642   0.40467
C     5.05050   0.46445  -0.11396
C     5.02653   1.57229  -0.96650
C     3.80237   2.16467  -1.29753
C     2.61085   1.64809  -0.78327
C     0.62801  -0.94000  -0.51044
H     2.49964  -3.38551  -1.91963
H     1.40536  -2.34034  -2.87274
H     2.77565  -1.62921  -1.97147
H     0.99214  -4.31337  -0.51457
H    -0.90253  -4.24153   1.03400
H    -2.19803  -2.10871   1.20037
H    -0.70364  -1.65366   1.99894
H    -2.78842  -2.20322  -2.47229
H    -1.98126  -2.97326  -1.11658
H    -0.97994   3.00996   1.53673
H    -3.00849   4.30726   2.16096
H    -5.26511   3.25219   1.98770
H    -5.46910   0.89826   1.18462
H    -3.46483  -0.38157   0.55948
H     1.56226  -0.71011   1.43588
H     3.87639  -0.91158   1.07245
H     6.00219  -0.00243   0.15156
H     5.95844   1.97506  -1.37054
H     3.77665   3.03213  -1.96175
H     1.65674   2.10835  -1.05000
H     0.67450  -0.37052  -1.45106
