26
Generated by autodE on: 2022-06-21. E = -595.074074 Ha
C     0.83122   1.53313  -0.20635
N    -0.12441   1.26236   0.51601
C    -1.22090   0.99238   1.12675
C    -2.23633   0.10616   0.56522
C    -3.42809  -0.11787   1.28402
C    -4.41998  -0.95376   0.77062
C    -4.24411  -1.57997  -0.46873
C    -3.06324  -1.36306  -1.19036
C    -2.06618  -0.53213  -0.68135
C     2.10829   0.81082  -0.23599
C     3.13995   1.28740  -1.06378
C     4.36353   0.61773  -1.12318
C     4.56341  -0.53692  -0.36001
C     3.54072  -1.02320   0.46598
C     2.32067  -0.35413   0.53076
H    -1.40076   1.46417   2.09920
H    -3.56892   0.37357   2.25010
H    -5.33797  -1.11721   1.34054
H    -5.02096  -2.23506  -0.86960
H    -2.91754  -1.85034  -2.15765
H    -1.14449  -0.37479  -1.24654
H     2.96641   2.18778  -1.65699
H     5.16182   0.99409  -1.76667
H     5.51964  -1.06337  -0.40812
H     3.70078  -1.92640   1.05946
H     1.51901  -0.72692   1.17323
