37
Generated by autodE on: 2022-05-31. E = -1223.614310 Ha
C     4.91847  -0.31799   0.20953
O     3.52355  -0.64748   0.05534
C     2.74875   0.28201  -0.46900
O     3.10465   1.38234  -0.83202
C     1.29351  -0.13069  -0.54215
N     0.63281   0.20607  -1.78790
C    -0.65500  -0.42918  -1.43666
C    -1.72478  -0.43579  -2.49367
C    -0.08154  -1.80702  -1.08184
O    -0.51422  -2.90906  -1.26845
O     1.11985  -1.56149  -0.47892
C    -1.04285   0.20981  -0.02948
C    -1.96210  -0.70823   0.74257
O    -1.60465  -1.71074   1.32338
O    -3.23251  -0.31918   0.64473
C    -4.21695  -1.14091   1.29502
C    -1.55982   1.69452  -0.10940
C    -1.80646   2.13259   1.32922
C    -0.59145   2.31414   1.86271
C     0.38918   2.00902   0.74182
O    -0.34676   2.40075  -0.42302
C     0.38353   0.45360   0.58468
F     0.65681  -0.15204   1.78300
H     5.38442  -1.19957   0.66247
H     5.36584  -0.10594  -0.77138
H     5.02725   0.55696   0.86538
H     0.52402   1.22118  -1.85774
H    -2.61366  -0.96732  -2.12521
H    -1.36003  -0.94420  -3.39719
H    -2.01438   0.59014  -2.76005
H    -4.19358  -2.15883   0.88141
H    -5.18367  -0.66665   1.09306
H    -4.02551  -1.17643   2.37669
H    -2.34058   1.88316  -0.85078
H    -2.78209   2.18948   1.80841
H    -0.31895   2.55691   2.88873
H     1.38040   2.47054   0.77409
