18
Generated by autodE on: 2022-05-31. E = -588.777258 Ha
C     3.57126   1.35622  -0.10444
O     2.14854   1.18060  -0.03674
C     1.69741  -0.08050  -0.08780
O     2.39759  -1.07286  -0.18178
C     0.24838  -0.11619  -0.01675
N    -0.60133   0.90339   0.08129
C    -1.89020   0.46996   0.11959
C    -3.08699   1.33900   0.22880
C    -1.83805  -0.94802   0.03732
O    -2.67473  -1.84031   0.02801
O    -0.44849  -1.25549  -0.04690
H     3.96321   0.95304  -1.04942
H     3.74350   2.43715  -0.05252
H     4.06113   0.85151   0.74079
H    -0.30234   1.87946   0.12161
H    -3.98490   0.70612   0.23092
H    -3.07972   1.93140   1.15884
H    -3.16150   2.04205  -0.61737
