18
Generated by autodE on: 2022-07-26. E = -588.777575 Ha
C     3.37716   0.30546   1.77668
O     2.08806  -0.11239   1.30292
C     1.49119   0.69424   0.42190
O     1.95436   1.74237  -0.00042
C     0.19910   0.18527   0.00217
N    -0.60914   0.77689  -0.87252
C    -1.74416   0.05355  -1.06576
C    -2.85504   0.42491  -1.97534
C    -1.63347  -1.09450  -0.23470
O    -2.34140  -2.06523  -0.00736
O    -0.37203  -0.94904   0.41810
H     3.30169   1.27460   2.29065
H     3.70586  -0.47107   2.47647
H     4.08550   0.38870   0.93973
H    -0.37986   1.66211  -1.32874
H    -2.51842   0.50279  -3.02248
H    -3.30845   1.39022  -1.69520
H    -3.63225  -0.34946  -1.92013
