37
Generated by autodE on: 2022-05-31. E = -1223.560051 Ha. Imaginary frequency = -277.3 cm-1
C     4.69874  -0.34044   0.81603
O     3.39075  -0.72680   0.35883
C     2.76282   0.13016  -0.43716
O     3.20637   1.19793  -0.82076
C     1.39408  -0.30054  -0.74670
N     0.69633   0.20306  -1.80612
C    -0.41668  -0.52075  -1.98597
C    -1.52808  -0.20990  -2.90845
C    -0.21362  -1.76514  -1.26599
O    -0.85213  -2.79463  -1.21716
O     0.98380  -1.59242  -0.56509
C    -1.06535   0.33394   0.43552
C    -1.97318  -0.72746   0.81598
O    -1.67506  -1.74925   1.41764
O    -3.23411  -0.47198   0.39815
C    -4.21087  -1.48311   0.67090
C    -1.50548   1.75586   0.02129
C    -1.73289   2.51973   1.34004
C    -0.51152   2.70203   1.85668
C     0.45223   2.06433   0.83732
O    -0.23939   2.31948  -0.39197
C     0.23217   0.53531   0.90641
F     0.79799  -0.16591   1.89847
H     4.63802   0.59337   1.39289
H     5.04670  -1.16106   1.45293
H     5.37704  -0.20468  -0.03799
H     0.79729   1.17782  -2.09189
H    -1.43722  -0.79417  -3.83960
H    -1.54187   0.85900  -3.15964
H    -2.48068  -0.48521  -2.43213
H    -3.92767  -2.42862   0.18563
H    -5.15538  -1.11273   0.25525
H    -4.31278  -1.64640   1.75382
H    -2.26401   1.83883  -0.76226
H    -2.70770   2.77025   1.75699
H    -0.21344   3.14891   2.80416
H     1.48890   2.41465   0.81710
