38
Generated by autodE on: 2022-06-17. E = -784.866632 Ha. Imaginary frequency = -435.0 cm-1
C    -4.88376  -1.25034   0.33189
O    -3.74478  -0.47468   0.72427
C    -3.30834   0.43730  -0.16589
O    -3.84223   0.62300  -1.24799
N    -2.24283   1.18381   0.28820
C    -0.86483   1.19404  -1.19601
C     0.04195   0.14798  -0.92230
C    -0.21023  -1.20814  -1.53969
C     1.38749   0.48933  -0.47216
C     2.47316  -0.32486  -0.49860
C     3.78739   0.09198  -0.05103
C     4.92558  -0.64662  -0.03406
C     6.21714  -0.06425   0.46898
C     5.01476  -2.07429  -0.49613
N    -0.81408  -0.37056   1.16174
N    -1.50138   0.72195   1.30219
C    -0.88582   1.77024   2.11243
H    -5.08861  -1.92666   1.17027
H    -5.75205  -0.60068   0.14986
H    -4.66375  -1.83008  -0.57638
H    -0.53058   2.22263  -1.04393
H    -1.62102   1.05745  -1.96926
H     0.14765  -2.02753  -0.89732
H    -1.28448  -1.36004  -1.72554
H     0.31503  -1.30357  -2.50586
H     1.51551   1.51253  -0.09855
H     2.35996  -1.34715  -0.87008
H     3.85338   1.12440   0.31493
H     6.99780  -0.10126  -0.31259
H     6.61028  -0.65163   1.31875
H     6.10285   0.98048   0.79446
H     5.75681  -2.17095  -1.30885
H     4.06057  -2.48033  -0.85671
H     5.37442  -2.72237   0.32313
H    -1.36501  -1.01344   0.58626
H    -0.37653   1.30157   2.96113
H    -0.15581   2.32267   1.49811
H    -1.66599   2.45675   2.46093
