47
Generated by autodE on: 2022-06-21. E = -1056.859074 Ha
C     5.43463   1.82923   0.76199
C     4.33275   1.74387  -0.01054
C     4.30065   2.29694  -1.41091
C     3.12442   1.09792   0.51505
C     1.96595   0.94934  -0.15183
C     0.75905   0.27361   0.42423
C     0.25620  -0.88785  -0.49252
C     0.22894  -2.23892   0.18075
C    -0.96900  -2.86063   0.55263
C    -0.94705  -4.09952   1.20304
C     0.26906  -4.72590   1.48767
C     1.46885  -4.10839   1.11442
C     1.44816  -2.87496   0.46113
O    -1.06296  -0.52958  -0.93819
C    -1.30125   0.83215  -0.70699
C    -0.82860   1.62285  -1.87119
N    -0.43003   2.18420  -2.80411
C    -2.79971   1.11908  -0.53957
O    -3.24766   2.24105  -0.63390
O    -3.49718   0.03834  -0.24675
C    -4.90011   0.22734   0.02248
C    -0.50046   1.18903   0.60428
C    -1.29025   0.71293   1.83263
C    -0.19285   2.67714   0.73952
H     6.35006   2.30602   0.40044
H     5.44617   1.42343   1.77824
H     4.07885   1.50401  -2.14454
H     3.50733   3.05515  -1.51973
H     5.26112   2.75867  -1.67975
H     3.19374   0.71135   1.53878
H     1.87655   1.31967  -1.17770
H     1.02517  -0.12551   1.41110
H     0.90723  -0.94787  -1.38012
H    -1.91776  -2.37207   0.32942
H    -1.88823  -4.57637   1.48776
H     0.28424  -5.69280   1.99620
H     2.42441  -4.59273   1.32981
H     2.38545  -2.39427   0.16809
H    -5.02889   0.88586   0.89280
H    -5.39671   0.66618  -0.85368
H    -5.29955  -0.77050   0.23266
H    -2.20470   1.30762   1.97918
H    -0.66216   0.84159   2.72592
H    -1.56676  -0.34717   1.76069
H     0.37270   3.07291  -0.11453
H     0.40592   2.84696   1.64627
H    -1.12745   3.25053   0.83120
