23
Generated by autodE on: 2022-06-21. E = -351.521382 Ha
C     3.57537   0.70327  -1.00884
C     2.45049   0.78187  -0.26437
C     2.38880   1.63945   0.97377
C     1.26195   0.02696  -0.65632
C     0.07439   0.02353  -0.00015
C    -1.07529  -0.74370  -0.43410
C    -2.29408  -0.79442   0.16052
C    -3.39524  -1.64074  -0.41291
C    -2.66155  -0.03898   1.40603
H     3.61668   0.08015  -1.90760
H     4.47868   1.25753  -0.73914
H     3.34598   2.14897   1.15346
H     2.14515   1.03576   1.86381
H     1.59973   2.40496   0.88795
H     1.35948  -0.58218  -1.56305
H    -0.03167   0.62843   0.90453
H    -0.93066  -1.34127  -1.34232
H    -3.07942  -2.17519  -1.32089
H    -3.74379  -2.38382   0.32679
H    -4.27622  -1.02152  -0.66056
H    -2.98902  -0.73880   2.19511
H    -3.52237   0.62454   1.20997
H    -1.84350   0.57219   1.80850
