24
Generated by autodE on: 2022-06-21. E = -705.266804 Ha
C     4.66875  -0.71075  -0.94033
O     3.70354   0.09226  -0.25406
C     2.40671  -0.26006  -0.41009
O     2.05511  -1.21534  -1.10162
C     1.52936   0.60620   0.31863
C     1.95690   1.68663   1.10401
N     2.32237   2.58663   1.75726
O     0.16675   0.43740   0.31088
C    -0.55274  -0.43282  -0.29488
C    -1.97390  -0.39936  -0.13604
C    -2.73503  -1.37280  -0.82198
C    -4.12146  -1.38468  -0.69915
C    -4.75854  -0.43173   0.10425
C    -4.00924   0.53839   0.78839
C    -2.62542   0.56082   0.67374
H     4.62635  -1.75488  -0.59598
H     5.64684  -0.27705  -0.70009
H     4.50191  -0.68113  -2.02748
H    -0.05418  -1.17884  -0.91753
H    -2.22478  -2.11050  -1.44519
H    -4.70973  -2.13669  -1.22867
H    -5.84661  -0.44249   0.20033
H    -4.51572   1.27739   1.41264
H    -2.03448   1.31077   1.20194
