47
Generated by autodE on: 2022-06-21. E = -1056.794565 Ha. Imaginary frequency = -301.6 cm-1
C     5.29461  -0.02590   0.92923
C     4.29742   0.74158   0.43920
C     4.56041   1.82323  -0.57611
C     2.92225   0.51588   0.88322
C     1.83206   1.18786   0.44408
C     0.47837   0.87273   0.87986
C    -0.00783  -0.70264  -0.61767
C     0.50472  -1.93481  -0.05662
C    -0.28671  -2.74659   0.78304
C     0.26100  -3.88638   1.36265
C     1.60161  -4.22557   1.12457
C     2.39099  -3.42466   0.29431
C     1.84739  -2.28452  -0.29918
O    -1.31947  -0.56227  -0.69134
C    -1.83552   0.64117  -1.08779
C    -1.21791   1.34565  -2.14085
N    -0.66609   1.93089  -2.98896
C    -3.21783   0.91200  -0.76454
O    -3.79914   1.93797  -1.10323
O    -3.78100  -0.04461  -0.00883
C    -5.11299   0.20965   0.45317
C    -0.60383   1.76815   0.79645
C    -1.73095   1.58400   1.77273
C    -0.48074   3.12419   0.17191
H     6.33117   0.11114   0.60889
H     5.09348  -0.81384   1.66154
H     4.00260   1.63493  -1.50859
H     4.22729   2.80645  -0.20424
H     5.62993   1.88951  -0.82040
H     2.78313  -0.27463   1.62838
H     1.94904   1.97843  -0.30125
H     0.39928   0.11783   1.66700
H     0.59399  -0.17282  -1.36058
H    -1.32501  -2.46914   0.97380
H    -0.35398  -4.51583   2.00968
H     2.02758  -5.11861   1.58760
H     3.43351  -3.68947   0.10520
H     2.45487  -1.66172  -0.95680
H    -5.13725   1.10482   1.09200
H    -5.80013   0.34802  -0.39394
H    -5.40373  -0.67375   1.03365
H    -2.63603   2.13103   1.47487
H    -1.41422   1.99142   2.75103
H    -1.97383   0.52288   1.92505
H     0.19996   3.14555  -0.68829
H    -0.08769   3.83002   0.92707
H    -1.46426   3.49857  -0.14783
