72
Generated by autodE on: 2022-07-04. E = -2188.742619 Ha
C     3.60611  -2.48661   3.19957
N     3.10054  -1.83418   2.00981
C     1.79442  -1.64421   1.83187
O     0.95857  -2.07593   2.62823
C     1.28250  -0.85854   0.54886
C     2.20999  -1.21198  -0.67472
O     3.41629  -1.46528  -0.55546
N     1.61972  -1.23135  -1.86982
C     2.36116  -1.49974  -3.08568
N    -0.05418  -1.33840   0.22739
C    -0.16829  -2.78759   0.03140
C    -1.12335  -0.62174   0.92405
C    -1.39795  -1.17800   2.37593
C    -1.94436  -2.58824   2.50627
O    -1.30719  -0.49198   3.37054
C    -2.46847  -0.80010   0.18049
C    -2.51817  -1.14685  -1.17767
C    -3.73505  -1.24239  -1.85271
C    -4.93655  -1.00545  -1.17902
C    -4.90372  -0.68979   0.18063
C    -3.68266  -0.59492   0.85234
C    -0.56168   0.91000   0.81576
C    -1.11845   1.42536  -0.55504
C    -2.37900   2.04736  -0.65636
C    -2.93841   2.37420  -1.89210
C    -2.26408   2.09030  -3.08064
C    -1.01214   1.48331  -3.00313
C    -0.45890   1.16430  -1.76216
C    -1.14910   1.87898   1.92165
F    -2.44952   1.61731   2.15293
F    -1.10884   3.17148   1.51002
F    -0.55603   1.89414   3.10898
C     1.08417   0.76019   0.82375
C     1.80135   1.76186  -0.15449
C     3.05848   1.50388  -0.72030
C     3.70039   2.43705  -1.54108
C     3.12556   3.68227  -1.78622
C     1.91294   3.98901  -1.16580
C     1.27241   3.04949  -0.35953
C     1.82767   1.15788   2.15874
F     3.15011   0.92855   2.01538
F     1.46126   0.50455   3.26353
F     1.71931   2.47243   2.41673
H     4.70129  -2.52020   3.14689
H     3.30839  -1.93153   4.10365
H     3.22133  -3.51509   3.29254
H     3.71635  -1.56197   1.24458
H     0.61090  -1.13513  -1.90269
H     1.68045  -1.39834  -3.93955
H     3.18849  -0.78215  -3.19675
H     2.78416  -2.51699  -3.08014
H    -1.17507  -3.03623  -0.31733
H     0.04447  -3.37302   0.93520
H     0.53089  -3.11108  -0.74975
H    -2.77889  -2.54841   3.22129
H    -2.29327  -3.04029   1.57478
H    -1.15573  -3.21615   2.94235
H    -1.59812  -1.32131  -1.72850
H    -3.74022  -1.49820  -2.91462
H    -5.88995  -1.07411  -1.70792
H    -5.83245  -0.51282   0.72787
H    -3.69218  -0.33875   1.91047
H    -2.97725   2.26920   0.21997
H    -3.92227   2.84796  -1.91538
H    -2.70640   2.34134  -4.04726
H    -0.44741   1.25113  -3.90878
H     0.52608   0.72460  -1.76605
H     3.58619   0.58157  -0.51895
H     4.66904   2.17848  -1.97495
H     3.62347   4.41132  -2.42956
H     1.45120   4.96893  -1.30583
H     0.33998   3.34652   0.10161
