40
Generated by autodE on: 2022-07-27. E = -973.430339 Ha
C     3.33777   1.86725   2.00003
N     2.96438   0.93772   0.95068
C     1.64967   0.62886   0.73769
O     0.78049   1.09973   1.49975
C     1.32087  -0.20306  -0.42520
C     2.19426  -1.09139  -1.18587
O     1.80023  -1.69390  -2.20741
N     3.46013  -1.32062  -0.72007
C     4.28618  -2.34213  -1.33318
N    -0.00815  -0.07684  -0.85884
C    -0.27021   0.41809  -2.22128
C    -0.96608  -0.20836   0.04576
C    -0.77453  -1.13461   1.21490
C     0.10873  -2.35481   1.08635
O    -1.44068  -0.95478   2.22471
C    -2.25215   0.49647  -0.07033
C    -2.27556   1.87517  -0.35248
C    -3.48968   2.55373  -0.44766
C    -4.69446   1.86555  -0.26841
C    -4.67992   0.49659   0.02030
C    -3.46797  -0.18426   0.12940
H     3.00825   2.89911   1.78694
H     2.88906   1.56108   2.95521
H     4.43071   1.86240   2.10452
H     3.60559   0.84715   0.16952
H     3.66586  -1.07561   0.24233
H     3.86098  -3.35445  -1.21548
H     5.27864  -2.32164  -0.86469
H     4.40187  -2.15190  -2.40975
H     0.41605  -0.10935  -2.89014
H    -1.30676   0.20465  -2.50418
H    -0.07712   1.49775  -2.27176
H     0.34125  -2.61226   0.04639
H    -0.42818  -3.18536   1.56940
H     1.05059  -2.20351   1.63414
H    -1.33607   2.41733  -0.46732
H    -3.49552   3.62588  -0.65608
H    -5.64522   2.39781  -0.34682
H    -5.61853  -0.04321   0.16362
H    -3.46188  -1.25208   0.35350
