40
Generated by autodE on: 2022-07-04. E = -973.434458 Ha
C     0.48061   2.42673   3.76971
N     1.13427   1.86936   2.60871
C     0.47160   1.10685   1.71076
O    -0.75935   0.88569   1.84129
C     1.25433   0.53672   0.61777
C     2.60186   0.96559   0.29763
O     3.35704   1.54181   1.12099
N     3.03577   0.75813  -0.97985
C     4.34387   1.20334  -1.41237
N     0.60150  -0.42457  -0.17041
C     1.28852  -1.71839  -0.37347
C    -0.66246  -0.27595  -0.52170
C    -1.25032   1.11544  -0.64420
C    -2.71536   1.27553  -0.35039
O    -0.57123   2.03062  -1.08102
C    -1.51599  -1.42144  -0.87988
C    -2.18856  -1.43756  -2.11524
C    -3.01840  -2.50861  -2.44802
C    -3.20129  -3.56209  -1.54610
C    -2.55074  -3.54194  -0.30755
C    -1.71068  -2.47994   0.02615
H     1.12263   3.20459   4.20405
H     0.28226   1.66960   4.54934
H    -0.48416   2.87870   3.49405
H     2.14512   1.93564   2.47395
H     2.34952   0.53869  -1.69303
H     4.53598   0.81437  -2.42088
H     4.42637   2.30438  -1.43976
H     5.12555   0.82658  -0.73638
H     1.10375  -2.37180   0.48842
H     2.36235  -1.52922  -0.44909
H     0.92920  -2.19480  -1.29228
H    -3.07414   0.54311   0.38247
H    -2.89396   2.29946   0.00493
H    -3.28257   1.13515  -1.28555
H    -2.04573  -0.61590  -2.82046
H    -3.52573  -2.51989  -3.41513
H    -3.85582  -4.39707  -1.80622
H    -2.70251  -4.35560   0.40516
H    -1.21860  -2.45316   0.99973
