32
Generated by autodE on: 2022-07-04. E = -1215.336612 Ha
F    -1.51745  -1.23405  -2.39182
C    -1.49786  -1.46483  -1.06459
F    -1.05618  -2.72024  -0.87974
F    -2.77613  -1.44963  -0.65221
C    -0.66902  -0.42742  -0.31694
C     0.68064  -0.45619  -0.24147
C     1.44437   0.61278   0.46240
C     1.33240   1.94930   0.04957
C     2.02555   2.95497   0.72483
C     2.83513   2.63694   1.81988
C     2.95831   1.30540   2.22940
C     2.27245   0.29608   1.55116
C     1.53985  -1.56090  -0.84458
F     1.12219  -1.94322  -2.06314
F     1.57077  -2.65850  -0.06420
F     2.81249  -1.15685  -0.99138
C    -1.46238   0.65277   0.33555
C    -1.37050   0.85796   1.72075
C    -2.09160   1.88620   2.32943
C    -2.90941   2.72117   1.56151
C    -3.01246   2.51512   0.18211
C    -2.29830   1.48264  -0.42865
H     0.69539   2.19788  -0.80068
H     1.93112   3.99196   0.39463
H     3.37236   3.42558   2.35174
H     3.58933   1.04994   3.08369
H     2.36580  -0.74140   1.87921
H    -0.72713   0.21082   2.31885
H    -2.01241   2.03666   3.40850
H    -3.46864   3.52965   2.03799
H    -3.64979   3.16323  -0.42370
H    -2.37592   1.33018  -1.50727
