72
Generated by autodE on: 2022-07-04. E = -2188.698401 Ha. Imaginary frequency = -229.1 cm-1
C     3.58311  -2.00537   3.20461
N     3.06761  -1.62136   1.90220
C     1.75191  -1.77333   1.61820
O     1.02183  -2.42214   2.37485
C     1.21215  -1.21910   0.32804
C     2.05277  -1.40474  -0.92905
O     1.69636  -0.92408  -2.01271
N     3.19302  -2.11663  -0.85033
C     4.07458  -2.22671  -1.99597
N    -0.15032  -1.44141   0.08219
C    -0.46844  -2.39154  -1.02262
C    -1.16379  -0.98337   0.90349
C    -1.18142  -1.46447   2.38046
C    -1.60918  -2.91905   2.50059
O    -1.10292  -0.74765   3.35034
C    -2.55886  -0.88946   0.39829
C    -2.89859  -0.81900  -0.97122
C    -4.21475  -0.63086  -1.38980
C    -5.24394  -0.49543  -0.45762
C    -4.93407  -0.54292   0.90504
C    -3.62065  -0.73344   1.32333
C    -0.40474   1.27852   0.84166
C    -1.09045   1.59766  -0.45714
C    -2.27796   2.35631  -0.55768
C    -2.86244   2.63579  -1.79449
C    -2.29571   2.16366  -2.97940
C    -1.13357   1.39363  -2.89991
C    -0.55008   1.11547  -1.66526
C    -1.08658   1.96719   2.02759
F    -2.38767   1.64168   2.15952
F    -1.06736   3.32278   1.82184
F    -0.54683   1.80508   3.23325
C     1.04237   1.15247   0.82242
C     1.82699   1.90353  -0.24087
C     3.03465   1.44999  -0.79281
C     3.75488   2.23294  -1.69720
C     3.29729   3.50364  -2.05315
C     2.12546   3.99427  -1.46980
C     1.40617   3.20715  -0.57118
C     1.84279   1.30244   2.12162
F     1.50119   0.47084   3.11339
F     3.16961   1.11297   1.92548
F     1.75715   2.56784   2.59940
H     3.13745  -1.39587   4.00845
H     3.36196  -3.06179   3.40957
H     4.67081  -1.86230   3.20751
H     3.57958  -0.89863   1.40958
H     3.48468  -2.51274   0.03644
H     3.58275  -2.75185  -2.82973
H     4.96936  -2.78701  -1.69924
H     4.37609  -1.22995  -2.35574
H     0.29282  -3.18110  -1.00940
H    -1.43427  -2.85863  -0.81265
H    -0.47732  -1.92531  -2.01054
H    -1.30315  -3.52533   1.64019
H    -2.70756  -2.94697   2.57409
H    -1.18782  -3.33266   3.42528
H    -2.13774  -0.88532  -1.73668
H    -4.42734  -0.57722  -2.45948
H    -6.27490  -0.34565  -0.78602
H    -5.72058  -0.42438   1.65347
H    -3.42545  -0.72574   2.39338
H    -2.77403   2.75606   0.32051
H    -3.77815   3.23114  -1.82202
H    -2.75557   2.38669  -3.94489
H    -0.67135   0.99352  -3.80576
H     0.34066   0.49699  -1.65825
H     3.44160   0.48374  -0.50960
H     4.68285   1.84219  -2.12101
H     3.85794   4.11355  -2.76539
H     1.76825   4.99851  -1.70957
H     0.50614   3.61316  -0.11186
