45
Generated by autodE on: 2022-06-04. E = -3778.516281 Ha
C     2.60135   3.25619   2.19164
O     1.96527   2.65754   1.05152
C     2.44170   1.48741   0.64504
O     3.43633   0.96077   1.09056
C     1.65960   0.95349  -0.57264
C     2.42805   1.49736  -1.77937
O     0.34933   1.50210  -0.63566
C    -0.59230   0.68015   0.05594
C    -0.37270   1.09045   1.55088
C    -1.07855   2.32495   2.02123
O     0.45307   0.50586   2.22377
C    -1.98777   0.97739  -0.44996
C    -2.18257   1.71407  -1.62422
C    -3.47500   1.93419  -2.10931
C    -4.58080   1.41739  -1.42934
C    -4.38940   0.68164  -0.25535
C    -3.10004   0.46457   0.23367
C    -0.12055  -0.76822  -0.27263
Br   -0.69780  -2.04903   1.10269
C    -0.60222  -1.31650  -1.67201
C    -0.12927  -2.76015  -1.78573
C     1.18905  -2.68036  -1.99372
C     1.49948  -1.19791  -2.03391
O     0.29282  -0.63750  -2.55458
C     1.43685  -0.61565  -0.55299
C     2.29304  -1.38847   0.33120
N     2.94212  -2.11935   0.95592
H     2.06180   4.19081   2.38011
H     2.51912   2.58477   3.05807
H     3.66003   3.45971   1.97811
H     1.88726   1.28620  -2.70850
H     2.51963   2.58726  -1.67106
H     3.43486   1.06101  -1.81847
H    -0.57311   2.71574   2.91352
H    -1.10163   3.08077   1.22295
H    -2.12422   2.08392   2.26907
H    -1.32093   2.10992  -2.16016
H    -3.61574   2.51164  -3.02592
H    -5.59009   1.58905  -1.81052
H    -5.24740   0.27676   0.28590
H    -2.96401  -0.10773   1.15271
H    -1.64780  -1.09781  -1.90310
H    -0.75102  -3.64202  -1.64539
H     1.92867  -3.47680  -2.05962
H     2.38258  -0.88751  -2.59569
