14
Generated by autodE on: 2022-06-04. E = -2973.384102 Ha
N     2.79916  -1.01721  -1.56958
C     1.77705  -1.00499  -1.00898
C     0.54356  -1.01508  -0.33231
C    -0.11624  -0.00578   0.27037
Br    0.34800   1.78703   0.42094
C    -1.46557  -0.60804   0.73536
C    -2.28053  -0.88222  -0.54780
C    -1.64515  -1.89485  -1.14353
C    -0.45109  -2.21743  -0.22116
O    -1.01926  -1.92929   1.06491
H    -1.96323  -0.10523   1.57042
H    -3.14321  -0.30288  -0.87333
H    -1.84543  -2.38341  -2.09604
H    -0.00423  -3.21442  -0.27494
