51
Generated by autodE on: 2022-06-06. E = -1374.983895 Ha
C     2.74069  -3.12631   1.44180
N     2.19817  -2.05595   0.62996
C     1.18738  -2.27221  -0.23363
O     0.71095  -3.40781  -0.40165
C     0.69308  -1.14072  -1.05067
C     1.04207   0.16692  -1.15121
C     1.79318   1.06632  -0.26711
C     2.65256   2.04210  -0.80630
C     3.30855   2.94465   0.02991
C     3.10078   2.90143   1.41333
C     2.23259   1.95029   1.95772
C     1.58120   1.03893   1.12589
C     0.25614   0.67855  -2.36015
O     0.13689  -0.48580  -3.17868
C    -0.34728  -1.36169  -2.14453
C    -1.68888  -0.62122  -1.78751
C    -1.23234   0.85614  -1.88797
C    -1.43163   1.34914  -0.48385
C    -0.96188   2.71679  -0.09377
O    -0.47895   3.48190  -0.90715
O    -1.10121   2.98377   1.19799
C    -0.59318   4.24963   1.65002
N    -1.96445   0.53491   0.34224
C    -2.34468  -0.69679  -0.37228
C    -3.87896  -0.69418  -0.50243
C    -1.93345  -1.90357   0.46729
O    -1.33244  -1.85193   1.52034
O    -2.35545  -3.03736  -0.08987
C    -2.12645  -4.25537   0.63907
H     1.98118  -3.53141   2.13039
H     3.10628  -3.95576   0.81654
H     3.57683  -2.73222   2.03216
H     2.56109  -1.11772   0.75283
H     2.80749   2.08563  -1.88619
H     3.98016   3.69148  -0.39929
H     3.60621   3.61760   2.06513
H     2.04719   1.92776   3.03374
H     0.87057   0.32515   1.54473
H     0.68079   1.52718  -2.90380
H    -0.46574  -2.38676  -2.50429
H    -2.41986  -0.88332  -2.55993
H    -1.78288   1.45943  -2.62202
H    -1.14646   5.07328   1.17655
H    -0.74342   4.26290   2.73518
H     0.47569   4.33559   1.41025
H    -4.21249  -1.59467  -1.03422
H    -4.35214  -0.66610   0.48990
H    -4.19390   0.19325  -1.07035
H    -2.65287  -4.22032   1.60367
H    -1.05210  -4.40399   0.80008
H    -2.53440  -5.05782   0.01387
