21
Generated by autodE on: 2022-06-06. E = -628.048842 Ha
C     3.36815   2.25329   0.50645
O     2.24408   1.54879  -0.05324
C     2.33251   0.21984  -0.08656
O     3.27697  -0.43931   0.30022
C     1.17204  -0.37107  -0.75089
N     0.14428  -0.84685  -0.32842
C    -0.99163  -1.34339   0.01231
C    -1.15268  -2.78693   0.38032
C    -2.16967  -0.45490   0.04276
O    -3.27988  -0.84359   0.36370
O    -1.89146   0.80440  -0.31574
C    -2.98707   1.72920  -0.31526
H     4.28151   2.02729  -0.06199
H     3.12211   3.31792   0.42528
H     3.50901   1.97450   1.56040
H    -1.51612  -2.88163   1.41622
H    -1.89627  -3.26700  -0.27598
H    -0.19712  -3.31910   0.28856
H    -3.76888   1.40222  -1.01627
H    -2.57011   2.69114  -0.63497
H    -3.41578   1.81799   0.69369
