51
Generated by autodE on: 2022-06-06. E = -1374.861500 Ha. Imaginary frequency = -350.9 cm-1
C     2.52345  -3.43391   0.67883
N     2.26169  -2.31424  -0.20392
C     1.12887  -2.23430  -0.93108
O     0.34450  -3.19264  -1.04478
C     0.85118  -0.98248  -1.65977
C     1.10667   0.33383  -1.45259
C     1.78156   1.07049  -0.37931
C     2.41762   2.29579  -0.66475
C     3.05649   3.02108   0.34184
C     3.06556   2.54408   1.65610
C     2.41974   1.33999   1.95678
C     1.77898   0.61276   0.95486
C     0.36416   1.03225  -2.62186
O     0.52759   0.06378  -3.66955
C    -0.04025  -1.03085  -2.91408
C    -1.40285  -0.44092  -2.53603
C    -1.15958   0.89553  -2.31814
C    -1.28286   1.30206  -0.25247
C    -1.16662   2.72877   0.08644
O    -1.65092   3.59335  -0.61755
O    -0.43184   2.93595   1.17104
C    -0.12128   4.30466   1.49094
N    -1.71280   0.32358   0.33279
C    -2.22043  -0.88277   0.22476
C    -3.61219  -1.07052  -0.31415
C    -1.54510  -1.93836   1.00017
O    -0.53459  -1.77811   1.66989
O    -2.16792  -3.11719   0.87464
C    -1.56449  -4.24308   1.52514
H     3.55599  -3.36720   1.04371
H     2.39829  -4.38561   0.14315
H     1.83953  -3.43346   1.54414
H     2.82619  -1.47827  -0.09842
H     2.42294   2.67813  -1.68660
H     3.54787   3.96580   0.09811
H     3.56078   3.11494   2.44487
H     2.39616   0.97356   2.98577
H     1.22545  -0.28825   1.21499
H     0.71344   2.02567  -2.91716
H    -0.04110  -1.97078  -3.47370
H    -2.34976  -0.96553  -2.61615
H    -1.86277   1.71928  -2.45899
H     0.40900   4.77661   0.65239
H     0.52448   4.26288   2.37424
H    -1.04289   4.86097   1.71211
H    -3.67460  -1.99491  -0.90369
H    -4.33627  -1.15487   0.51499
H    -3.90127  -0.21919  -0.94348
H    -2.25225  -5.08285   1.37172
H    -0.58932  -4.46384   1.06918
H    -1.43677  -4.04844   2.59953
