39
Generated by autodE on: 2022-05-31. E = -1619.185268 Ha
C    -3.14600   2.98410  -0.37524
O    -2.48031   1.74489  -0.69037
C    -1.66187   1.26038   0.21928
O    -1.47219   1.72412   1.31831
C    -0.93937  -0.04169  -0.23314
C    -1.77835  -0.76417  -1.30314
O    -1.85810  -0.36004  -2.43935
O    -2.39118  -1.82942  -0.82271
C    -3.21688  -2.56772  -1.74515
O    -0.83095  -0.87028   0.91192
C     0.38480  -0.71082   1.60279
C     0.77380  -2.05027   2.10228
N     1.03965  -3.09466   2.52469
C     0.23056   0.12216   2.82506
N     0.14990   0.68124   3.83589
C     1.43081  -0.11061   0.56114
C     2.15065   1.01468   1.14028
N     2.75346   1.88553   1.61103
C     2.38690  -1.20644  -0.01388
C     3.38275  -0.54302  -0.98327
C     2.50878  -0.22703  -2.22645
C     1.10052  -0.68813  -1.80176
C     1.43912  -1.94443  -0.97820
C     0.53189   0.25691  -0.70980
Cl    0.65639   1.99167  -1.20616
H    -3.78211   3.20663  -1.23840
H    -2.39904   3.77700  -0.23020
H    -3.75085   2.86634   0.53402
H    -2.60583  -2.94181  -2.57818
H    -3.63400  -3.40048  -1.16896
H    -4.01893  -1.92341  -2.13086
H     2.86075  -1.78981   0.78248
H     4.17938  -1.26124  -1.21930
H     3.86146   0.34679  -0.55211
H     2.81665  -0.82840  -3.09256
H     2.54118   0.82654  -2.52580
H     0.40994  -0.80889  -2.63924
H     1.97324  -2.69378  -1.57769
H     0.57734  -2.43519  -0.50809
