21
Generated by autodE on: 2022-07-27. E = -794.324030 Ha
C    -1.17896   3.40304  -1.36043
O    -0.79790   2.01542  -1.43070
C    -0.57780   1.40414  -0.28110
O    -0.63371   1.92501   0.81767
C    -0.27578  -0.03986  -0.42529
O     0.37234  -0.67387   0.49919
C     1.08903  -0.38625   1.56221
C     1.55015  -1.51851   2.27903
N     1.93090  -2.43268   2.89284
C     1.53456   0.90217   1.93547
N     2.01175   1.90692   2.28449
C    -0.86805  -0.91158  -1.47096
O    -1.60814  -0.49955  -2.34126
O    -0.49427  -2.18028  -1.32781
C    -1.04387  -3.11775  -2.26824
H    -1.31793   3.72485  -2.39798
H    -0.38389   3.98774  -0.87682
H    -2.11501   3.50884  -0.79434
H    -0.74863  -2.84821  -3.29232
H    -0.62787  -4.09364  -1.99458
H    -2.14065  -3.13356  -2.19321
