18
Generated by autodE on: 2022-05-31. E = -824.778778 Ha
N     2.79132  -0.65239  -1.51899
C     1.75620  -0.60826  -0.98421
C     0.49607  -0.58468  -0.34656
C     0.08868   0.25819   0.63366
Cl    1.00719   1.51158   1.36975
C    -1.39084   0.05790   0.85743
C    -2.07896   0.65410  -0.41752
C    -1.64535  -0.32658  -1.54392
C    -0.75246  -1.35697  -0.78521
C    -1.49570  -1.45430   0.56349
H    -1.77402   0.43247   1.81288
H    -3.16883   0.64997  -0.27368
H    -1.76365   1.69107  -0.59821
H    -1.09372   0.16663  -2.35607
H    -2.51242  -0.83996  -1.98426
H    -0.55015  -2.28826  -1.32620
H    -0.97015  -2.07418   1.30363
H    -2.53595  -1.79446   0.45561
