39
Generated by autodE on: 2022-05-31. E = -1619.105789 Ha. Imaginary frequency = -250.0 cm-1
C    -2.79239   3.24508  -0.32571
O    -2.42932   1.87693  -0.58225
C    -1.78544   1.24698   0.38391
O    -1.52615   1.72271   1.47183
C    -1.39023  -0.13894   0.03034
C    -1.96030  -0.87652  -1.13528
O    -2.24569  -0.33972  -2.18513
O    -2.05999  -2.18097  -0.90108
C    -2.46253  -3.00186  -2.01083
O    -0.93562  -0.93195   0.98203
C    -0.05142  -0.79735   1.95335
C     0.54931  -2.03195   2.34248
N     1.08293  -3.02097   2.64402
C     0.05414   0.25648   2.90378
N     0.30400   0.97687   3.78422
C     1.65447   0.06026   0.21114
C     2.24139   0.99078   1.10396
N     2.74013   1.74218   1.84028
C     2.34961  -1.23272  -0.21671
C     3.40128  -0.76690  -1.27564
C     2.51981  -0.32561  -2.47613
C     1.06350  -0.59049  -1.96895
C     1.28418  -1.86538  -1.13272
C     0.84908   0.43815  -0.87307
Cl    0.58389   2.10823  -1.28789
H    -3.26676   3.60295  -1.24569
H    -1.89525   3.83758  -0.09771
H    -3.49540   3.29856   0.51733
H    -1.72639  -2.92198  -2.82346
H    -2.49771  -4.02664  -1.62554
H    -3.45254  -2.69348  -2.37447
H     2.75179  -1.83852   0.60180
H     4.04464  -1.61936  -1.53571
H     4.04176   0.03816  -0.89000
H     2.69914  -0.94919  -3.36286
H     2.66818   0.72406  -2.76230
H     0.29658  -0.60084  -2.74980
H     1.70193  -2.68175  -1.73739
H     0.39513  -2.23409  -0.61264
