22
Generated by autodE on: 2022-05-26. E = -885.215148 Ha
C     2.46535  -1.44440   1.10660
C     1.88048  -0.34468   0.25629
O     2.57294   0.58530  -0.15153
C     0.44737  -0.45136  -0.06059
C    -0.37960   0.50798  -0.55016
Cl   -0.01539   2.14104  -0.96087
C    -1.80471   0.00958  -0.50434
C    -2.17854  -0.02088   1.01608
C    -1.27029  -1.15145   1.57687
C    -0.47548  -1.61377   0.31503
C    -1.56052  -1.48919  -0.77382
H     2.40983  -2.40422   0.56696
H     1.88548  -1.56757   2.03535
H     3.51274  -1.21625   1.34335
H    -2.51053   0.55114  -1.14436
H    -3.24512  -0.26618   1.12288
H    -2.00545   0.95437   1.49256
H    -0.59865  -0.80720   2.37578
H    -1.86798  -1.98560   1.97306
H     0.01844  -2.58652   0.41710
H    -2.44794  -2.10908  -0.57683
H    -1.18067  -1.68711  -1.78665
