34
Generated by autodE on: 2022-05-26. E = -1096.630469 Ha. Imaginary frequency = -182.6 cm-1
C     2.90736   0.19274   1.21896
C     1.44607  -0.20701   1.25326
O     1.04031  -1.01049   2.10514
C     0.56855   0.42313   0.27555
C     1.15480  -1.85032  -0.87075
C     2.38899  -2.64145  -1.02183
N    -0.03418  -2.05653  -0.99238
C    -1.30032  -1.79106  -0.82512
C    -2.23375  -1.54547  -1.96755
C    -0.81421   0.44119   0.25260
Cl   -1.87229   0.13369   1.62608
C    -1.25329   1.48092  -0.76483
C    -0.88454   2.86680  -0.14945
C     0.67360   2.84831  -0.16405
C     0.99908   1.44771  -0.77201
C    -0.13197   1.32013  -1.80859
H     3.00903   1.26819   1.44063
H     3.46316  -0.38584   1.96892
H     3.34603   0.02579   0.22437
H     2.21434  -3.64428  -1.44575
H     2.84728  -2.74456  -0.02437
H     3.11302  -2.09416  -1.64445
H    -1.72087  -2.11825   0.13021
H    -3.03983  -0.86813  -1.64571
H    -1.71768  -1.09837  -2.82876
H    -2.71375  -2.48226  -2.30458
H    -2.29124   1.38770  -1.10700
H    -1.28539   3.67762  -0.77619
H    -1.30629   2.98073   0.85944
H     1.07637   3.64549  -0.80761
H     1.11382   2.97024   0.83611
H     2.02406   1.33644  -1.14460
H    -0.12598   2.13140  -2.55240
H    -0.13793   0.35099  -2.32147
