10
Generated by autodE on: 2022-10-06. E = -455.051687 Ha
O     2.04156  -0.56551   1.42950
C     1.95314  -0.04166   0.28498
O     2.92126   0.33553  -0.43261
C     0.57306   0.16353  -0.30636
C    -0.57300  -0.16402   0.30621
C    -1.95318   0.04179  -0.28494
O    -2.92134  -0.33436   0.43310
O    -2.04150   0.56466  -1.42991
H     0.53462   0.61477  -1.30374
H    -0.53459  -0.61535   1.30355
