28
Generated by autodE on: 2022-06-13. E = -873.225197 Ha
C     1.93390  -0.63960  -1.93284
C     0.56373  -0.08658  -1.49969
C     0.20126   1.11242  -2.38519
F    -0.96002   1.68275  -2.01658
F     0.07403   0.75079  -3.67329
F     1.14187   2.07271  -2.33234
C     0.57905   0.30965  -0.09185
C     0.44408   0.25145   1.10889
C    -0.09144  -0.29580   2.36164
C    -1.31714   0.43845   2.74679
N    -2.29975   0.98521   3.02573
C     0.87331  -0.22265   3.47743
N     1.64175  -0.19998   4.34405
C    -0.44644  -1.80935   2.07210
C    -1.28128  -2.04481   0.80110
C    -0.53248  -2.28381  -0.54002
C    -0.55931  -1.17046  -1.60587
H     2.72199   0.11443  -1.80346
H     1.89613  -0.94276  -2.98865
H     2.18801  -1.51648  -1.32344
H    -0.97857  -2.17882   2.96065
H     0.51323  -2.34282   2.01049
H    -2.02750  -1.24076   0.68575
H    -1.86667  -2.95224   1.01166
H     0.50549  -2.59425  -0.33828
H    -1.00614  -3.15544  -1.01577
H    -0.46499  -1.62198  -2.60485
H    -1.53652  -0.66551  -1.56990
