65
Generated by autodE on: 2022-06-13. E = -1716.714134 Ha. Imaginary frequency = -220.8 cm-1
C    -0.99307   3.33420   6.12768
C     0.51896   3.53189   6.29541
C     0.80451   4.06222   7.71662
F     2.13057   4.13417   7.96448
F     0.31067   5.30730   7.88474
F     0.26972   3.31422   8.69176
C     1.07885   4.59536   5.29877
C     0.85861   4.34815   3.79874
C     1.22517   3.00305   3.15283
C     2.67946   2.52651   3.12192
C     3.33611   2.12861   4.51461
C     4.34151   1.06873   4.25574
N     5.13546   0.26417   4.00037
C     4.11401   3.26196   5.06656
N     4.72813   4.14298   5.50461
C     2.29000   1.76227   5.50706
C     1.32294   2.30221   6.07016
N     0.45136   0.75263   7.43908
C    -0.53085   0.04833   6.68591
C    -0.57221  -0.04775   5.28398
C    -1.61521  -0.72590   4.65294
C    -2.63917  -1.31708   5.40093
C    -2.62055  -1.20524   6.79412
C    -1.58362  -0.51711   7.42755
N     1.64480   0.21272   7.65058
C     2.44423  -0.53182   6.87857
C     1.87744  -1.61216   6.03833
C     0.98475  -2.53250   6.61533
C     0.41517  -3.54699   5.84498
C     0.74137  -3.66588   4.49077
C     1.65540  -2.77488   3.91771
C     2.22455  -1.75927   4.68639
C     3.89244  -0.48398   7.15755
C     4.70296  -1.60636   6.90669
C     6.08389  -1.54627   7.10075
C     6.68238  -0.36757   7.55419
C     5.88625   0.75408   7.81585
C     4.50890   0.70111   7.61618
H    -1.21078   2.91243   5.13862
H    -1.38747   2.64868   6.88714
H    -1.50929   4.30117   6.21714
H     0.60486   5.55849   5.54033
H     2.14813   4.72302   5.50939
H     1.40408   5.15004   3.27252
H    -0.20682   4.51763   3.57345
H     0.93726   3.08353   2.09101
H     0.59397   2.20235   3.56148
H     2.71773   1.62084   2.50102
H     3.33825   3.26970   2.64876
H     0.22327   0.39427   4.69200
H    -1.62111  -0.79988   3.56270
H    -3.44891  -1.85308   4.90056
H    -3.41853  -1.65146   7.39278
H    -1.56262  -0.42022   8.51490
H     2.14509   0.76245   8.35081
H     0.72983  -2.44123   7.67182
H    -0.28925  -4.24395   6.30447
H     0.28946  -4.45426   3.88440
H     1.92057  -2.86555   2.86184
H     2.92440  -1.06040   4.23139
H     4.24687  -2.53175   6.55319
H     6.69570  -2.42780   6.89568
H     7.76425  -0.31876   7.69701
H     6.34455   1.68581   8.15503
H     3.91662   1.60485   7.77476
