16
Generated by autodE on: 2022-05-30. E = -446.128258 Ha
C     2.40965  -0.49195   0.45967
C     1.02980  -0.19214   0.00030
C     0.28197   0.91061   0.05960
F     0.58290   2.11582   0.55253
C    -1.13534   0.54598  -0.41171
C    -1.74256  -0.39110   0.66363
C    -1.01948  -1.51176   0.58146
C     0.01514  -1.23733  -0.53741
O    -0.78509  -0.41786  -1.42184
H     3.02490  -0.91047  -0.35493
H     2.39282  -1.24742   1.26555
H     2.90745   0.41014   0.84479
H    -1.75888   1.36197  -0.79377
H    -2.54793  -0.12403   1.34689
H    -1.07015  -2.41984   1.18143
H     0.44313  -2.10456  -1.05322
