24
Generated by autodE on: 2022-05-30. E = -721.579398 Ha
C    -2.26854  -3.51580  -0.23094
N    -1.94572  -2.10655  -0.17753
C    -0.68676  -1.63904  -0.08447
O     0.32473  -2.35546  -0.03658
C    -0.54721  -0.15600  -0.03855
N     0.69151   0.27656   0.05092
C     1.83350   0.53080   0.13140
C     3.23985   0.82169   0.22068
C     4.11551  -0.39883   0.24801
O     3.63640   1.97836   0.26836
C    -1.63309   0.81929  -0.08121
O    -2.82114   0.52818  -0.16381
O    -1.19294   2.08262  -0.01924
C    -2.18767   3.11528  -0.05254
H    -1.34236  -4.09949  -0.17560
H    -2.91887  -3.80402   0.61038
H    -2.78934  -3.76740  -1.16878
H    -2.69087  -1.41125  -0.20857
H     4.81383  -0.34679  -0.60257
H     3.53236  -1.32864   0.19460
H     4.70794  -0.38250   1.17675
H    -2.87291   3.01951   0.80215
H    -2.76239   3.06826  -0.98884
H    -1.63860   4.06199   0.00717
