46
Generated by autodE on: 2022-06-04. E = -1355.171885 Ha
C     5.76289   0.19087   1.35102
O     4.68037  -0.46874   0.66407
C     3.67559   0.29244   0.27201
O     3.58520   1.49009   0.43067
C     2.59474  -0.48007  -0.43719
O     2.69283  -1.91885  -0.34701
N     1.61434  -2.24024  -1.21345
O     2.01515  -1.49100  -2.41539
C     2.61780  -0.34818  -1.97256
O     3.08388   0.48894  -2.68790
C     0.48141  -1.48119  -0.57259
C    -0.55545  -0.80717  -1.50488
O     0.12207   0.39153  -1.90402
C     0.34330   0.90965  -0.58798
C    -1.05965   0.83104   0.02575
C    -1.51754   1.77389   1.04633
C    -2.88430   2.06258   1.23792
C    -3.28797   2.97744   2.20849
C    -2.33952   3.62451   3.01060
C    -0.98062   3.35765   2.82259
C    -0.57107   2.44856   1.84475
C    -1.62353  -0.26878  -0.54020
C    -2.85321  -1.01473  -0.24364
C    -3.57172  -1.63753  -1.28242
C    -4.73261  -2.36433  -1.01005
C    -5.18765  -2.49550   0.30530
C    -4.47082  -1.89816   1.34885
C    -3.31485  -1.16678   1.07884
C     1.15847  -0.23550   0.06155
H     5.38855   0.68067   2.26055
H     6.47852  -0.59827   1.60520
H     6.22797   0.93606   0.69091
H     0.02793  -2.17897   0.13774
H    -0.88865  -1.39393  -2.36619
H     0.83177   1.88817  -0.62191
H    -3.63123   1.57613   0.60970
H    -4.35139   3.19254   2.33784
H    -2.65997   4.33910   3.77223
H    -0.23190   3.86237   3.43765
H     0.49465   2.25272   1.70814
H    -3.22541  -1.53863  -2.31331
H    -5.28295  -2.83197  -1.82980
H    -6.09390  -3.06708   0.51881
H    -4.81171  -2.00913   2.38094
H    -2.75340  -0.71628   1.89849
H     1.14750  -0.21501   1.15637
