33
Generated by autodE on: 2022-06-04. E = -769.851087 Ha
C    -1.12219  -2.61486   1.37916
C     0.15586  -2.61521   1.77102
C     0.95682  -2.31008   0.48806
O     0.15167  -2.98162  -0.49444
C    -1.06804  -2.31261  -0.13462
C    -0.63134  -0.82612  -0.27282
C    -1.57926   0.25103  -0.57012
C    -2.62531   0.04658  -1.49228
C    -3.54546   1.06034  -1.76801
C    -3.44941   2.29460  -1.11870
C    -2.42683   2.50541  -0.18580
C    -1.50375   1.49696   0.08680
C     0.67047  -0.82710   0.10600
C     1.67448   0.22621   0.23390
C     1.68369   1.35528  -0.61222
C     2.65754   2.34221  -0.47285
C     3.64767   2.22720   0.51147
C     3.65919   1.10786   1.34845
C     2.68916   0.11300   1.20634
H    -2.03393  -2.72473   1.96543
H     0.58224  -2.72508   2.76765
H     2.00376  -2.62889   0.45271
H    -1.91698  -2.63965  -0.74353
H    -2.70992  -0.91143  -2.00906
H    -4.34283   0.88386  -2.49393
H    -4.17126   3.08652  -1.33167
H    -2.35306   3.46119   0.33871
H    -0.72102   1.66549   0.82744
H     0.92567   1.44807  -1.39120
H     2.64946   3.20658  -1.14138
H     4.40936   3.00301   0.61870
H     4.42994   1.00514   2.11615
H     2.70823  -0.75496   1.86925
