46
Generated by autodE on: 2022-06-04. E = -1355.090365 Ha. Imaginary frequency = -268.1 cm-1
C     5.41132   0.02412   1.90898
O     4.58993  -0.59835   0.90471
C     4.05842   0.20726  -0.00841
O     4.20613   1.41197  -0.06277
C     3.20326  -0.51314  -0.95619
O     3.07835  -1.84659  -0.92657
N     2.15349  -2.22381  -1.82761
O     2.08936  -1.20885  -2.72429
C     2.69513  -0.04469  -2.21656
O     2.70244   1.00036  -2.81361
C     0.44049  -1.47877  -0.44639
C    -0.66932  -0.91011  -1.34291
O    -0.05764   0.30326  -1.79549
C     0.24219   0.81663  -0.49347
C    -1.16624   0.76169   0.16448
C    -1.60718   1.74930   1.14586
C    -2.96866   2.07629   1.31830
C    -3.35721   3.02974   2.25710
C    -2.39919   3.67977   3.04565
C    -1.04559   3.37532   2.87655
C    -0.65135   2.42707   1.93035
C    -1.73853  -0.35324  -0.36011
C    -2.97006  -1.08128  -0.04547
C    -3.66691  -1.77171  -1.05720
C    -4.83147  -2.48398  -0.76369
C    -5.31422  -2.53437   0.54731
C    -4.62051  -1.86929   1.56557
C    -3.46168  -1.15145   1.27439
C     1.03444  -0.35710   0.09785
H     4.82317   0.75790   2.47804
H     5.74840  -0.78723   2.56324
H     6.27185   0.52236   1.44080
H     0.43306  -2.48335  -0.02954
H    -1.01961  -1.53285  -2.17141
H     0.73890   1.79046  -0.53930
H    -3.72227   1.58711   0.70009
H    -4.41618   3.27313   2.37213
H    -2.70794   4.42538   3.78194
H    -0.28961   3.88096   3.48194
H     0.40968   2.19837   1.80903
H    -3.30169  -1.73673  -2.08542
H    -5.36327  -3.00383  -1.56406
H    -6.22310  -3.09517   0.77754
H    -4.98213  -1.91681   2.59551
H    -2.91914  -0.64963   2.07664
H     1.59253  -0.30936   1.03125
