16
Generated by autodE on: 2022-05-29. E = -434.355900 Ha
C     2.49944   0.25501   0.05882
C     1.09987   0.79635  -0.12692
O     0.91410   1.98103  -0.40459
C     0.02208  -0.17871   0.04587
C     0.33824  -1.51729   0.38145
N     0.59501  -2.62172   0.65917
N    -1.32552   0.09693  -0.09625
C    -1.76249   1.46547  -0.44815
N    -2.27507  -0.73274   0.04601
H     2.70260  -0.55774  -0.65627
H     3.21789   1.06960  -0.09666
H     2.62703  -0.16011   1.07110
H    -1.43236   2.15988   0.33098
H    -2.85289   1.42798  -0.51670
H    -1.30826   1.75493  -1.40103
H    -1.87851  -1.65343   0.28860
