16
Generated by autodE on: 2022-07-26. E = -434.362823 Ha
C     0.59086   2.46573   0.07334
C    -0.09018   1.26554  -0.53076
O    -0.77870   1.37360  -1.55908
C     0.09241  -0.00965   0.13607
C     0.87832  -0.10265   1.30572
N     1.53401  -0.14305   2.27089
N    -0.49543  -1.17129  -0.34732
C    -0.24957  -2.42517   0.39789
N    -1.22667  -1.26578  -1.37288
H     0.23776   2.63377   1.10323
H     0.37101   3.34927  -0.53897
H     1.68019   2.31088   0.12284
H    -0.61420  -2.30930   1.42608
H    -0.79285  -3.21860  -0.12199
H     0.82827  -2.63069   0.40698
H    -1.29533  -0.31016  -1.77391
