24
Generated by autodE on: 2022-05-29. E = -593.135204 Ha
C     3.60063   1.06080  -0.10947
O     2.19953   1.00220  -0.41189
C     1.53640  -0.07719   0.01716
O     2.05875  -0.99095   0.63084
C     0.10806  -0.01854  -0.34122
C    -0.86010  -0.83581   0.15107
C    -0.71568  -1.89642   1.08091
N    -0.66967  -2.78374   1.83432
C    -2.20079  -0.29366  -0.32893
C    -2.41165   1.03424   0.47069
C    -1.30428   1.96469  -0.09632
C    -0.58687   1.05601  -1.15044
C    -1.78373   0.25712  -1.70824
H     4.12742   0.21277  -0.57045
H     3.75944   1.04053   0.97845
H     3.96125   2.00668  -0.52920
H    -3.03537  -1.00170  -0.28025
H    -2.33019   0.87213   1.55431
H    -3.41659   1.42729   0.25996
H    -0.60294   2.32307   0.66968
H    -1.73390   2.84129  -0.60211
H     0.05119   1.59201  -1.86042
H    -1.48456  -0.53105  -2.41425
H    -2.55447   0.89629  -2.16296
