59
Generated by autodE on: 2022-06-09. E = -1715.552490 Ha
C     6.14943 -14.50760   1.03322
O     4.99912 -14.43719   1.89414
C     4.06193 -13.55148   1.58594
O     4.08279 -12.84679   0.59989
C     2.89636 -13.54423   2.60131
C     3.29565 -14.30064   3.90377
C     3.12087 -15.79310   3.93764
O     3.69546 -13.67960   4.86941
N     1.74737 -14.13641   1.91769
C     0.54142 -13.37505   2.22802
C    -0.23059 -14.10016   3.35469
O    -0.25869 -15.31087   3.44107
O    -0.84436 -13.28679   4.20311
C    -1.60818 -13.89765   5.25884
C    -0.36609 -13.23052   0.99923
C     0.22866 -13.10073  -0.26315
C    -0.55600 -12.86832  -1.39356
C    -1.94683 -12.76802  -1.27636
C    -2.54517 -12.90685  -0.02144
C    -1.75895 -13.13619   1.11236
C     1.09463 -12.02191   2.68077
C     2.41995 -12.11682   2.88552
C     3.38910 -11.00842   3.32491
C     4.75518 -11.55526   3.47161
N     5.86344 -11.89269   3.48954
C     3.02323 -10.40943   4.72986
F     4.13283 -10.02669   5.38493
F     2.25125  -9.31443   4.63238
F     2.37514 -11.27621   5.51072
C     3.61835  -9.86276   2.26109
C     2.46808  -9.02355   1.69203
C     1.45965  -9.74074   0.77705
C     0.11195 -10.03714   1.43260
C     0.20269 -10.82062   2.75903
H     6.67716 -13.54363   1.04106
H     6.78626 -15.29639   1.44828
H     5.84297 -14.75846   0.00845
H     3.74658 -16.21141   4.73683
H     3.36385 -16.26187   2.97404
H     2.06473 -16.01532   4.16498
H     1.62642 -15.12881   2.10352
H    -2.03717 -13.07014   5.83445
H    -2.40472 -14.52485   4.83472
H    -0.95278 -14.50918   5.89442
H     1.31324 -13.17377  -0.34482
H    -0.07926 -12.76172  -2.37093
H    -2.56147 -12.58557  -2.16097
H    -3.63054 -12.83529   0.08031
H    -2.24502 -13.22499   2.08542
H     4.12604 -10.35905   1.42236
H     4.35583  -9.18194   2.71352
H     2.98408  -8.24810   1.10385
H     1.94126  -8.47979   2.48856
H     1.90371 -10.67310   0.39207
H     1.26883  -9.11269  -0.10775
H    -0.40361  -9.08740   1.65400
H    -0.52533 -10.57897   0.71923
H     0.54964 -10.14790   3.54959
H    -0.80605 -11.14088   3.04925
