35
Generated by autodE on: 2022-07-27. E = -973.852834 Ha
C    -4.21674   0.73513   2.15504
O    -3.13689   0.53131   1.23138
C    -1.92995   0.33599   1.75431
O    -1.70153   0.30350   2.95681
C    -0.87647   0.13490   0.73979
N     0.30293  -0.13404   1.29020
C     1.54998  -0.29505   0.78835
C     2.59418  -0.81745   1.65402
C     2.21483  -1.22907   3.06265
O     3.76444  -0.91109   1.26686
C     1.85523   0.23948  -0.55772
O     1.47522   1.32977  -0.94795
O     2.59183  -0.58773  -1.30225
C     2.94681  -0.12224  -2.61267
C    -1.12736   0.10700  -0.70734
C    -0.69424  -0.99518  -1.46857
C    -0.91050  -1.02738  -2.84574
C    -1.55712   0.03852  -3.48133
C    -1.99573   1.13315  -2.72961
C    -1.78536   1.16896  -1.35071
H    -5.10994   0.89572   1.54105
H    -4.34576  -0.15078   2.79323
H    -4.02130   1.61568   2.78368
H     0.21710  -0.23751   2.31189
H     3.11065  -1.61624   3.56389
H     1.43388  -2.00604   3.06387
H     1.83598  -0.36878   3.64172
H     3.52039   0.81355  -2.54972
H     3.55961  -0.91451  -3.05763
H     2.04071   0.04257  -3.21446
H    -0.18881  -1.83038  -0.97979
H    -0.57456  -1.89000  -3.42539
H    -1.72100   0.01423  -4.56104
H    -2.50057   1.96792  -3.22096
H    -2.11689   2.02854  -0.76671
