59
Generated by autodE on: 2022-06-09. E = -1715.457537 Ha. Imaginary frequency = -300.1 cm-1
C     4.08564 -14.88151  -0.80203
O     3.68933 -14.92356   0.57891
C     3.28298 -13.77391   1.11820
O     3.23191 -12.73161   0.50475
C     2.94958 -13.98309   2.58387
C     4.06672 -14.42396   3.44341
C     3.75848 -14.90179   4.84115
O     5.21826 -14.38168   3.01986
N     1.70250 -14.30741   2.98058
C     0.54207 -13.81684   2.50560
C    -0.57600 -14.01226   3.45552
O    -0.41718 -14.40308   4.60224
O    -1.75500 -13.67411   2.93974
C    -2.89209 -13.75257   3.81400
C     0.30852 -13.72192   1.04063
C     0.59787 -14.85090   0.25356
C     0.40168 -14.82168  -1.12891
C    -0.09818 -13.66981  -1.74168
C    -0.40875 -12.55110  -0.96118
C    -0.20883 -12.57642   0.41908
C     1.19541 -11.62592   3.18119
C     2.43322 -11.65176   3.04089
C     3.63496 -10.78459   3.19603
C     4.86125 -11.27815   2.53582
N     5.85552 -11.55173   2.00851
C     3.96773 -10.70374   4.71236
F     5.02981  -9.91815   4.94184
F     2.94197 -10.21570   5.41858
F     4.25927 -11.91749   5.21127
C     3.41943  -9.34213   2.60311
C     2.08046  -8.64894   2.88175
C     0.92380  -9.06408   1.94279
C    -0.30530  -9.65651   2.63303
C    -0.01638 -10.86367   3.56127
H     4.93449 -14.19478  -0.92918
H     4.37762 -15.90513  -1.06194
H     3.24447 -14.55094  -1.42733
H     4.69557 -14.95096   5.40932
H     3.31740 -15.91203   4.79838
H     3.04970 -14.24310   5.36328
H     1.61682 -14.59394   3.96158
H    -3.74924 -13.41439   3.22129
H    -3.04289 -14.78849   4.14905
H    -2.74826 -13.09961   4.68647
H     0.98394 -15.75446   0.72763
H     0.63789 -15.70532  -1.72586
H    -0.24967 -13.64416  -2.82318
H    -0.80363 -11.64729  -1.43060
H    -0.44705 -11.69768   1.01232
H     3.55486  -9.43580   1.51596
H     4.25551  -8.72900   2.97032
H     2.27084  -7.57136   2.76236
H     1.79560  -8.77657   3.93580
H     1.29657  -9.79084   1.20357
H     0.59407  -8.18959   1.35935
H    -0.80776  -8.88736   3.24200
H    -1.03195  -9.95105   1.85928
H     0.18812 -10.49819   4.58163
H    -0.91938 -11.48228   3.63501
