52
Generated by autodE on: 2022-06-08. E = -4176.177945 Ha
C     2.96567   1.08194  -3.40637
O     2.06179   1.02979  -2.28496
C     2.43379   0.28610  -1.26251
O     3.47188  -0.32869  -1.17377
C     1.39714   0.30697  -0.11577
C     2.03160   1.27375   0.93097
O     2.99420   1.00408   1.60581
O     1.44946   2.46095   0.87551
C     1.93546   3.45474   1.79130
O     0.18126   0.83265  -0.57853
C    -0.95478   0.14683  -0.10346
C    -1.91998   1.13269   0.59731
O    -2.89228   0.75693   1.21523
O    -1.60113   2.38956   0.37089
C    -2.44758   3.38776   0.97133
C    -1.75160  -0.38289  -1.31992
O    -2.45966  -1.36308  -1.28152
O    -1.62878   0.42945  -2.35148
C    -2.31277   0.04544  -3.55846
C    -0.43951  -0.99542   0.84620
C    -1.20296  -2.34848   0.77322
C    -2.58068  -2.47879   1.35815
O    -0.61983  -3.31096   0.31147
C    -0.37818  -0.45466   2.32070
C    -0.60943  -1.37325   3.47981
O    -0.13865   0.72417   2.48482
C     1.03828  -1.16029   0.34119
Br    2.19233  -1.91212   1.74275
C     1.08664  -2.06544  -0.94692
C     2.01457  -3.23394  -1.05730
O     0.43597  -1.66740  -1.89541
H     3.93927   1.47977  -3.08857
H     2.49518   1.74933  -4.13626
H     3.09306   0.07576  -3.82921
H     1.77879   3.11701   2.82568
H     1.34773   4.35749   1.59155
H     3.00458   3.64466   1.62079
H    -2.42821   3.28205   2.06496
H    -3.47784   3.28278   0.60415
H    -2.02699   4.35348   0.67117
H    -3.39289  -0.03716  -3.37453
H    -1.91993  -0.91675  -3.91604
H    -2.10507   0.83865  -4.28463
H    -2.50885  -3.05777   2.29137
H    -3.04791  -1.50967   1.55716
H    -3.19152  -3.06115   0.65643
H    -0.00794  -1.02283   4.32888
H    -1.67283  -1.28465   3.75961
H    -0.39314  -2.42472   3.26213
H     1.82511  -3.72748  -2.01896
H     3.05183  -2.86546  -1.03492
H     1.88542  -3.94165  -0.23110
