31
Generated by autodE on: 2022-06-08. E = -1065.741227 Ha
C    -1.10366  -3.35829   0.80986
O    -0.98834  -1.92863   0.70202
C    -1.57594  -1.34692  -0.34266
O    -2.31714  -1.90325  -1.12233
C    -1.26782   0.10670  -0.37009
O    -0.12715   0.60908  -0.00007
C     1.06869   0.14138   0.23970
C     2.02770   1.14207   0.74033
O     3.21163   0.91832   0.91447
O     1.44271   2.31845   0.98413
C     2.29983   3.36983   1.45219
C     1.46162  -1.19241  -0.26639
O     0.92812  -1.68872  -1.24376
O     2.45360  -1.74543   0.41192
C     2.92742  -3.01951  -0.06252
C    -2.32633   1.09359  -0.64869
O    -3.46880   0.78315  -0.93250
O    -1.88451   2.34883  -0.55527
C    -2.85196   3.38408  -0.78545
H    -0.75211  -3.83455  -0.11553
H    -2.14857  -3.64039   1.00067
H    -0.46866  -3.64519   1.65507
H     2.76993   3.08662   2.40510
H     1.65305   4.24334   1.59210
H     3.08107   3.58859   0.70986
H     2.12252  -3.76585   0.00307
H     3.27326  -2.93554  -1.10204
H     3.75787  -3.29197   0.59767
H    -3.67331   3.31108  -0.05792
H    -2.31391   4.33015  -0.65830
H    -3.25750   3.30901  -1.80474
