31
Generated by autodE on: 2022-07-27. E = -1065.741149 Ha
C     2.62744  -1.34074  -3.16398
O     1.66964  -0.92979  -2.17777
C     2.16083  -0.33607  -1.08575
O     3.34369  -0.11461  -0.90247
C     1.09767   0.02782  -0.13162
O    -0.09114  -0.40678  -0.45623
C    -1.29399  -0.27748   0.01832
C    -1.68091   0.75470   1.01563
O    -2.54064   0.60504   1.85533
O    -1.00902   1.88502   0.80237
C    -1.19460   2.94685   1.75444
C    -2.31852  -1.10785  -0.64090
O    -3.50225  -1.05158  -0.36252
O    -1.79610  -1.91709  -1.56361
C    -2.72203  -2.74628  -2.28192
C     1.35123   0.54453   1.23048
O     0.66169   0.21197   2.17969
O     2.40235   1.34413   1.30906
C     2.73941   1.83739   2.61878
H     3.33119  -2.06999  -2.73716
H     2.04683  -1.80084  -3.97155
H     3.18550  -0.47216  -3.54266
H    -0.98539   2.58227   2.76939
H    -2.22381   3.32841   1.70020
H    -0.48074   3.72827   1.47212
H    -3.24451  -3.42372  -1.59114
H    -2.11920  -3.32007  -2.99472
H    -3.45806  -2.12722  -2.81500
H     1.91384   2.44788   3.01245
H     3.63799   2.44895   2.48332
H     2.94207   1.00096   3.30186
