39
Generated by autodE on: 2022-06-13. E = -1554.890009 Ha
F    -2.92336   1.28111  -0.85873
C    -2.32328   1.61678   0.29591
F    -1.54173   2.67957   0.03735
F    -3.28247   2.02993   1.13922
C    -1.52671   0.42754   0.88190
C    -2.51155  -0.72405   1.12131
C    -2.67894  -1.72342   0.15396
C    -3.59737  -2.75754   0.35221
C    -4.36236  -2.80140   1.52077
C    -4.20289  -1.80468   2.48819
C    -3.28415  -0.77099   2.29079
C    -0.46388   0.07934  -0.06108
C     0.62963  -0.02366  -0.56482
C     2.08603   0.02843  -0.66697
C     2.65330  -1.41228  -0.63670
F     2.35161  -2.01373   0.52249
F     3.98775  -1.42008  -0.75797
F     2.15160  -2.17150  -1.61981
C     2.50155   0.73809  -1.97726
F     2.13878   0.04550  -3.06559
F     3.82501   0.93073  -2.03949
F     1.91324   1.94026  -2.05577
C     2.61912   0.85269   0.55856
C     1.83252   0.71503   1.87600
C     0.56393   1.59855   2.04531
C    -0.78663   0.86919   2.19783
H    -2.08423  -1.69565  -0.76138
H    -3.71260  -3.53147  -0.41017
H    -5.07982  -3.61009   1.67819
H    -4.79654  -1.82979   3.40491
H    -3.17625  -0.00006   3.05418
H     3.66904   0.56638   0.71435
H     2.62378   1.91061   0.26095
H     1.58925  -0.34071   2.06313
H     2.54473   0.99525   2.66677
H     0.68822   2.18337   2.96942
H     0.50651   2.34081   1.23605
H    -1.47982   1.50180   2.77030
H    -0.63484  -0.04368   2.79093
