61
Generated by autodE on: 2022-06-13. E = -2163.791368 Ha. Imaginary frequency = -288.1 cm-1
C     4.56150  -6.68297   5.29108
C     4.28634  -6.77790   6.76610
O     3.91761  -7.80869   7.29657
C     4.56764  -5.53594   7.59533
C     4.29974  -5.43841   9.04267
C     3.31215  -6.22783   9.66367
C     3.06866  -6.09720  11.02995
C     3.79373  -5.18170  11.79760
C     4.76272  -4.38072  11.18518
C     5.01402  -4.50525   9.82061
N     5.49725  -4.78209   7.07252
C     5.78132  -3.74450   6.48585
C     7.09027  -3.37805   6.09022
N     8.14648  -3.04911   5.72806
C     3.80801  -2.73637   6.39215
C     2.94249  -3.58580   6.68094
C     1.49750  -3.91703   6.84809
C     1.11763  -4.01190   8.33816
C     1.76041  -3.16184   9.25129
C     1.37426  -3.12702  10.59087
C     0.33835  -3.94632  11.04770
C    -0.30578  -4.79644  10.14790
C     0.07432  -4.82594   8.80209
C     1.19769  -5.23370   6.09262
F     1.76602  -5.24245   4.87061
F     1.64948  -6.32100   6.74052
F    -0.11876  -5.43329   5.89330
C     0.61096  -2.78605   6.21332
C     1.09311  -2.21913   4.86777
C     1.65793  -0.79729   4.97599
C     2.66034  -0.52118   6.10077
C     4.02441  -1.28428   6.09865
C     4.71287  -1.07187   4.72522
F     6.03840  -1.27259   4.76284
F     4.20934  -1.91463   3.81237
F     4.53026   0.17570   4.26775
C     4.87107  -0.63245   7.22820
F     5.14679   0.65077   6.94821
F     6.04503  -1.24157   7.45344
F     4.19907  -0.66012   8.38933
H     4.01438  -7.48248   4.77575
H     5.64188  -6.83270   5.12518
H     4.29222  -5.70240   4.87890
H     2.72839  -6.93152   9.07749
H     2.29298  -6.70855  11.49538
H     3.59551  -5.08319  12.86716
H     5.32797  -3.65453  11.77347
H     5.77276  -3.87350   9.35571
H     2.57587  -2.52272   8.91502
H     1.89763  -2.46413  11.28306
H     0.04125  -3.92688  12.09864
H    -1.11627  -5.44524  10.48819
H    -0.46249  -5.49041   8.12736
H     0.56098  -1.98567   6.96216
H    -0.41038  -3.18163   6.13807
H     1.83729  -2.88392   4.41128
H     0.24754  -2.19093   4.16349
H     2.07273  -0.49373   4.00333
H     0.81988  -0.10712   5.17012
H     2.89114   0.55276   6.09055
H     2.19427  -0.72982   7.07097
