11
Generated by autodE on: 2022-10-20. E = -376.764219 Ha
C     2.37177   0.79130  -0.97350
N     1.67146   0.15098  -0.30942
N     1.00672  -0.61206   0.46548
C    -0.35928  -0.45169   0.45525
O    -1.09985  -1.12502   1.15345
O    -0.79888   0.50579  -0.38708
C    -2.21426   0.71174  -0.43545
H     3.03218   1.38344  -1.59387
H    -2.59764   1.01360   0.55039
H    -2.37809   1.51499  -1.16394
H    -2.73000  -0.20339  -0.76195
