14
Generated by autodE on: 2022-10-20. E = -506.335268 Ha
C    -2.59986   0.74166  -0.81938
O    -1.18109   0.92605  -0.99968
C    -0.41288  -0.05577  -0.52340
F    -0.50975  -1.23184  -1.17364
C     0.41292   0.05570   0.52310
F     0.50976   1.23177   1.17334
O     1.18103  -0.92615   0.99946
C     2.59986  -0.74140   0.82018
H    -3.08571   1.63520  -1.23010
H    -2.94772  -0.15094  -1.36097
H    -2.83470   0.64359   0.25238
H     3.08560  -1.63511   1.23068
H     2.94724   0.15093   1.36251
H     2.83539  -0.64269  -0.25138
