25
Generated by autodE on: 2022-10-20. E = -883.090910 Ha. Imaginary frequency = -329.0 cm-1
C    -4.72216  -1.48827   0.76553
O    -3.31449  -1.35441   0.57016
C    -2.80761  -0.10680   0.71242
O    -3.50063   0.86364   0.99494
N    -1.45830  -0.15395   0.48816
N    -0.86095   0.99119   0.58239
C     0.14433   1.61828   0.42092
C     1.93687   0.84417  -0.50169
F     1.82344   1.43147  -1.71942
O     2.78381   1.45343   0.34353
C     4.18143   1.34124  -0.00083
C     1.68547  -0.51563  -0.45719
F     1.91492  -1.15934   0.67215
O     1.12723  -1.17280  -1.42658
C     0.30233  -2.32733  -1.14152
H    -5.00964  -1.18958   1.78518
H    -5.28159  -0.87655   0.04136
H    -4.95162  -2.54985   0.61084
H     0.61787   2.56643   0.67371
H     4.36846   1.77438  -0.99437
H     4.73499   1.90349   0.76096
H     4.48946   0.28378   0.01299
H    -0.57875  -1.98123  -0.57399
H     0.01493  -2.72604  -2.11992
H     0.87178  -3.07463  -0.57419
