57
Generated by autodE on: 2022-06-07. E = -1544.923873 Ha
C    -4.09489  -3.74727   0.56136
N    -3.17372  -2.71052   0.98146
C    -1.92494  -2.64521   0.45318
O    -1.40765  -3.55722  -0.20523
N    -1.20643  -1.50040   0.75426
C    -0.00390  -1.16360  -0.00575
C     1.31867  -1.38636   0.77951
O     1.26356  -0.32665   1.73512
C     1.19717   0.74218   0.79268
C     2.40126   0.44162  -0.11618
C     3.08440   1.50479  -0.84745
C     4.38197   1.35332  -1.37983
C     4.99559   2.40375  -2.06086
C     4.32954   3.62171  -2.23410
C     3.04454   3.78814  -1.70772
C     2.43079   2.74773  -1.01164
C     2.46154  -0.92195  -0.12512
C     3.20311  -1.86172  -0.96831
O     4.24518  -1.66311  -1.57091
O     2.56425  -3.04761  -1.00915
C     3.16257  -4.07884  -1.80266
C    -0.04345   0.38410  -0.09213
C    -1.46530   0.72344   0.39984
C    -2.41979   0.76603  -0.85556
C    -3.83891   0.32285  -0.67252
O    -1.99000   1.17555  -1.91344
C    -1.59715   2.13667   0.96962
O    -0.80053   3.02197   0.74238
O    -2.72639   2.31019   1.64366
C    -2.98295   3.62870   2.16166
N    -1.87493  -0.37242   1.29401
C    -1.64790  -0.20234   2.73591
H    -4.97243  -3.73539   1.22104
H    -3.61663  -4.73364   0.63709
H    -4.43729  -3.61246  -0.47994
H    -3.54990  -1.82900   1.32077
H    -0.00684  -1.68907  -0.96590
H     1.41787  -2.36647   1.25441
H     1.18206   1.71156   1.29327
H     4.90154   0.40683  -1.25019
H     6.00424   2.27082  -2.45905
H     4.81278   4.44063  -2.77206
H     2.51763   4.73644  -1.83513
H     1.42971   2.90101  -0.60694
H     3.23248  -3.76634  -2.85480
H     4.16812  -4.32008  -1.42797
H     2.50406  -4.95030  -1.71033
H     0.08386   0.77220  -1.10576
H    -4.23908   0.64021   0.29838
H    -3.87225  -0.77813  -0.69623
H    -4.44620   0.71232  -1.49988
H    -2.18573   3.92190   2.85862
H    -3.94375   3.56181   2.68318
H    -3.04042   4.35247   1.33681
H    -0.65224   0.19704   2.98197
H    -1.75564  -1.18828   3.20556
H    -2.42163   0.45652   3.14668
