28
Generated by autodE on: 2022-06-07. E = -778.168596 Ha
C    -3.39218   2.43524   0.01326
N    -2.88223   1.19749  -0.53530
C    -1.85491   0.53437   0.02992
O    -1.24883   0.94603   1.02914
N    -1.64454  -0.70358  -0.58945
N    -0.53144  -1.34307  -0.37339
C    -0.69047  -2.80220  -0.59398
C     0.66694  -0.81404  -0.05953
C     1.77723  -1.66692   0.42295
C     3.19211  -1.16555   0.26449
O     1.56396  -2.76034   0.93988
C     0.89051   0.63511  -0.32406
O     0.47724   1.21429  -1.31159
O     1.65551   1.20592   0.60112
C     1.99096   2.58647   0.39709
H    -4.02598   2.26720   0.90118
H    -3.99090   2.94729  -0.75054
H    -2.55868   3.08770   0.30939
H    -3.38892   0.73060  -1.28047
H    -1.54615  -2.90899  -1.26658
H    -0.90501  -3.28611   0.36567
H     0.21387  -3.22681  -1.03649
H     3.46345  -0.54406   1.13155
H     3.85860  -2.03830   0.24208
H     3.32999  -0.55872  -0.64137
H     1.07756   3.19813   0.39136
H     2.52847   2.71618  -0.55300
H     2.63272   2.86720   1.23965
