49
Generated by autodE on: 2022-10-07. E = -1199.265400 Ha
C    -1.88644   0.56208  -3.34538
N    -1.65940   0.61915  -1.91152
C    -1.62232  -0.48633  -1.17157
O    -1.87939  -1.62580  -1.55776
C    -1.22669  -0.27211   0.31402
C    -2.47325  -0.16673   1.22955
O    -2.81753  -1.16000   1.87123
N    -3.07171   1.01960   1.24271
C    -4.22659   1.29486   2.08144
N    -0.47219  -1.48166   0.75236
C     0.86796  -0.96937   1.32119
N     0.53939  -0.64984   2.69370
N     1.91967  -1.88683   1.06530
C     2.15803  -2.92343   2.06438
C     0.98219   0.37314   0.50813
C     1.85502   1.35593   1.32004
C     1.20361   2.55562   1.92177
O     3.03226   1.07829   1.44152
C     1.45369   0.32703  -0.94691
C     1.60957   1.57044  -1.58798
C     1.88817   1.64164  -2.95133
C     2.01517   0.46907  -3.70417
C     1.86670  -0.76768  -3.07734
C     1.58897  -0.84102  -1.70771
O    -0.38518   0.82442   0.52154
H    -1.92959   1.58505  -3.73638
H    -1.07229   0.01721  -3.84877
H    -2.83560   0.05229  -3.56381
H    -1.28382   1.47190  -1.50449
H    -2.64718   1.78485   0.72492
H    -3.92789   1.47924   3.12578
H    -4.74110   2.18306   1.69591
H    -4.91548   0.44003   2.06074
H    -0.34928  -2.13286  -0.03666
H    -1.06206  -1.95981   1.46309
H     0.22159  -1.48914   3.18237
H     1.38572  -0.34535   3.17848
H     2.77136  -1.37657   0.83666
H     2.94707  -3.59054   1.69149
H     2.47115  -2.53290   3.04858
H     1.25022  -3.52902   2.20656
H     0.71001   3.14899   1.13595
H     1.95139   3.15930   2.45082
H     0.41116   2.22553   2.61068
H     1.49167   2.49853  -1.02572
H     2.00277   2.61717  -3.42867
H     2.22787   0.52259  -4.77415
H     1.96397  -1.69156  -3.65151
H     1.49371  -1.81838  -1.24151
