36
Generated by autodE on: 2022-10-14. E = -953.954168 Ha
C    -2.54493  -2.45789  -2.14172
N    -2.36539  -1.31404  -1.27275
C    -1.21927  -1.15022  -0.57767
O    -0.21417  -1.85975  -0.74973
C    -1.22096  -0.09160   0.44619
O    -0.08412   0.30029   1.00414
C     1.18071   0.31158   0.65539
C     2.05659   0.70081   1.78253
C     1.41000   0.97581   3.11716
O     3.27090   0.79919   1.62379
C     1.66243   0.16147  -0.71172
C     0.92160   0.70150  -1.78573
C     1.42655   0.66039  -3.08173
C     2.66346   0.05548  -3.33791
C     3.39641  -0.49837  -2.28390
C     2.90818  -0.44141  -0.97892
C    -2.42820   0.38386   1.14274
O    -3.57056   0.13941   0.69927
N    -2.24971   1.12294   2.25662
C    -3.37539   1.64261   3.00490
H    -3.48143  -2.33866  -2.70082
H    -1.71249  -2.53060  -2.85663
H    -2.58842  -3.40711  -1.57914
H    -3.17472  -0.81016  -0.90221
H     2.19807   1.14385   3.86162
H     0.75956   0.14801   3.43416
H     0.78594   1.88267   3.04685
H    -0.04753   1.16965  -1.60401
H     0.84840   1.09502  -3.90011
H     3.05013   0.01075  -4.35855
H     4.35645  -0.98147  -2.47914
H     3.48233  -0.87690  -0.16316
H    -1.31048   1.28171   2.60087
H    -4.00031   0.83275   3.41582
H    -2.99577   2.24994   3.83542
H    -4.01751   2.27275   2.36959
