36
Generated by autodE on: 2022-10-07. E = -953.956559 Ha
C    -3.03594  -3.59139   0.35659
N    -2.80574  -2.18792   0.09333
C    -1.56004  -1.67968   0.00832
O    -0.53677  -2.40113   0.04905
C    -1.44115  -0.23036  -0.09260
O    -0.21141   0.31958  -0.04967
C     0.97405  -0.12021  -0.34495
C     1.18666  -1.30268  -1.24841
C     0.31717  -1.39159  -2.47583
O     2.16899  -2.01415  -1.10115
C     2.06177   0.71512   0.13169
C     3.38275   0.57200  -0.35375
C     4.39486   1.40863   0.11015
C     4.11837   2.39947   1.05840
C     2.81415   2.55107   1.54702
C     1.79618   1.71835   1.09610
C    -2.50674   0.72654   0.20368
O    -3.70171   0.36798   0.31750
N    -2.15430   2.02724   0.32392
C    -3.13379   3.04965   0.62643
H    -2.38658  -4.21053  -0.27894
H    -4.08353  -3.83088   0.13275
H    -2.83413  -3.86134   1.40818
H    -3.55240  -1.49531   0.20047
H    -0.59721  -0.78634  -2.42346
H     0.93003  -1.03176  -3.31949
H     0.05541  -2.44202  -2.66306
H     3.61145  -0.18636  -1.09990
H     5.40911   1.28991  -0.27693
H     4.91754   3.05073   1.41932
H     2.59454   3.31801   2.29287
H     0.78638   1.82637   1.49333
H    -1.17922   2.28588   0.22542
H    -3.91906   3.09495  -0.14532
H    -2.62694   4.02141   0.66843
H    -3.62678   2.86743   1.59530
