60
Generated by autodE on: 2022-06-25. E = -1273.192915 Ha
C     5.31103  -1.05517   0.45306
C     4.18426  -0.35372   0.69166
C     4.11126   0.68511   1.77991
C     2.98552  -0.59904  -0.11685
C     1.81525   0.04595   0.02461
C     0.60610  -0.21881  -0.82128
C    -0.69394  -0.39552   0.01990
C    -0.45642  -0.90621   1.44213
C    -1.06767  -0.29513   2.54299
C    -0.87741  -0.80234   3.83353
C    -0.08040  -1.93101   4.03727
C     0.51767  -2.55785   2.93781
C     0.32642  -2.05247   1.65107
C    -1.72576  -1.35168  -0.59889
C    -1.34951  -2.51921  -1.27632
C    -2.31675  -3.39713  -1.77539
C    -3.67587  -3.12665  -1.59605
C    -4.05894  -1.97507  -0.90098
C    -3.09167  -1.09988  -0.40181
O    -1.25469   0.93200   0.08259
C    -0.60937   1.85635  -0.78030
C     0.18507   2.89712   0.05441
C    -0.02765   2.89813   1.54072
O     0.88060   3.72710  -0.49921
C    -1.66123   2.69217  -1.54899
C    -3.10724   2.43521  -1.25697
O    -1.28800   3.52861  -2.34999
C     0.24894   0.97366  -1.76614
C     1.48191   1.64414  -2.36844
C    -0.62845   0.47872  -2.93361
H     6.21949  -0.89444   1.04036
H     5.35067  -1.80892  -0.33938
H     3.84931   1.67402   1.36821
H     3.32655   0.43329   2.51274
H     5.06852   0.77367   2.31252
H     3.07049  -1.37940  -0.88231
H     1.72612   0.81563   0.79436
H     0.80463  -1.10400  -1.43480
H    -1.69526   0.58137   2.39050
H    -1.35824  -0.30983   4.68227
H     0.07050  -2.32523   5.04500
H     1.13813  -3.44551   3.08270
H     0.79393  -2.55375   0.80265
H    -0.29533  -2.75510  -1.42547
H    -2.00205  -4.29664  -2.30999
H    -4.43117  -3.81073  -1.98994
H    -5.11794  -1.75621  -0.74352
H    -3.39759  -0.20910   0.14591
H    -1.10197   3.00483   1.75910
H     0.53332   3.73167   1.98198
H     0.28929   1.94707   1.99011
H    -3.29903   2.51118  -0.17614
H    -3.36670   1.40774  -1.55352
H    -3.72329   3.15392  -1.81229
H     1.98590   0.91998  -3.02795
H     2.20718   1.97526  -1.61798
H     1.18581   2.51213  -2.97342
H    -1.60948   0.11220  -2.60898
H    -0.11674  -0.34672  -3.44952
H    -0.78842   1.28403  -3.66374
