23
Generated by autodE on: 2022-06-25. E = -351.521381 Ha
C     3.62371  -1.07978  -0.06735
C     2.55295  -0.32224   0.25740
C     2.69389   0.90145   1.12627
C     1.22597  -0.68328  -0.23755
C     0.07724  -0.00672   0.01467
C    -1.21526  -0.40706  -0.50290
C    -2.40440   0.21545  -0.30225
C    -2.58312   1.46318   0.51550
C    -3.66707  -0.32463  -0.91219
H     4.62759  -0.83222   0.28882
H     3.51847  -1.96739  -0.69883
H     2.34696   1.80546   0.59862
H     3.73931   1.05746   1.42762
H     2.07975   0.81479   2.03802
H     1.17695  -1.58107  -0.86549
H     0.11926   0.88915   0.63993
H    -1.21706  -1.31193  -1.12271
H    -3.02238   2.26523  -0.10380
H    -1.65126   1.84236   0.95431
H    -3.30080   1.28317   1.33534
H    -4.13602   0.42769  -1.57173
H    -4.41379  -0.55147  -0.13003
H    -3.48826  -1.23799  -1.49831
