37
Generated by autodE on: 2022-07-27. E = -921.621324 Ha
C    -0.68051   3.48910   0.96621
C    -0.40360   3.11897  -0.47930
O    -0.65526   3.93226  -1.39226
C     0.12472   1.81713  -0.71709
O     0.44008   1.06709   0.44465
C     0.19740  -0.21055   0.47772
C     1.07642  -0.97702   1.34062
C     2.36769  -0.47582   1.62287
C     3.22147  -1.18415   2.45961
C     2.79931  -2.39277   3.03009
C     1.52040  -2.89396   2.76201
C     0.65963  -2.19583   1.91986
C    -0.98599  -0.78032  -0.16764
C    -0.93156  -2.04473  -0.78166
C    -2.07574  -2.58409  -1.36670
C    -3.27988  -1.87314  -1.33495
C    -3.34041  -0.61688  -0.71891
C    -2.19818  -0.06286  -0.14706
C     0.56759   1.20049  -1.92031
C     0.45583   1.95870  -3.22218
O     1.05155   0.04385  -1.91034
H    -1.02539   4.53065   1.00852
H     0.22107   3.37092   1.58792
H    -1.45489   2.83199   1.39550
H     2.69268   0.45373   1.15499
H     4.22335  -0.80235   2.66543
H     3.47287  -2.94697   3.68773
H     1.19162  -3.82954   3.21833
H    -0.34569  -2.57378   1.73551
H     0.01482  -2.58445  -0.82516
H    -2.02713  -3.56055  -1.85271
H    -4.17632  -2.29916  -1.79121
H    -4.28343  -0.06768  -0.68427
H    -2.24585   0.91046   0.34163
H     0.94840   2.93963  -3.16294
H    -0.60193   2.15022  -3.46050
H     0.90881   1.35386  -4.01935
