60
Generated by autodE on: 2022-06-25. E = -1273.119142 Ha. Imaginary frequency = -289.1 cm-1
C     3.64510  -1.76806   2.56409
C     3.18909  -0.68249   1.90161
C     3.62034   0.71009   2.28001
C     2.21599  -0.84661   0.82679
C     1.63972   0.16394   0.13247
C     0.59252  -0.03665  -0.84884
C    -1.32282  -0.02235   0.42795
C    -0.79741  -0.54398   1.69991
C    -0.31677   0.31608   2.70773
C     0.23419  -0.19457   3.88053
C     0.33842  -1.57688   4.07010
C    -0.12915  -2.44278   3.07692
C    -0.69627  -1.93525   1.90912
C    -2.36665  -0.89228  -0.21902
C    -2.11163  -1.95776  -1.08799
C    -3.15664  -2.77341  -1.53911
C    -4.46486  -2.54686  -1.11121
C    -4.72464  -1.50015  -0.21778
C    -3.68662  -0.68553   0.22584
O    -1.47201   1.31227   0.41557
C    -1.40710   2.20807  -0.62567
C    -0.67946   3.42193  -0.25519
C    -0.07178   3.50776   1.12602
O    -0.52109   4.36272  -1.04193
C    -2.39046   2.17964  -1.70222
C    -2.37793   3.26124  -2.75996
O    -3.24735   1.29204  -1.77949
C     0.34056   0.88225  -1.88773
C     1.24675   2.05030  -2.14500
C    -0.43209   0.40512  -3.08544
H     4.35518  -1.67670   3.39061
H     3.31153  -2.77478   2.29545
H     4.07434   1.23474   1.42324
H     2.75502   1.31490   2.59839
H     4.35008   0.69168   3.10162
H     1.91629  -1.87543   0.60183
H     1.93444   1.19158   0.35187
H     0.33828  -1.07600  -1.05684
H    -0.38408   1.39060   2.56976
H     0.59367   0.49295   4.64939
H     0.77998  -1.97598   4.98582
H    -0.05190  -3.52396   3.21125
H    -1.05395  -2.62752   1.14795
H    -1.09930  -2.17048  -1.42672
H    -2.93695  -3.59270  -2.22743
H    -5.27849  -3.18515  -1.46343
H    -5.74284  -1.31873   0.13476
H    -3.89167   0.13133   0.91996
H     0.40097   4.49231   1.23255
H     0.68556   2.72452   1.27056
H    -0.83676   3.37855   1.90567
H    -1.38995   3.39104  -3.21903
H    -2.65099   4.23278  -2.32174
H    -3.11639   2.98085  -3.52353
H     1.72295   2.45256  -1.24383
H     2.05081   1.70472  -2.82192
H     0.72449   2.86800  -2.65864
H     0.22895  -0.24691  -3.68531
H    -1.31634  -0.18291  -2.81360
H    -0.73956   1.23626  -3.73245
