38
Generated by autodE on: 2022-06-18. E = -784.923133 Ha
C    -3.24003  -1.06335   0.70366
C    -2.79831  -0.46574  -0.41113
C    -3.66186   0.42524  -1.25691
C    -1.36513  -0.60663  -0.87911
N    -0.83384  -1.98116  -0.81204
N     0.57787  -1.85856  -0.81001
C     1.11376  -1.79776  -2.16960
N     0.84468  -0.62631  -0.11737
C     1.80986  -0.54483   0.82985
O     1.88390   0.36093   1.63806
O     2.70625  -1.54139   0.74722
C     3.77897  -1.49978   1.69394
C    -0.35682   0.23164  -0.04390
C    -0.13376   1.61507  -0.56972
C    -0.34201   2.75206   0.11710
C    -0.09411   4.09565  -0.51001
C    -0.81534   2.76574   1.55478
H    -2.59342  -1.68490   1.33107
H    -4.27560  -0.94331   1.03483
H    -4.67698   0.52410  -0.84625
H    -3.73169   0.03752  -2.28789
H    -3.21300   1.43107  -1.33242
H    -1.30255  -0.27218  -1.92465
H    -1.09216  -2.38661   0.08944
H     0.89459  -2.75089  -2.66958
H     2.20359  -1.67779  -2.10434
H     0.70049  -0.96840  -2.77138
H     4.39490  -2.38351   1.48824
H     3.39575  -1.54148   2.72408
H     4.37835  -0.58630   1.56578
H    -0.69331   0.25954   1.00079
H     0.22049   1.66799  -1.60554
H    -1.01890   4.69936  -0.51777
H     0.27624   4.01139  -1.54245
H     0.64189   4.66922   0.08102
H    -1.75259   2.20317   1.68728
H    -0.98907   3.79347   1.90491
H    -0.06397   2.30582   2.21750
