23
Generated by autodE on: 2022-06-18. E = -351.521381 Ha
C    -3.48019   0.27673  -1.45360
C    -2.51193   0.33623  -0.51298
C    -2.82152   0.74169   0.90550
C    -1.13280   0.00135  -0.86251
C    -0.07573   0.01685  -0.01209
C     1.27446  -0.32656  -0.40902
C     2.37796  -0.34340   0.38080
C     2.38017  -0.00020   1.84349
C     3.71913  -0.72385  -0.17979
H    -4.52002   0.52099  -1.21913
H    -3.25214  -0.01827  -2.48252
H    -3.89020   0.96554   1.03162
H    -2.54882  -0.05693   1.61532
H    -2.24363   1.63376   1.19910
H    -0.95940  -0.28533  -1.90681
H    -0.24120   0.30100   1.03060
H     1.40325  -0.60040  -1.46322
H     3.07378   0.83676   2.03853
H     1.39246   0.27590   2.23455
H     2.75762  -0.85328   2.43471
H     4.44841   0.09429  -0.03975
H     4.13403  -1.59658   0.35599
H     3.66866  -0.96532  -1.25168
