15
Generated by autodE on: 2022-07-27. E = -433.376976 Ha
C     1.90238   1.18998   2.08540
O     1.34379   1.15723   0.76870
C     0.41151   0.21685   0.53805
O     0.05371  -0.57690   1.41071
N    -0.01758   0.31971  -0.75775
N    -0.94871  -0.53776  -1.15738
C    -1.32033  -0.32717  -2.57071
N    -1.53957  -1.46714  -0.54506
H     2.62867   2.01163   2.08413
H     1.12177   1.37897   2.83730
H     2.40841   0.24142   2.31959
H    -0.42265  -0.47358  -3.18398
H    -1.67322   0.70535  -2.68061
H    -2.10169  -1.04659  -2.83029
H    -1.16128  -1.47644   0.41838
