38
Generated by autodE on: 2022-06-18. E = -784.865898 Ha. Imaginary frequency = -448.0 cm-1
C    -3.51884  -0.55456   0.59678
C    -3.10256  -0.46461  -0.68162
C    -4.01817  -0.77330  -1.83662
C    -1.70709  -0.14967  -1.06468
N    -0.99622  -2.08258  -1.02825
N     0.24527  -1.87806  -0.66431
C     1.18633  -1.74361  -1.78145
N     0.35252  -1.09783   0.42521
C     1.57532  -0.92457   1.01440
O     2.58996  -1.59350   0.85525
O     1.50493   0.09948   1.88443
C     2.71187   0.44036   2.56865
C    -0.81877   0.55586  -0.20074
C     0.16534   1.47534  -0.75425
C     0.72301   2.54478  -0.13538
C     1.71230   3.41233  -0.86135
C     0.41259   2.98577   1.26660
H    -4.55057  -0.83006   0.83146
H    -2.85487  -0.35483   1.44219
H    -5.03197  -1.03308  -1.50007
H    -3.61656  -1.61539  -2.42582
H    -4.08496   0.08697  -2.52437
H    -1.54879   0.01094  -2.13474
H    -1.53857  -2.19213  -0.16384
H     2.21046  -1.71876  -1.40045
H     0.96697  -0.81908  -2.33866
H     1.05150  -2.60736  -2.44218
H     3.08412  -0.41139   3.15664
H     2.45677   1.27168   3.23616
H     3.48820   0.75655   1.85589
H    -1.16942   0.76169   0.81001
H     0.45386   1.28784  -1.79413
H     2.67910   3.42576  -0.32654
H     1.36699   4.46107  -0.89522
H     1.89001   3.06952  -1.89117
H    -0.27549   2.31817   1.79925
H    -0.02911   3.99816   1.25122
H     1.34112   3.06476   1.85685
