36
Generated by autodE on: 2022-06-17. E = -692.380736 Ha
C     4.64344  -0.70767   1.44533
C     3.75681  -0.00062   0.71615
C     4.16242   1.21946  -0.06723
C     2.35245  -0.42257   0.67895
C     1.36925   0.19450  -0.00055
C    -0.04977  -0.26539   0.04636
N    -0.63159  -0.35839  -1.33084
C    -0.63553  -1.54607  -1.93775
N    -0.57965  -2.55214  -2.52962
O    -1.92235   0.26040  -1.35724
C    -2.38377   0.29755   0.02612
C    -3.47490   1.35569   0.06398
C    -2.95528  -1.06869   0.40764
C    -1.06638   0.66372   0.78265
C    -0.70534   2.14335   0.59453
C    -1.09590   0.33741   2.27456
H     4.33384  -1.59214   2.01038
H     5.69759  -0.42108   1.49695
H     3.94191   1.09200  -1.14014
H     5.23629   1.42537   0.04376
H     3.60111   2.10840   0.26551
H     2.10382  -1.31517   1.26501
H     1.57443   1.07877  -0.60824
H    -0.09009  -1.25937   0.51359
H    -3.75982   1.55393   1.10762
H    -4.36613   0.99707  -0.47225
H    -3.14698   2.29535  -0.39791
H    -3.43178  -1.02167   1.39698
H    -3.72029  -1.35440  -0.32907
H    -2.19319  -1.86029   0.43704
H     0.28243   2.35016   1.03051
H    -1.43289   2.78565   1.11017
H    -0.67822   2.43144  -0.46631
H    -1.30134  -0.72446   2.46738
H    -0.12244   0.57938   2.72868
H    -1.86381   0.94009   2.78378
