23
Generated by autodE on: 2022-06-17. E = -351.521381 Ha
C     3.51506   1.35766   0.31739
C     2.53609   0.42746   0.27072
C     2.84136  -1.03987   0.43175
C     1.14875   0.83762   0.06274
C     0.07831   0.00601   0.00435
C    -1.27977   0.46614  -0.20211
C    -2.40006  -0.29718  -0.26556
C    -2.41734  -1.79317  -0.12776
C    -3.74708   0.33125  -0.48571
H     3.29008   2.42232   0.20073
H     4.56100   1.07887   0.47282
H     2.51982  -1.61229  -0.45419
H     2.30146  -1.46579   1.29380
H     3.91718  -1.20892   0.58054
H     0.98007   1.91520  -0.05211
H     0.23850  -1.06944   0.11887
H    -1.39997   1.55027  -0.31673
H    -3.06497  -2.09116   0.71574
H    -2.85850  -2.25458  -1.02897
H    -1.42495  -2.23431   0.03112
H    -3.68523   1.42525  -0.58101
H    -4.43191   0.09115   0.34749
H    -4.22327  -0.07266  -1.39726
