45
Generated by autodE on: 2022-06-22. E = -1109.123009 Ha
C    -4.50828  -3.03085  -0.35797
N    -3.48423  -2.01802  -0.19291
C    -2.17394  -2.26889  -0.30132
O    -1.66418  -3.36481  -0.54368
C    -1.26288  -1.07784  -0.10737
C    -0.14210  -1.22860   0.94741
C     0.24282   0.25910   1.22658
C    -0.11525   0.65646   2.66555
C     1.66490   0.65438   0.92256
C     2.60557  -0.08291   0.30239
C     3.95213   0.39827   0.04121
C     4.95027  -0.27703  -0.57793
C     6.29735   0.35821  -0.78116
C     4.82835  -1.67694  -1.11120
C    -0.77154   0.95126   0.23384
C    -1.03654   2.43493   0.42256
O    -0.11556   3.23939   0.27091
N    -2.28465   2.75740   0.77037
C    -2.67331   4.13355   1.01785
O    -0.28985   0.72584  -1.12019
C    -0.56463  -0.57709  -1.38159
O    -0.26200  -1.14390  -2.39415
O    -1.91598   0.13811   0.30035
H    -4.02770  -4.01359  -0.42927
H    -5.19394  -3.02749   0.50205
H    -5.09443  -2.85547  -1.27383
H    -3.76820  -1.05875  -0.01682
H     0.67473  -1.85132   0.57045
H    -0.56224  -1.70120   1.84362
H     0.11057   1.71757   2.85048
H     0.47607   0.05418   3.37092
H    -1.18130   0.48003   2.86918
H     1.92294   1.67061   1.23898
H     2.36051  -1.09417  -0.03171
H     4.16502   1.41726   0.38575
H     7.08970  -0.24275  -0.29993
H     6.34071   1.37986  -0.37610
H     6.55333   0.39697  -1.85518
H     5.04199  -1.69204  -2.19453
H     3.84028  -2.12777  -0.95254
H     5.58394  -2.33106  -0.64149
H    -2.97748   2.01785   0.83484
H    -2.62909   4.73258   0.09447
H    -3.69947   4.14836   1.40287
H    -2.00411   4.59687   1.75819
