46
Generated by autodE on: 2022-06-05. E = -3899.611573 Ha
C    -2.99891  -3.05657  -0.66267
N    -2.24558  -1.82118  -0.78242
C    -1.61935  -1.28567   0.25748
O    -1.65256  -1.76735   1.40078
C    -0.80257   0.00084  -0.00374
C    -1.27275   1.19596   0.91660
O    -1.15053   2.34762   0.50819
N    -1.71110   0.87109   2.13084
C    -1.93388   1.88599   3.14454
N    -0.81066   0.42971  -1.39661
C    -1.72992   1.32376  -1.90567
O    -1.47762   2.09624  -2.81280
O    -2.92358   1.14441  -1.33982
C    -3.93001   2.12066  -1.64401
N     0.51412   0.49392  -1.93523
C     1.40699   0.69079  -0.79541
C     1.53026   2.12174  -0.43803
N     1.73851   3.26338  -0.40685
C     2.89129   0.25899  -1.10602
C     3.23115   0.01727  -2.53817
O     3.67282   0.20760  -0.18585
C     0.73769  -0.23021   0.26567
Br    1.23250  -2.10267  -0.24769
C     1.16401   0.04446   1.72580
O     1.67737   1.12598   2.00284
N     0.88784  -0.90890   2.62112
C     1.01803  -0.65073   4.04455
H    -2.32990  -3.90763  -0.45822
H    -3.53104  -3.23696  -1.60380
H    -3.72700  -2.98512   0.15825
H    -2.14704  -1.37663  -1.68972
H    -1.75840  -0.11989   2.37039
H    -0.99578   2.41688   3.37169
H    -2.30233   1.39921   4.05497
H    -2.67593   2.62397   2.80524
H    -4.12506   2.14949  -2.72482
H    -4.82808   1.80049  -1.10403
H    -3.60983   3.11256  -1.29361
H     0.53479   1.28197  -2.58940
H     4.29414  -0.23862  -2.62715
H     3.00902   0.92980  -3.11721
H     2.59882  -0.78178  -2.95054
H     0.26639  -1.66225   2.32983
H     0.95193  -1.60224   4.58600
H     1.98897  -0.18355   4.25496
H     0.22130   0.02351   4.40195
