27
Generated by autodE on: 2022-06-05. E = -3276.570270 Ha
C     3.20600  -0.58755   2.84857
N     2.41500  -0.01060   1.77809
C     1.26080  -0.57107   1.39247
O     0.80805  -1.59360   1.91962
C     0.48783   0.08142   0.27754
Br    1.27281   1.59611  -0.60565
C    -0.72908  -0.34796  -0.08542
C    -1.51204   0.23592  -1.24127
O    -1.13809   0.08228  -2.40483
N    -2.63846   0.87106  -0.88764
C    -3.54314   1.42682  -1.87751
C    -1.50475  -1.42144   0.65603
O    -2.27106  -1.07019   1.55740
N    -1.43519  -2.66644   0.16247
C    -0.42227  -3.13945  -0.76694
H     3.50520  -1.61886   2.60522
H     4.10597   0.02196   2.98996
H     2.63676  -0.61162   3.79084
H     2.74672   0.82974   1.31785
H    -2.89788   0.88111   0.09521
H    -4.35596   1.94934  -1.35977
H    -3.01699   2.14111  -2.52844
H    -3.97318   0.63676  -2.51384
H    -1.97137  -3.36212   0.67770
H     0.53958  -3.32316  -0.26164
H    -0.76820  -4.07627  -1.22206
H    -0.26598  -2.40777  -1.57017
