19
Generated by autodE on: 2022-06-05. E = -623.020235 Ha
C     4.38723  -0.02326  -0.45728
O     3.16942  -0.24540   0.27015
C     2.04264   0.05979  -0.35854
O     1.96586   0.51215  -1.48903
N     0.95237  -0.22075   0.47704
N    -0.15011   0.06323  -0.12199
C    -1.38140  -0.07260   0.34764
C    -1.59305  -0.58363   1.65138
N    -1.79349  -1.00146   2.71922
C    -2.47475   0.33388  -0.57797
C    -3.87899   0.18573  -0.08687
O    -2.17413   0.76291  -1.68373
H     4.49106   1.04126  -0.71228
H     5.19728  -0.33540   0.21134
H     4.39749  -0.62566  -1.37704
H    -0.10435   0.44658  -1.09412
H    -4.01729   0.77308   0.83569
H    -4.58207   0.52276  -0.85798
H    -4.07444  -0.86833   0.17034
