19
Generated by autodE on: 2022-07-27. E = -623.012429 Ha
C    -4.05857   0.89078  -1.37651
O    -2.83384   0.14918  -1.26336
C    -1.90044   0.66682  -0.47886
O    -2.00151   1.71020   0.14740
N    -0.77422  -0.16663  -0.47688
N     0.13784   0.33405   0.28532
C     1.34776  -0.14904   0.55163
C     2.15132   0.62598   1.43641
N     2.81094   1.25592   2.15857
C     1.94803  -1.40652   0.02454
C     1.17171  -2.28146  -0.90695
O     3.08555  -1.67215   0.39196
H    -4.69700   0.31340  -2.05442
H    -4.53737   0.98939  -0.39167
H    -3.86262   1.88914  -1.79346
H    -0.11815   1.23467   0.74691
H     0.23087  -2.60325  -0.43531
H     1.78919  -3.15025  -1.16818
H     0.88956  -1.72205  -1.81178
