46
Generated by autodE on: 2022-06-05. E = -3899.560830 Ha. Imaginary frequency = -349.9 cm-1
C    -2.54253  -2.58294  -2.05750
N    -1.68050  -1.53498  -1.54698
C    -1.79894  -1.07810  -0.30047
O    -2.60555  -1.52921   0.51806
C    -0.82269   0.01950   0.15674
C    -1.53691   1.21248   0.86154
O    -1.44110   2.37681   0.47285
N    -2.28163   0.84177   1.90642
C    -3.03656   1.81615   2.67117
N    -0.31192   0.89538  -1.47047
C    -1.28131   1.78411  -1.99645
O    -1.01167   2.85703  -2.49094
O    -2.48179   1.23043  -1.94215
C    -3.58394   2.05240  -2.35623
N     0.82069   1.51665  -1.19305
C     1.88969   0.78463  -0.84799
C     2.89502   1.44855  -0.07818
N     3.71677   1.97110   0.55487
C     2.34987  -0.47002  -1.52528
C     1.63445  -0.99242  -2.73345
O     3.35123  -1.00507  -1.07702
C     0.37351  -0.45339   0.76995
Br    0.79225  -2.33301   0.62284
C     1.03235   0.29489   1.88245
O     0.78006   1.49867   2.03537
N     1.90383  -0.35186   2.67602
C     2.63108   0.35256   3.71546
H    -2.16870  -2.89954  -3.03890
H    -3.58185  -2.23125  -2.16643
H    -2.54051  -3.44686  -1.37683
H    -1.08142  -1.02312  -2.18541
H    -2.46199  -0.15504   2.01703
H    -3.80149   2.31341   2.05269
H    -2.36469   2.58928   3.07295
H    -3.53038   1.30427   3.50585
H    -3.45783   2.36493  -3.40191
H    -4.47715   1.42761  -2.24787
H    -3.65288   2.93584  -1.70544
H     0.75437   2.48574  -0.84977
H     0.86899  -1.71633  -2.41538
H     2.36697  -1.53220  -3.34831
H     1.14260  -0.20310  -3.31510
H     2.11508  -1.32777   2.50664
H     3.29121   1.12353   3.28837
H     1.93871   0.84333   4.41617
H     3.24111  -0.37174   4.26827
