42
Generated by autodE on: 2022-06-23. E = -1232.266542 Ha
C     3.83429  -1.89571  -1.51365
N     2.77773  -0.95888  -1.17944
C     1.99653  -1.13636  -0.11159
O     2.09584  -2.07430   0.68147
C     0.91864  -0.06666   0.12082
C     1.35911   0.92939   1.22246
O     0.82214   2.00876   1.35433
O     2.44100   0.54168   1.87660
C     2.90487   1.40538   2.92717
O     0.74625   0.72773  -1.06542
C    -0.59887   1.13791  -1.22322
C    -1.09284   0.68476  -2.54004
N    -1.47205   0.33794  -3.57785
C    -0.68748   2.61126  -1.18420
N    -0.77330   3.76639  -1.16010
C    -1.41158   0.47839  -0.00923
N    -2.76574   0.12205  -0.26091
C    -3.73509   1.20249  -0.35458
C    -3.04806  -1.12075  -0.80505
C    -2.13631  -2.09972  -0.96071
C    -0.68737  -1.88995  -0.62603
C    -0.47508  -0.70788   0.35561
C    -0.68998  -1.08674   1.82918
N    -1.59424  -2.04198   2.07236
O    -0.07628  -0.50162   2.72545
H     4.37935  -1.51777  -2.38645
H     4.53602  -2.00762  -0.67336
H     3.42412  -2.89003  -1.75150
H     2.57886  -0.17707  -1.79582
H     2.12950   1.49649   3.70131
H     3.80012   0.92516   3.33714
H     3.14940   2.39898   2.52657
H    -1.38082   1.22338   0.79481
H    -4.75095   0.79343  -0.26916
H    -3.66120   1.75408  -1.31004
H    -3.57466   1.91531   0.46768
H    -4.09816  -1.26984  -1.06515
H    -2.45003  -3.06213  -1.36668
H    -0.10946  -1.70243  -1.54726
H    -0.24536  -2.79403  -0.18636
H    -1.79872  -2.28428   3.03765
H    -2.14544  -2.45890   1.32625
