20
Generated by autodE on: 2022-06-23. E = -457.715337 Ha
C    -3.14335  -0.46608   0.05118
N    -1.82256   0.11071  -0.13825
C    -1.70361   1.46269  -0.48371
C    -0.51747   2.08220  -0.58976
C     0.79979   1.38861  -0.34435
C     0.57143  -0.06484   0.03740
C     1.69994  -0.96271   0.33048
N     2.93582  -0.40770   0.25603
O     1.56278  -2.16635   0.63049
C    -0.68324  -0.59115   0.11849
H    -3.77197  -0.29461  -0.83636
H    -3.65315  -0.02869   0.92629
H    -3.04761  -1.54785   0.20696
H    -2.65009   1.97521  -0.66496
H    -0.50604   3.13767  -0.87113
H     1.36875   1.92137   0.44515
H     1.44312   1.46387  -1.24501
H     3.08466   0.56661   0.02644
H     3.74246  -0.98790   0.45846
H    -0.81884  -1.63693   0.39886
