22
Generated by autodE on: 2022-06-23. E = -774.469200 Ha
C    -2.12463  -3.29156  -0.56613
N    -1.19363  -2.39741   0.09277
C    -0.88129  -1.20878  -0.43986
O    -1.38440  -0.75078  -1.47464
C     0.17304  -0.41660   0.24463
O     0.35998   0.82890  -0.05403
C    -0.28707   1.78676  -0.68520
C     0.43800   3.00004  -0.78710
N     1.02010   4.00360  -0.89963
C    -1.64358   1.76932  -1.08319
N    -2.76002   1.93864  -1.37638
C     1.21296  -0.98733   1.13329
O     1.14273  -2.12134   1.57963
O     2.18987  -0.13269   1.40038
C     3.22949  -0.59529   2.28040
H    -3.03879  -2.74874  -0.84643
H    -2.38440  -4.10377   0.12299
H    -1.69150  -3.72602  -1.48268
H    -0.62159  -2.72738   0.86959
H     3.92860   0.24211   2.38042
H     3.73541  -1.46833   1.84441
H     2.80635  -0.86308   3.25893
