20
Generated by autodE on: 2022-06-22. E = -457.715330 Ha
C    -3.07246   0.67151   0.44336
N    -1.80848  -0.02942   0.28685
C    -1.80798  -1.41582   0.08788
C    -0.68803  -2.11102  -0.16592
C     0.67519  -1.47172  -0.26403
C     0.57195   0.03200  -0.06750
C     1.76161   0.89622  -0.13336
N     2.94093   0.27140  -0.37815
O     1.72230   2.13400   0.02123
C    -0.62392   0.63617   0.18222
H    -3.65878   0.66422  -0.49138
H    -2.87743   1.71372   0.72591
H    -3.67752   0.20252   1.23428
H    -2.78852  -1.89021   0.15879
H    -0.76717  -3.19198  -0.30239
H     1.13757  -1.71247  -1.24315
H     1.36173  -1.92210   0.48232
H     3.78438   0.83198  -0.43120
H     3.01704  -0.72990  -0.50392
H    -0.67042   1.71780   0.31757
