45
Generated by autodE on: 2022-06-22. E = -1254.549284 Ha. Imaginary frequency = -391.9 cm-1
C    -4.09714   3.42581   1.66860
N    -3.06446   2.41148   1.55125
C    -2.72454   1.89192   0.36674
O    -3.19675   2.22278  -0.72110
C    -1.64230   0.86555   0.43012
N    -1.58553  -0.31093   0.13998
C    -0.66274  -1.29097   0.18748
C    -0.58514  -2.13373   1.38073
O     0.21320  -3.04187   1.55136
O    -1.48788  -1.76819   2.31135
C    -1.42603  -2.46117   3.56292
C     0.01358  -1.64661  -1.06556
O     0.88425  -2.49292  -1.18204
O    -0.41635  -0.88521  -2.08605
C     0.22789  -1.07349  -3.35281
C     0.94990   0.28367   1.40695
C     2.21344  -0.27683   0.81775
C     2.43617   0.27777  -0.57160
C     3.38311  -0.33571  -1.51461
N     4.13064  -1.35986  -1.03969
O     3.51981   0.05494  -2.69322
C     1.78174   1.40185  -0.96950
N     0.89440   2.09448  -0.19261
C     0.15386   3.20714  -0.76941
C     0.38639   1.47662   0.97080
H    -5.08512   3.02310   1.39518
H    -4.13003   3.77612   2.70654
H    -3.87698   4.27660   1.00677
H    -2.60197   2.06119   2.38649
H    -1.60885  -3.53654   3.42265
H    -2.21348  -2.02434   4.18832
H    -0.44390  -2.31810   4.03727
H     0.17893  -2.12787  -3.66033
H    -0.32487  -0.44822  -4.06388
H     1.27701  -0.74936  -3.30320
H     0.64611  -0.06768   2.39437
H     3.06215  -0.02741   1.49045
H     2.17102  -1.37910   0.81288
H     4.01986  -1.72747  -0.10336
H     4.76108  -1.83524  -1.67615
H     1.96839   1.81978  -1.96012
H    -0.23198   3.84830   0.03515
H     0.82022   3.80626  -1.40389
H    -0.69724   2.85961  -1.37870
H    -0.08816   2.15175   1.68481
