50
Generated by autodE on: 2022-06-26. E = -1315.950668 Ha
C    -2.83096   3.72854  -0.03900
N    -2.52748   2.33336  -0.28034
C    -1.76905   1.95074  -1.31131
O    -1.45721   2.65976  -2.26904
C    -1.38354   0.43563  -1.30837
C    -1.83318  -0.01674  -2.64822
N    -2.28123  -0.35272  -3.66464
N    -2.01643  -0.31650  -0.24354
C    -1.16587  -1.38575   0.29664
C    -1.90959  -2.72972   0.27429
C    -0.86014  -1.16214   1.80174
C    -1.54412  -0.04803   2.53062
O    -0.11270  -1.94168   2.37042
C     0.13873  -1.34439  -0.61475
C     0.02691  -2.33151  -1.78450
C     1.42023  -1.72136   0.14179
O     1.94620  -2.81166  -0.00915
C     2.05934  -0.71327   1.02137
O     3.00234  -1.04206   1.90177
C     3.17709  -2.37121   2.41981
C     1.75800   0.61854   0.88568
O     2.36908   1.49333   1.71835
C     2.94948   2.68461   1.16784
C     0.70934   1.09792  -0.01347
O     0.34209   2.26516   0.05651
C     0.15214   0.15270  -1.09164
C     1.00509   0.42824  -2.33912
H    -3.65477   3.80329   0.68211
H    -1.95448   4.26497   0.36324
H    -3.13121   4.21547  -0.97683
H    -2.61555   1.65635   0.47417
H    -2.95159  -0.63672  -0.48261
H    -2.28369  -2.95045  -0.73320
H    -1.25105  -3.54044   0.61066
H    -2.77287  -2.68107   0.95630
H    -1.17527   0.91752   2.14851
H    -1.32864  -0.12586   3.60364
H    -2.62851  -0.06634   2.34822
H     0.89467  -2.23402  -2.44877
H     0.01847  -3.35919  -1.40720
H    -0.88116  -2.17914  -2.37474
H     3.72994  -2.23903   3.35894
H     3.76227  -2.98672   1.72534
H     2.20986  -2.84619   2.62338
H     3.76455   2.97014   1.84690
H     3.36490   2.49197   0.16659
H     2.21325   3.49732   1.11113
H     0.65801  -0.15162  -3.20301
H     0.94601   1.49462  -2.59395
H     2.05538   0.17047  -2.14226
