24
Generated by autodE on: 2022-06-26. E = -626.472860 Ha
C     4.28711   0.56331   0.18732
N     3.05429  -0.18256   0.34643
C     1.86214   0.35971   0.03958
O     1.74148   1.52044  -0.39162
C     0.65620  -0.47683   0.23000
C     0.72673  -1.79482   0.71761
N     0.88917  -2.87754   1.12904
N    -0.48923   0.15694  -0.10339
C    -1.77099  -0.15160  -0.11564
C    -2.26820  -1.48892   0.30451
C    -2.61856   0.96823  -0.58371
C    -4.10414   0.76656  -0.64734
O    -2.09160   2.03564  -0.90746
H     4.44250   0.86214  -0.86163
H     5.12517  -0.07049   0.50085
H     4.28455   1.47679   0.80295
H     3.09853  -1.13578   0.69144
H    -0.29618   1.12526  -0.42847
H    -3.35501  -1.56205   0.19307
H    -2.01758  -1.68873   1.35977
H    -1.80617  -2.28713  -0.29937
H    -4.35120  -0.06914  -1.32182
H    -4.50046   0.50645   0.34748
H    -4.58205   1.68607  -1.00743
