50
Generated by autodE on: 2022-06-26. E = -1315.899522 Ha. Imaginary frequency = -314.8 cm-1
C    -1.15235   3.73000   0.47382
N    -1.74641   2.62275  -0.25419
C    -1.60088   1.35014   0.16178
O    -1.12425   1.06079   1.26936
C    -2.01117   0.28570  -0.78706
C    -2.81247   0.66087  -1.90016
N    -3.43532   0.98290  -2.83090
N    -2.15512  -1.02514  -0.38429
C    -1.24379  -1.72945   0.34463
C    -1.48328  -3.21929   0.39424
C    -0.85832  -1.26409   1.75162
C    -2.01887  -1.09034   2.70387
O     0.28638  -1.32515   2.15853
C     0.43005  -1.41224  -1.04299
C     0.29135  -2.65029  -1.90556
C     1.60916  -1.47278  -0.12560
O     2.21008  -2.52839   0.05631
C     2.11363  -0.20878   0.48223
O     3.04606  -0.20417   1.44617
C     3.40583  -1.34197   2.23838
C     1.69293   0.99483  -0.00858
O     2.08195   2.20122   0.48142
C     2.03552   2.40449   1.89887
C     0.84767   1.07037  -1.21034
O     0.71601   2.14745  -1.79994
C     0.16875  -0.15990  -1.68671
C    -0.24040  -0.13261  -3.13393
H    -1.65393   4.66117   0.18065
H    -1.28337   3.57963   1.55264
H    -0.07652   3.81758   0.25681
H    -1.96972   2.78209  -1.23246
H    -2.65174  -1.59921  -1.06708
H    -1.84427  -3.60150  -0.56886
H    -0.55093  -3.73128   0.66678
H    -2.23454  -3.46009   1.16372
H    -1.72106  -0.40135   3.50467
H    -2.22833  -2.07512   3.15486
H    -2.92762  -0.73211   2.20720
H     0.51095  -3.56232  -1.34276
H    -0.71511  -2.73058  -2.33540
H     1.00408  -2.60031  -2.74539
H     3.93510  -0.92681   3.10678
H     4.07584  -2.01129   1.68329
H     2.52079  -1.89273   2.57530
H     1.18946   1.85934   2.34218
H     1.89255   3.48306   2.05253
H     2.97108   2.08646   2.37991
H    -1.06669  -0.82127  -3.34981
H    -0.52983   0.87859  -3.44089
H     0.61391  -0.44543  -3.76084
