62
Generated by autodE on: 2022-07-03. E = -6806.883194 Ha
C    -1.50218   7.65573  -6.97965
N    -1.94927   7.73257  -5.60177
C    -1.34328   8.53171  -4.71420
O    -0.47686   9.34982  -4.99600
C    -1.83434   8.44899  -3.22079
C    -3.18062   7.81258  -3.10314
N    -4.30003   7.52031  -2.99825
C    -0.77900   7.81202  -2.27774
C    -0.46142   8.69831  -1.29346
C    -1.27306   9.99995  -1.47002
C    -2.42532  10.04060  -0.40711
C    -3.16691  11.30395  -0.07934
O    -2.79529   8.97731   0.05827
C    -0.32743  11.22951  -1.75764
C    -0.51171  12.56715  -1.11079
O     0.50048  11.06267  -2.63041
N    -2.00262   9.77845  -2.70464
C    -2.56136  10.83865  -3.51767
C     0.46263   8.46899  -0.07668
C     1.90327   8.09267  -0.50462
C     2.42254   8.58174  -1.71130
C     3.73934   8.30630  -2.08608
C     4.56449   7.54639  -1.25566
C     4.06300   7.07387  -0.03905
C     2.74785   7.35144   0.33710
C     0.70557   9.75174   0.77740
F     1.40078  10.70124   0.12498
F     1.40930   9.45329   1.87838
F    -0.42879  10.34565   1.21003
C    -0.23688   7.48799   0.94028
C    -1.03129   6.29449   0.42072
C    -0.24106   5.19505  -0.27334
C     0.51262   5.60150  -1.53887
C    -0.24516   6.41774  -2.58022
Br    1.02939   6.53930  -4.14171
Br   -1.72196   5.19881  -3.20538
H    -1.33085   8.66574  -7.37572
H    -0.56171   7.08566  -7.06271
H    -2.27413   7.15897  -7.58007
H    -2.60394   7.03196  -5.27045
H    -3.28452  11.97648  -0.93715
H    -2.61122  11.85277   0.69657
H    -4.14975  11.03006   0.32626
H    -0.63606  12.50281  -0.02409
H    -1.41948  13.03376  -1.52502
H     0.35284  13.19546  -1.36000
H    -3.05557  11.58673  -2.88530
H    -3.33480  10.41719  -4.17656
H    -1.80876  11.34468  -4.14485
H     1.79264   9.17361  -2.37397
H     4.11500   8.68456  -3.03934
H     5.59261   7.32477  -1.55112
H     4.69709   6.48171   0.62465
H     2.38503   6.96183   1.28694
H     0.52087   7.13729   1.65069
H    -0.93981   8.09715   1.52065
H    -1.52145   5.85240   1.30318
H    -1.85285   6.64137  -0.22125
H    -0.92940   4.37014  -0.51331
H     0.51122   4.78243   0.41907
H     0.86005   4.69327  -2.04853
H     1.41630   6.15826  -1.28647
