29
Generated by autodE on: 2022-07-03. E = -779.152372 Ha
C     3.54447  -0.56409  -1.84712
N     2.82088  -0.27272  -0.62386
C     1.51259  -0.54528  -0.51201
O     0.85330  -1.09891  -1.39094
C     0.89910  -0.22440   0.82982
C     1.73331  -0.25707   1.97761
N     2.46105  -0.28135   2.88810
N    -0.42095  -0.14254   0.99272
C    -0.97007  -0.34190   2.35063
C    -1.26136   0.28773  -0.01928
C    -0.77801   1.40673  -0.83354
C    -1.75116   2.16258  -1.70391
O     0.40021   1.77862  -0.78375
C    -2.57241  -0.34214  -0.18226
C    -2.77212  -1.74702   0.35740
O    -3.48572   0.18440  -0.82275
H     3.43993  -1.62540  -2.11671
H     3.16627   0.04160  -2.68662
H     4.60575  -0.33705  -1.69273
H     3.29150   0.24211   0.11456
H    -0.50169   0.38826   3.02556
H    -0.75340  -1.35961   2.69767
H    -2.04505  -0.14961   2.33718
H    -2.12792   1.50613  -2.50292
H    -1.21727   3.01452  -2.14483
H    -2.62720   2.50523  -1.13829
H    -3.36663  -1.71203   1.28399
H    -1.83529  -2.28249   0.55575
H    -3.36068  -2.30327  -0.38622
