29
Generated by autodE on: 2022-07-27. E = -779.148895 Ha
C    -0.85917  -2.93604  -3.52995
N    -0.44273  -2.43138  -2.23505
C    -0.37415  -1.11413  -1.98776
O    -0.63717  -0.25029  -2.83040
C    -0.01734  -0.74209  -0.57482
C    -0.46929  -1.58550   0.46849
N    -0.82664  -2.34092   1.28389
N     0.63246   0.39959  -0.26184
C     1.60288   0.95358  -1.23063
C     0.38855   1.00502   0.93549
C    -0.98609   0.95779   1.48561
C    -2.16940   0.93267   0.53429
O    -1.19325   1.05920   2.69133
C     1.49225   1.70291   1.63057
C     1.18199   2.59952   2.79975
O     2.65488   1.54889   1.25758
H    -1.80208  -2.46286  -3.84111
H    -1.00734  -4.01971  -3.45569
H    -0.10171  -2.73090  -4.30366
H    -0.16133  -3.09308  -1.51732
H     1.72768   2.02269  -1.04448
H     1.20011   0.79535  -2.23418
H     2.55921   0.42972  -1.11935
H    -1.91223   0.97401  -0.53067
H    -2.78066   0.03812   0.72803
H    -2.78289   1.80976   0.79317
H     0.93908   1.98913   3.68225
H     0.31331   3.24459   2.60564
H     2.07248   3.20597   3.01144
