33
Generated by autodE on: 2022-07-03. E = -6027.672323 Ha
F    -2.64956   1.21685   2.22332
C    -1.36295   1.16251   2.60624
F    -1.34674   1.01138   3.94018
F    -0.82025   2.36211   2.33539
C    -0.61315   0.01851   1.89623
C    -1.34718  -1.30201   2.17964
C    -2.24795  -1.82801   1.24380
C    -2.94312  -3.01009   1.51027
C    -2.74719  -3.68157   2.71984
C    -1.85392  -3.16041   3.66019
C    -1.15879  -1.97818   3.39381
C    -0.52993   0.29129   0.45995
C    -0.03152   0.33855  -0.64342
C     0.99968   0.19020  -1.62978
Br    0.28002  -0.56903  -3.32462
Br    1.76976   1.98783  -2.04537
C     2.09078  -0.73905  -1.06930
C     2.59048  -0.40623   0.35146
C     1.80018  -0.95690   1.57102
C     0.88347   0.00738   2.35311
H    -2.40596  -1.31241   0.29475
H    -3.63848  -3.40673   0.76695
H    -3.28718  -4.60796   2.92893
H    -1.69268  -3.67669   4.60932
H    -0.46948  -1.58877   4.14304
H     2.93099  -0.73151  -1.77871
H     1.66953  -1.75708  -1.07748
H     2.73278   0.68236   0.45164
H     3.60124  -0.83823   0.40288
H     1.23569  -1.85793   1.27913
H     2.55000  -1.30745   2.29554
H     1.26743   1.03423   2.26455
H     0.90769  -0.24388   3.42159
