62
Generated by autodE on: 2022-07-03. E = -6806.792211 Ha. Imaginary frequency = -227.6 cm-1
C    -3.18737   7.29332  -6.60956
N    -2.69689   7.55860  -5.27041
C    -2.52135   8.80329  -4.82345
O    -2.78563   9.80919  -5.48475
C    -2.07973   8.95659  -3.35679
C    -3.07978   8.40113  -2.49368
N    -3.92521   7.86449  -1.89844
C    -0.54549   7.76477  -2.04695
C    -0.28993   8.54144  -1.08092
C    -1.37242  10.51989  -1.75311
C    -2.71145  10.50547  -1.00601
C    -3.85446  11.17970  -1.72685
O    -2.81740  10.09930   0.13070
C    -0.44287  11.64823  -1.35036
C    -0.90965  12.57747  -0.26381
O     0.62777  11.81780  -1.90749
N    -1.40678  10.11715  -3.04904
C    -0.35513  10.50756  -4.01208
C     0.54785   8.38184   0.17510
C     2.01447   8.13968  -0.25523
C     2.54120   8.85844  -1.34033
C     3.85938   8.66362  -1.75359
C     4.67970   7.75330  -1.08045
C     4.17398   7.05918   0.02088
C     2.85390   7.25696   0.43659
C     0.62673   9.59350   1.13880
F     1.18791  10.67808   0.57678
F     1.39774   9.27834   2.20007
F    -0.55751   9.97584   1.63431
C    -0.08797   7.23703   1.02936
C    -0.58923   5.97170   0.33204
C     0.36738   5.13015  -0.52122
C     0.85737   5.68865  -1.86890
C    -0.15583   6.50478  -2.67010
Br    0.68524   6.90343  -4.44939
Br   -1.73361   5.28207  -3.01995
H    -4.11831   7.84818  -6.79697
H    -2.44926   7.59022  -7.37215
H    -3.38458   6.21865  -6.70508
H    -2.39993   6.77994  -4.68707
H    -3.83987  11.01972  -2.81230
H    -3.74941  12.26506  -1.55628
H    -4.80517  10.84132  -1.29461
H    -1.22815  12.03504   0.63371
H    -1.78085  13.14709  -0.62762
H    -0.09724  13.27219  -0.01957
H    -0.29460  11.59671  -4.07915
H    -0.60289  10.10292  -4.99174
H     0.60606  10.10120  -3.68055
H     1.91640   9.57764  -1.86950
H     4.24437   9.22490  -2.60799
H     5.70920   7.59173  -1.40831
H     4.80679   6.35308   0.56342
H     2.48716   6.69766   1.29575
H     0.61994   6.97554   1.82578
H    -0.96072   7.67598   1.53269
H    -0.94579   5.31658   1.14339
H    -1.48960   6.21243  -0.25134
H    -0.14701   4.17782  -0.72205
H     1.26540   4.87198   0.06218
H     1.19095   4.85188  -2.49818
H     1.72696   6.34211  -1.73449
