70
Generated by autodE on: 2022-06-12. E = -1761.289775 Ha
C     3.60279   1.69927   3.09667
N     2.54658   1.44976   2.13677
C     2.77958   0.84868   0.96582
O     3.90062   0.53097   0.56537
C     1.51046   0.61447   0.08038
C     1.87858   1.40839  -1.20504
O     2.68976   1.05948  -2.03329
O     1.27891   2.59486  -1.22153
C     1.54229   3.44605  -2.34686
N     0.31868   1.10267   0.73024
C    -0.89708   0.41371   0.26119
C    -1.37677   1.12412  -1.02943
C    -2.01370   2.37050  -0.88630
C    -2.34692   3.14814  -1.99556
C    -2.05372   2.69607  -3.28638
C    -1.41671   1.46480  -3.44337
C    -1.07955   0.69046  -2.32699
C    -1.98475   0.53764   1.34879
C    -3.33799   0.30094   1.05376
C    -4.31878   0.39830   2.04188
C    -3.97323   0.75056   3.35071
C    -2.63624   1.01538   3.65094
C    -1.65550   0.91323   2.65837
C    -0.35860  -1.07471   0.06963
C    -1.11776  -1.90712  -0.95371
O    -0.65450  -2.80017  -1.63145
O    -2.42375  -1.64698  -0.92073
C    -3.26715  -2.40177  -1.79817
C    -0.45156  -1.91760   1.41598
C    -0.07086  -3.39267   1.18208
C     1.43500  -3.29755   0.81603
C     1.76851  -1.80326   1.06521
C     0.78870  -1.46279   2.19562
C     1.22948  -0.94468  -0.12579
C     1.85108  -1.38477  -1.45722
O     1.35070  -1.30510  -2.55654
O     3.09203  -1.83958  -1.26768
C     3.84418  -2.16574  -2.44220
H     3.93963   0.76689   3.57976
H     3.23022   2.38288   3.86951
H     4.46911   2.15772   2.59866
H     1.57221   1.58701   2.39270
H     1.27075   2.93093  -3.27842
H     2.60539   3.72470  -2.37247
H     0.91494   4.33270  -2.20512
H     0.22532   2.11165   0.63530
H    -2.24352   2.74842   0.11121
H    -2.83935   4.11263  -1.84943
H    -2.31461   3.30102  -4.15783
H    -1.16759   1.09727  -4.44175
H    -0.53815  -0.23622  -2.50018
H    -3.63139   0.04499   0.03884
H    -5.36289   0.20530   1.78338
H    -4.74132   0.82924   4.12385
H    -2.34726   1.30842   4.66324
H    -0.62046   1.13576   2.90830
H    -4.28754  -2.04702  -1.61256
H    -2.98573  -2.21876  -2.84535
H    -3.19057  -3.47610  -1.57919
H    -1.42372  -1.78766   1.89989
H    -0.21372  -3.92628   2.13286
H    -0.67168  -3.91253   0.42796
H     1.63430  -3.61296  -0.21582
H     2.05367  -3.92551   1.47291
H     2.82844  -1.62432   1.26102
H     0.95645  -2.08348   3.08786
H     0.78063  -0.41504   2.49051
H     3.35032  -2.96952  -3.00674
H     3.94878  -1.27780  -3.08177
H     4.82676  -2.49831  -2.08831
