41
Generated by autodE on: 2022-06-12. E = -1032.442405 Ha
C    -4.53717  -1.16149  -2.75306
N    -3.69039  -0.53184  -1.76453
C    -2.39987  -0.88841  -1.60438
O    -1.85691  -1.75066  -2.33810
C    -1.62455  -0.24941  -0.53661
N    -0.31533  -0.70601  -0.53541
C     0.83357  -0.27829  -0.04756
C     0.99032   1.07079   0.52631
C     0.45168   2.18813  -0.13613
C     0.60689   3.46467   0.39979
C     1.28935   3.64248   1.60989
C     1.83388   2.53706   2.26949
C     1.69483   1.25822   1.72677
C     1.98667  -1.18390  -0.15465
C     1.81047  -2.58381  -0.19021
C     2.90668  -3.43364  -0.33157
C     4.19879  -2.90699  -0.42886
C     4.38749  -1.52117  -0.38474
C     3.29566  -0.66591  -0.24712
C    -2.21636   0.53328   0.50831
O    -3.33620   1.06028   0.45369
O    -1.45831   0.62018   1.62142
C    -1.88285   1.52972   2.63606
H    -4.10832  -1.07381  -3.76430
H    -4.68644  -2.23537  -2.54780
H    -5.51732  -0.66822  -2.74710
H    -4.05863   0.15661  -1.11047
H    -0.26727  -1.53814  -1.14404
H    -0.09354   2.05381  -1.07214
H     0.19091   4.32697  -0.12609
H     1.39892   4.64308   2.03427
H     2.36895   2.66977   3.21245
H     2.11514   0.39528   2.24609
H     0.81346  -3.01388  -0.07429
H     2.75177  -4.51470  -0.34891
H     5.05702  -3.57486  -0.53153
H     5.39328  -1.10265  -0.46412
H     3.45274   0.41299  -0.23229
H    -1.95432   2.55248   2.23617
H    -1.11549   1.49012   3.41842
H    -2.85774   1.23366   3.05080
