41
Generated by autodE on: 2022-07-27. E = -1032.442372 Ha
C     5.11590  -1.40984   1.14788
N     4.02512  -0.78336   0.43482
C     2.75963  -0.82371   0.89796
O     2.46032  -1.44691   1.94619
C     1.71717  -0.11097   0.15257
N     0.47796  -0.28729   0.74820
C    -0.78073  -0.15691   0.37522
C    -1.16665   0.07284  -1.02899
C    -2.13969   1.03204  -1.35386
C    -2.49524   1.25120  -2.68610
C    -1.89853   0.50205  -3.70411
C    -0.94511  -0.47271  -3.38409
C    -0.57569  -0.68258  -2.05724
C    -1.80547  -0.31825   1.41685
C    -3.09286  -0.79058   1.08581
C    -4.05321  -0.98271   2.07748
C    -3.75258  -0.70600   3.41575
C    -2.48184  -0.23093   3.75636
C    -1.51788  -0.03246   2.76878
C     1.99928   0.83562  -0.88640
O     3.06478   0.90282  -1.51442
O     1.00249   1.71703  -1.10987
C     1.12608   2.57120  -2.24680
H     5.28167  -0.95103   2.13757
H     6.03454  -1.30147   0.55756
H     4.92811  -2.48385   1.30766
H     4.18591  -0.23589  -0.40888
H     0.62973  -0.69850   1.68269
H    -2.60185   1.62194  -0.56049
H    -3.24082   2.01149  -2.92922
H    -2.17744   0.67316  -4.74634
H    -0.48533  -1.06944  -4.17506
H     0.17867  -1.43344  -1.81511
H    -3.33186  -1.02790   0.04878
H    -5.04212  -1.35757   1.80433
H    -4.50879  -0.85337   4.19006
H    -2.24408   0.00280   4.79646
H    -0.54544   0.37831   3.04874
H     1.99874   3.23396  -2.15149
H     1.21914   1.97904  -3.16963
H     0.20550   3.16616  -2.27928
