62
Generated by autodE on: 2022-06-08. E = -1532.078267 Ha
C    -2.61286  -2.87709   3.24974
N    -2.15996  -2.40008   1.95749
C    -1.20376  -1.46503   1.84367
O    -0.62358  -0.99918   2.83382
C    -0.94098  -0.88188   0.42599
C    -1.21699  -1.88206  -0.68846
C    -0.62527  -3.15508  -0.62843
C    -0.77236  -4.05991  -1.68067
C    -1.51492  -3.70553  -2.81291
C    -2.09858  -2.43838  -2.88387
C    -1.94510  -1.53014  -1.83068
C     0.53213  -0.39440   0.37938
C     1.17279  -0.30308  -1.04224
O     0.69410   0.94469  -1.54395
C     1.19117   1.74757  -0.46869
C     2.65687   1.31763  -0.40824
C     3.66378   2.21334   0.20780
C     5.12893   1.92353   0.09190
O     3.24451   3.19615   0.81336
C     2.64448   0.01546  -0.78344
C     3.67701  -1.03927  -0.77660
O     4.86983  -0.89069  -0.95592
O     3.10489  -2.23274  -0.56485
C     3.97124  -3.37635  -0.54081
C     0.50175   1.10806   0.77240
C    -0.99980   1.44817   0.95222
C    -1.39141   2.81731   0.43746
C    -1.79712   3.01687  -0.88981
C    -2.09082   4.30091  -1.35659
C    -1.97689   5.40428  -0.50404
C    -1.57279   5.21335   0.82125
C    -1.28747   3.92687   1.28740
N    -1.72006   0.35882   0.29647
C    -3.13081   0.30454   0.63360
H    -3.36721  -3.65846   3.09680
H    -1.77702  -3.29868   3.82937
H    -3.05918  -2.06216   3.84283
H    -2.61815  -2.73601   1.11726
H    -0.02941  -3.43505   0.24321
H    -0.30210  -5.04420  -1.61866
H    -1.63304  -4.41364  -3.63651
H    -2.67370  -2.14897  -3.76678
H    -2.38163  -0.53393  -1.89925
H     1.15014  -1.01361   1.03511
H     0.96698  -1.12441  -1.73138
H     1.00642   2.81199  -0.63198
H     5.69923   2.76384   0.50851
H     5.40885   1.74352  -0.95601
H     5.36718   0.99999   0.64228
H     4.48871  -3.48366  -1.50491
H     4.71305  -3.27812   0.26472
H     3.32217  -4.24015  -0.35825
H     1.05753   1.34107   1.68654
H    -1.19901   1.43809   2.04179
H    -1.87572   2.15586  -1.55453
H    -2.40891   4.44144  -2.39275
H    -2.20585   6.40817  -0.86982
H    -1.48552   6.06833   1.49630
H    -0.97825   3.77753   2.32555
H    -3.31454   0.24022   1.72622
H    -3.61140  -0.55856   0.15358
H    -3.63134   1.21291   0.26683
