38
Generated by autodE on: 2022-07-27. E = -843.750356 Ha
C     0.56939  -2.93557   3.29461
N     0.59666  -2.50785   1.91365
C     0.13152  -1.27448   1.54223
O    -0.14006  -0.43702   2.43760
C    -0.02040  -1.01836   0.11715
C     0.11670  -2.03058  -0.93561
C    -0.42990  -3.33180  -0.82559
C    -0.27148  -4.27459  -1.84185
C     0.41364  -3.94784  -3.01755
C     0.94233  -2.65983  -3.15793
C     0.80497  -1.72232  -2.13442
N    -0.27172   0.30475  -0.27326
C    -1.29040   0.53340  -1.31207
C     0.31636   1.31454   0.35161
C    -0.02376   2.72100   0.37607
C    -1.26859   3.29811   0.02474
C    -1.46094   4.67566   0.11314
C    -0.43159   5.51717   0.54950
C     0.79971   4.96300   0.91906
C     0.99689   3.58790   0.84287
H     1.09441  -2.21557   3.94083
H    -0.45791  -3.04459   3.68699
H     1.07342  -3.90760   3.37552
H     0.73901  -3.21309   1.20233
H    -1.00886  -3.60000   0.05992
H    -0.70764  -5.26967  -1.72158
H     0.52921  -4.68507  -3.81528
H     1.48076  -2.38584  -4.06904
H     1.24519  -0.72977  -2.25545
H    -1.03861   1.42015  -1.90460
H    -2.27518   0.65851  -0.84133
H    -1.33166  -0.33942  -1.96832
H     1.18657   1.03078   0.94159
H    -2.10295   2.67603  -0.28962
H    -2.43229   5.09685  -0.15638
H    -0.59186   6.59585   0.61160
H     1.60770   5.60708   1.27363
H     1.95645   3.15931   1.14174
