38
Generated by autodE on: 2022-06-08. E = -843.754684 Ha
C    -3.06417   3.29981  -1.45708
N    -2.50684   2.08590  -0.90307
C    -1.61420   1.32788  -1.60446
O    -1.39816   1.58799  -2.81041
C    -0.97244   0.22351  -0.89926
C    -0.87728   0.15115   0.56466
C    -0.61153   1.29680   1.34616
C    -0.53582   1.22650   2.73993
C    -0.69748   0.00499   3.39611
C    -0.94258  -1.14800   2.63615
C    -1.02839  -1.07696   1.24916
N    -0.44367  -0.80233  -1.66917
C    -1.12709  -1.19958  -2.92188
C     0.61032  -1.55247  -1.33984
C     1.65693  -1.25695  -0.39100
C     2.02268   0.04790   0.01996
C     3.09333   0.24226   0.88927
C     3.81131  -0.84872   1.39402
C     3.46698  -2.14532   0.99253
C     2.41204  -2.34626   0.10609
H    -3.69057   3.78232  -0.69583
H    -2.27771   4.01017  -1.76492
H    -3.68884   3.09586  -2.34237
H    -2.66945   1.87987   0.07471
H    -0.44491   2.25530   0.85222
H    -0.32860   2.13421   3.31236
H    -0.62745  -0.05456   4.48460
H    -1.07319  -2.11223   3.13404
H    -1.21426  -1.99031   0.68022
H    -1.02412  -2.28584  -3.03663
H    -2.18792  -0.93697  -2.86535
H    -0.66625  -0.69849  -3.78010
H     0.66863  -2.51289  -1.85422
H     1.48258   0.90987  -0.36732
H     3.36499   1.25840   1.18516
H     4.63558  -0.68892   2.09284
H     4.02525  -3.00371   1.37372
H     2.15018  -3.35909  -0.20984
