62
Generated by autodE on: 2022-06-08. E = -1531.976543 Ha. Imaginary frequency = -221.4 cm-1
C    -0.24441  -3.38957   3.24369
N    -0.73751  -2.92452   1.96539
C    -1.28691  -1.68206   1.84071
O    -1.49270  -1.00643   2.87051
C    -1.59451  -1.23419   0.46697
C    -1.83128  -2.26764  -0.57912
C    -2.62489  -3.39975  -0.29779
C    -2.85598  -4.37972  -1.26414
C    -2.30840  -4.24999  -2.54442
C    -1.53693  -3.12434  -2.84784
C    -1.30277  -2.14621  -1.88001
C     0.88043  -0.39197   0.66297
C     1.36407  -0.50782  -0.78717
O     0.58718   0.51496  -1.42539
C     0.97812   1.56989  -0.53262
C     2.51610   1.48534  -0.66642
C     3.34653   2.67473  -0.38992
C     4.83390   2.63718  -0.57924
O     2.77497   3.68856   0.00804
C     2.76144   0.16247  -0.83171
C     4.00186  -0.63053  -0.87277
O     5.07520  -0.28040  -1.32518
O     3.78340  -1.84753  -0.35233
C     4.89541  -2.75386  -0.33130
C     0.62443   0.95064   0.83331
C    -1.64521   1.09648   1.00924
C    -1.96022   2.51108   0.80846
C    -1.99213   3.18565  -0.43389
C    -2.20637   4.56347  -0.49413
C    -2.38470   5.31102   0.67419
C    -2.33408   4.66463   1.91418
C    -2.11956   3.28918   1.97852
N    -2.03657   0.05470   0.22665
C    -2.80460   0.31978  -1.00013
H    -1.04475  -3.40053   3.99949
H     0.13536  -4.41267   3.12512
H     0.57154  -2.75394   3.63155
H    -0.44244  -3.41434   1.12954
H    -3.07340  -3.50840   0.69067
H    -3.47687  -5.24441  -1.01750
H    -2.48778  -5.01691  -3.30155
H    -1.11108  -3.00448  -3.84699
H    -0.71572  -1.26849  -2.14098
H     1.13859  -1.12009   1.42719
H     1.28369  -1.47574  -1.28872
H     0.52751   2.53053  -0.79446
H     5.28001   1.89115   0.09671
H     5.08440   2.32107  -1.60200
H     5.25214   3.63003  -0.36896
H     5.24835  -2.94989  -1.35412
H     5.71920  -2.33715   0.26599
H     4.52285  -3.67712   0.12666
H     0.71220   1.51842   1.75766
H    -1.46900   0.81117   2.03776
H    -1.82283   2.64428  -1.36222
H    -2.22446   5.05904  -1.46781
H    -2.55218   6.38911   0.61924
H    -2.46227   5.23588   2.83680
H    -2.07489   2.79245   2.95076
H    -2.15419   0.54958  -1.85262
H    -3.47791   1.16288  -0.81785
H    -3.40991  -0.55871  -1.23994
