14
Generated by autodE on: 2022-06-16. E = -266.827370 Ha
C    -2.03225   0.14955   0.28877
N    -0.59736   0.09741   0.47948
C     0.04772  -1.18275   0.12612
C     1.48422  -0.75231  -0.18549
C     1.23699   0.68876  -0.55002
N     0.08569   1.11789  -0.17692
H    -2.40994   1.14352   0.56674
H    -2.32964  -0.06121  -0.75942
H    -2.51283  -0.59765   0.93700
H    -0.03921  -1.91135   0.94325
H    -0.43495  -1.61124  -0.77611
H     2.13662  -0.80677   0.70610
H     1.96285  -1.33725  -0.98380
H     1.95907   1.36252  -1.01764
