8
Generated by autodE on: 2022-06-16. E = -188.099455 Ha
C     1.65037   0.53436   0.35728
N     0.62212  -0.03620   0.09316
N    -0.42501  -0.67057  -0.00549
C    -1.60486   0.13796  -0.32831
H     2.46572   0.78662  -0.32724
H    -1.73256   0.96148   0.39460
H    -1.52698   0.57260  -1.33861
H    -2.48765  -0.51059  -0.29222
