14
Generated by autodE on: 2022-06-16. E = -266.715475 Ha. Imaginary frequency = -380.2 cm-1
C    -2.12401   0.38140   0.04580
N    -0.79527   0.40819   0.64841
C     0.42724  -1.67873   0.23490
C     1.53610  -1.20800  -0.41069
C     1.14219   1.04820  -0.53459
N     0.06143   1.07638   0.02387
H    -2.65231   1.33885   0.19686
H    -2.08442   0.17533  -1.03852
H    -2.70461  -0.40760   0.54084
H     0.42406  -1.84259   1.31428
H    -0.43437  -2.06047  -0.31934
H     2.47162  -1.04128   0.13238
H     1.62056  -1.26976  -1.49864
H     1.86130   1.84068  -0.75077
