9
Generated by autodE on: 2022-05-28. E = -205.387237 Ha
C    -1.67741   0.54972  -0.01468
N    -0.25120   0.61951   0.22491
N     0.37427  -0.43512  -0.13040
N     1.62751  -0.69653  -0.05327
H    -1.98853  -0.38848  -0.51080
H    -2.23187   0.63376   0.93520
H    -1.99864   1.39289  -0.64806
H    -0.17976  -1.20978  -0.54425
H     2.06037   0.13800   0.36980
