29
Generated by autodE on: 2022-05-28. E = -3190.389377 Ha. Imaginary frequency = -401.5 cm-1
C     1.79128   2.68854  -1.72125
N     0.34142   2.63248  -1.84404
N    -0.13244   1.59210  -2.47325
N     0.25660   0.35663  -2.33773
C     0.05877   0.43007  -0.19204
C     0.06127   1.63305   0.14359
C     0.16796   2.66386   1.18715
C     1.30729   2.34766   2.17317
C     1.16255   1.07857   3.02693
C     1.45613  -0.30065   2.39579
C     0.26875  -1.07614   1.78668
C     0.13536  -0.94173   0.27554
F     1.18973  -1.59474  -0.33329
Br   -1.52606  -1.96169  -0.28855
H     2.03462   3.45791  -0.97789
H     2.29060   1.75494  -1.41575
H     2.22098   3.01137  -2.68663
H    -1.13202   1.67755  -2.67696
H     1.26626   0.35564  -2.16328
H     0.32553   3.66312   0.75388
H    -0.79042   2.70960   1.73512
H     1.38675   3.20811   2.85844
H     2.25862   2.30762   1.61494
H     0.15778   1.05995   3.48640
H     1.86754   1.19602   3.86608
H     2.27046  -0.21880   1.65640
H     1.85412  -0.93991   3.19882
H    -0.67489  -0.74688   2.24499
H     0.37282  -2.15106   1.99792
