41
Generated by autodE on: 2022-06-17. E = -770.875364 Ha
C     5.09922  -2.87451  -0.80066
C     4.15955  -1.92329  -0.97580
C     4.23640  -0.93215  -2.10698
C     3.02644  -1.84141  -0.04686
C     2.02670  -0.94378  -0.10763
C     0.90326  -0.87467   0.88977
C     0.90771   0.48666   1.55367
C     1.96004   0.93762   2.50252
N    -0.05068   1.24057   1.15314
N    -0.85745   0.55491   0.26751
C    -2.06033   1.15697  -0.09790
C    -3.06780   0.46696  -0.80810
C    -4.24470   1.11601  -1.18795
C    -4.46478   2.46098  -0.88053
C    -3.47164   3.15110  -0.17589
C    -2.29200   2.51922   0.21193
C    -0.54577  -0.91413   0.29661
C    -0.58042  -1.58967  -1.07536
C    -1.47251  -1.62100   1.29369
H     5.03352  -3.58994   0.02484
H     5.95541  -2.96260  -1.47543
H     3.34449  -0.99730  -2.75218
H     4.27297   0.10201  -1.72588
H     5.12672  -1.10420  -2.72806
H     3.01222  -2.58695   0.75732
H     2.01509  -0.18354  -0.89467
H     1.03205  -1.68232   1.62553
H     1.79703   1.98121   2.80508
H     1.96568   0.29965   3.40280
H     2.95958   0.84722   2.04505
H    -2.94779  -0.57954  -1.07011
H    -5.00200   0.54789  -1.73466
H    -5.38797   2.96066  -1.18143
H    -3.61433   4.20435   0.08088
H    -1.53089   3.06974   0.76036
H    -0.00393  -2.52495  -1.02575
H    -0.13000  -0.95533  -1.85092
H    -1.59820  -1.85496  -1.38761
H    -2.52420  -1.55855   0.98077
H    -1.19830  -2.68455   1.36647
H    -1.37998  -1.17161   2.29458
