18
Generated by autodE on: 2022-06-17. E = -419.279560 Ha
C     4.09833   0.88830   0.20985
C     2.84532   0.16543   0.09992
N     1.84488  -0.42520   0.00800
N     0.81556  -1.17021  -0.10042
C    -0.41440  -0.51389  -0.06643
C    -0.57527   0.88245   0.07493
C    -1.85213   1.44810   0.09868
C    -2.99521   0.64986  -0.01624
C    -2.84126  -0.73651  -0.15729
C    -1.57355  -1.31294  -0.18230
H     4.66520   0.55377   1.09326
H     3.88542   1.96356   0.31755
H     4.71328   0.74166  -0.69237
H     0.30323   1.52503   0.16552
H    -1.95208   2.53140   0.20935
H    -3.99064   1.09882   0.00344
H    -3.72245  -1.37726  -0.24864
H    -1.45193  -2.39303  -0.29210
