41
Generated by autodE on: 2022-06-17. E = -770.789377 Ha. Imaginary frequency = -386.1 cm-1
C     5.57853  -2.25776   0.37914
C     4.44824  -2.00975  -0.31846
C     4.45048  -1.98240  -1.82566
C     3.19127  -1.75790   0.38484
C     1.99822  -1.49871  -0.20170
C     0.76680  -1.23014   0.53298
C     1.02521   0.97457   0.81586
C     2.29668   1.34482   1.44393
N     0.09610   1.43187   0.19141
N    -0.84813   1.05176  -0.59718
C    -2.13302   1.48518  -0.29238
C    -3.16295   1.13737  -1.19354
C    -4.48696   1.47889  -0.92341
C    -4.81836   2.18537   0.24034
C    -3.80085   2.54361   1.13275
C    -2.47315   2.19803   0.87847
C    -0.50804  -1.34522  -0.01967
C    -0.74449  -1.78180  -1.43881
C    -1.68575  -1.43802   0.90733
H     5.57559  -2.27675   1.47347
H     6.53084  -2.44606  -0.12442
H     3.75454  -2.73192  -2.23788
H     4.11703  -1.00242  -2.20578
H     5.45363  -2.18524  -2.22652
H     3.24196  -1.78141   1.47982
H     1.93984  -1.46997  -1.29304
H     0.83907  -1.30259   1.62352
H     2.26948   2.40292   1.74742
H     2.49632   0.71787   2.32488
H     3.12437   1.20219   0.73149
H    -2.89997   0.59407  -2.10328
H    -5.26970   1.19643  -1.63222
H    -5.85597   2.45713   0.44627
H    -4.04436   3.09863   2.04276
H    -1.68686   2.47891   1.58196
H    -0.72313  -2.88665  -1.50146
H     0.01020  -1.39688  -2.13729
H    -1.73450  -1.45805  -1.79060
H    -2.60530  -1.04843   0.44617
H    -1.88173  -2.49689   1.16244
H    -1.50794  -0.89604   1.84880
