46
Generated by autodE on: 2022-12-30. E = -1238.443122 Ha
C     2.03977   3.59799   0.42746
N     1.59098   2.30073  -0.03893
C     1.94944   1.17392   0.59144
O     2.75166   1.15087   1.52656
C     1.31413  -0.13635   0.06533
C     2.17548  -1.37305   0.43633
C     1.72180  -2.59867  -0.37603
C     0.33296  -2.92996   0.23587
C     0.15664  -1.86411   1.33927
C     1.60661  -1.70432   1.83255
C    -0.08902  -0.45551   0.74408
O    -0.33780   0.54221   1.70311
C    -1.24041   0.26285   2.77119
C    -1.09563  -0.34237  -0.46018
C    -2.26807  -1.35213  -0.47951
C    -2.74969  -1.77914  -1.83081
O    -2.77783  -1.70307   0.56284
C    -1.67629   1.09180  -0.50171
O    -1.18040   1.98753  -1.14874
O    -2.76256   1.20662   0.23877
C    -3.33089   2.52276   0.37321
O    -0.31506  -0.56828  -1.62340
N     0.95654   0.03286  -1.34585
C     1.81289  -0.06705  -2.34931
N     2.57678  -0.07849  -3.23358
H     1.61761   3.84054   1.41714
H     1.72205   4.36345  -0.29102
H     3.13613   3.62031   0.51161
H     0.84234   2.25405  -0.72681
H     3.24806  -1.15632   0.37991
H     2.43645  -3.41756  -0.21386
H     1.68267  -2.42043  -1.45887
H    -0.46608  -2.94464  -0.51391
H     0.33253  -3.92094   0.71130
H    -0.59205  -2.13640   2.08852
H     1.73758  -0.89604   2.56094
H     2.01756  -2.63830   2.24237
H    -0.75772  -0.34799   3.55071
H    -2.14778  -0.24308   2.41508
H    -1.51212   1.23689   3.20001
H    -1.95319  -2.32621  -2.35818
H    -2.97855  -0.88738  -2.43717
H    -3.63959  -2.41177  -1.72498
H    -3.64487   2.90144  -0.60900
H    -4.19463   2.40772   1.03658
H    -2.59029   3.20226   0.81737
