28
Generated by autodE on: 2022-12-30. E = -595.568196 Ha
C     3.37386  -0.01862  -1.74993
N     2.14184   0.25726  -1.04392
C     1.54064  -0.67640  -0.26560
O     2.04695  -1.80559  -0.10319
C     0.28054  -0.30062   0.37994
C    -0.50969   0.79197   0.17749
O    -0.22197   1.81135  -0.64748
C    -1.12795   2.91501  -0.73236
C    -1.83253   0.55979   0.88255
C    -2.55417  -0.54887   0.04161
C    -1.67816  -1.81053   0.29636
C    -0.54873  -1.26149   1.22259
C    -1.34691  -0.26767   2.09008
H     4.17702  -0.31657  -1.05667
H     3.25428  -0.83163  -2.48631
H     3.69102   0.88770  -2.28112
H     1.66298   1.13962  -1.19308
H    -0.68549   3.61730  -1.44946
H    -1.23809   3.40941   0.24469
H    -2.11253   2.58909  -1.09968
H    -2.44060   1.44825   1.08332
H    -2.62002  -0.27230  -1.02027
H    -3.57857  -0.68436   0.41849
H    -1.26362  -2.24065  -0.62644
H    -2.25341  -2.59712   0.80824
H     0.03235  -2.03375   1.74079
H    -0.71399   0.30979   2.77963
H    -2.17612  -0.73398   2.64396
