18
Generated by autodE on: 2023-01-01. E = -642.792441 Ha
C    -1.26215   1.68827   2.75784
O    -0.77504   0.61678   1.91743
C    -0.79502   0.82237   0.62128
O    -1.17609   1.80909   0.03795
C    -0.29800  -0.38260  -0.14064
O     0.83613  -0.37728  -0.71316
N     1.67525   0.69415  -0.54771
C     2.77138   0.46184  -1.25426
N     3.81072   0.38806  -1.84086
C    -1.17706  -1.57236  -0.34473
C    -0.62906  -2.72579  -1.11829
O    -2.29329  -1.51153   0.14421
H    -2.30736   1.91151   2.50460
H    -1.18172   1.31720   3.78467
H    -0.63959   2.58235   2.61707
H     0.26868  -3.11896  -0.61393
H    -0.31745  -2.39224  -2.12120
H    -1.39446  -3.50740  -1.19653
