14
Generated by autodE on: 2022-06-26. E = -270.683214 Ha
C    -2.10347  -0.91460   0.50916
C    -0.81668  -0.20367   0.23201
C    -0.78263   1.26010   0.56625
C     0.24329  -0.87711  -0.29356
C     1.54449  -0.30562  -0.60649
O     1.89266   0.86164  -0.44307
H    -2.92578  -0.43298  -0.04878
H    -2.36417  -0.81453   1.57762
H    -2.06500  -1.98059   0.24607
H    -1.74850   1.59914   0.96598
H    -0.53200   1.86139  -0.32193
H     0.00450   1.47522   1.30643
H     0.13647  -1.94402  -0.51029
H     2.27094  -1.03731  -1.03644
