38
Generated by autodE on: 2022-06-26. E = -1009.356593 Ha
C    -1.65130   2.67246  -2.25619
N    -1.28461   1.82353  -1.13706
C    -1.50230   0.49628  -1.18691
O    -2.22119  -0.05042  -2.02407
C    -0.92851  -0.28225  -0.02769
O     0.25725  -0.06095   0.44062
C     1.34503   0.59483  -0.03849
C     1.56668   0.61165  -1.48003
O     0.77050   0.04873  -2.26183
N     2.68379   1.23990  -1.91278
C     3.10788   1.14425  -3.29233
C     2.37353   0.80411   0.97424
O     3.48106   1.32126   0.69430
N     2.07822   0.44526   2.24665
C     3.03563   0.61523   3.31892
C    -1.71794  -1.23366   0.72452
C    -3.11051  -1.37154   0.51477
C    -3.84693  -2.27195   1.27981
C    -3.21974  -3.04765   2.26111
C    -1.84051  -2.92192   2.47547
C    -1.09279  -2.03129   1.71456
H    -1.07273   2.41089  -3.15793
H    -2.71996   2.56352  -2.48883
H    -1.44923   3.71717  -1.99140
H    -0.58627   2.17828  -0.48821
H     3.34247   1.50737  -1.17655
H     3.46340   0.13250  -3.55732
H     3.92601   1.85531  -3.46517
H     2.27672   1.39272  -3.96862
H     1.17308   0.03639   2.44785
H     3.32109   1.67274   3.44129
H     3.95788   0.03925   3.13810
H     2.58241   0.26489   4.25441
H    -3.60897  -0.77109  -0.24430
H    -4.92164  -2.36737   1.11136
H    -3.80316  -3.75407   2.85579
H    -1.34665  -3.53176   3.23494
H    -0.01656  -1.94807   1.86953
