52
Generated by autodE on: 2022-06-26. E = -1280.040636 Ha. Imaginary frequency = -302.5 cm-1
C     2.03084  -3.48157   1.73457
N     1.70443  -2.08715   1.50223
C     1.78161  -1.56616   0.25986
O     2.37205  -2.11661  -0.66876
C     1.27990  -0.13102   0.19321
C     2.28328   0.93299   0.14458
C     3.60443   0.65523  -0.26674
C     4.54489   1.68114  -0.35757
C     4.19213   2.99562  -0.04052
C     2.88029   3.28317   0.35950
C     1.93240   2.26863   0.44220
O     0.14778   0.19007   0.78913
C    -1.11669  -0.25851   0.63169
C    -1.40341  -1.67303   0.31281
O    -0.53475  -2.42302  -0.16663
N    -2.67030  -2.08927   0.51375
C    -3.11857  -3.37230   0.01793
C    -2.10829   0.64463   1.24799
O    -3.33730   0.44349   1.12771
N    -1.64127   1.71674   1.91560
C    -2.53155   2.75226   2.39928
C    -1.14797   0.45779  -1.73181
C    -1.65733   1.85185  -1.47396
C    -2.17441  -0.50612  -2.25916
C     0.22391   0.31780  -1.96326
C     0.84094  -0.76376  -2.71164
O     1.91125  -0.63897  -3.30322
H     1.30170  -4.14895   1.24482
H     2.02486  -3.67591   2.81421
H     3.02917  -3.71046   1.33729
H     1.08256  -1.63515   2.16608
H     3.88845  -0.36282  -0.52819
H     5.56268   1.44891  -0.67863
H     4.93202   3.79601  -0.11129
H     2.59339   4.30936   0.59936
H     0.90898   2.51111   0.72459
H    -3.34266  -1.36097   0.76605
H    -3.11877  -3.41053  -1.08552
H    -4.14079  -3.55293   0.37380
H    -2.46967  -4.18249   0.38208
H    -0.64015   1.86023   1.96841
H    -3.02550   3.28312   1.56829
H    -1.94753   3.47561   2.98129
H    -3.31536   2.32744   3.04403
H    -2.64286   1.84710  -0.98910
H    -1.77851   2.36513  -2.44514
H    -0.95206   2.44200  -0.87321
H    -1.81188  -1.53804  -2.32785
H    -2.46618  -0.18093  -3.27360
H    -3.08176  -0.48524  -1.64077
H     0.82803   1.22551  -1.92419
H     0.29394  -1.73094  -2.74154
