36
Generated by autodE on: 2022-05-29. E = -1102.460303 Ha
C     3.44558   0.38318  -1.72924
C     2.82645   0.95417  -0.48677
O     3.15228   2.04827  -0.05607
C     1.75204   0.15031   0.26538
C     2.24716  -0.00163   1.71213
N     1.55021  -1.18803  -0.31775
C     0.22757  -1.58758   0.15313
C    -0.29966  -2.71639  -0.61351
N    -0.71146  -3.61310  -1.22267
C    -0.69333  -0.31101   0.13604
C    -1.71112  -0.42277   1.25965
F    -2.50088  -1.50136   1.05373
F    -1.13312  -0.59346   2.46637
F    -2.52686   0.63571   1.37455
C    -1.35563  -0.10618  -1.28509
C    -2.16328   1.18103  -1.28818
C    -1.25548   2.16344  -1.29786
C     0.09223   1.46451  -1.28384
O    -0.19369   0.26977  -2.03279
C     0.34225   0.88631   0.17350
C     0.15609   1.96095   1.23998
H     3.86397  -0.61481  -1.52894
H     2.67575   0.26062  -2.50984
H     4.22789   1.06023  -2.09456
H     3.15258  -0.62578   1.71421
H     2.49782   0.97393   2.14376
H     1.49584  -0.47890   2.35518
H     1.46777  -1.07852  -1.32850
H     0.30729  -1.94346   1.19071
H    -1.83127  -1.00097  -1.69861
H    -3.24830   1.24295  -1.22129
H    -1.41025   3.24018  -1.24211
H     0.93278   2.01600  -1.71576
H    -0.81981   2.45159   1.14580
H     0.93842   2.72393   1.12071
H     0.22806   1.55413   2.25511
