17
Generated by autodE on: 2022-07-26. E = -418.344219 Ha
C     2.20034   2.35984  -0.02341
C     1.27611   1.26259  -0.47740
O     1.21407   0.92434  -1.67087
C     0.44557   0.59163   0.51623
C     0.39355   0.86529   1.97552
N    -0.33226  -0.36034  -0.00195
C    -1.21489  -1.16707   0.59822
C    -1.93459  -2.10820  -0.15185
N    -2.54628  -2.90126  -0.75852
H     2.91991   1.97867   0.71906
H     1.63353   3.17028   0.46236
H     2.74389   2.75958  -0.88889
H     0.64448  -0.04219   2.55454
H    -0.62455   1.16562   2.28410
H     1.08887   1.66074   2.26494
H    -0.19842  -0.45070  -1.02173
H    -1.37302  -1.08745   1.67280
