17
Generated by autodE on: 2022-05-29. E = -418.341040 Ha
C     3.02429   0.46151   0.20332
C     1.84305  -0.37186  -0.21364
O     1.99870  -1.46785  -0.77845
C     0.49659   0.12692   0.05556
C     0.15573   1.41515   0.71871
N    -0.44909  -0.71565  -0.36703
C    -1.78617  -0.72231  -0.35351
C    -2.60515   0.28485   0.18262
N    -3.36708   1.06827   0.60245
H     3.00417   0.65274   1.28818
H     3.95070  -0.06476  -0.05943
H     3.00464   1.44228  -0.29874
H     1.06022   1.97652   0.97770
H    -0.41763   1.24976   1.64671
H    -0.46221   2.05142   0.06282
H    -0.01289  -1.54640  -0.80023
H    -2.26752  -1.59304  -0.79889
