19
Generated by autodE on: 2022-05-29. E = -684.055141 Ha
C    -0.94557  -2.37761  -0.42208
C    -0.03307  -1.31466   0.06288
C    -0.13848   0.01533   0.20164
C    -1.22330   0.95738  -0.13924
F    -2.36327   0.35624  -0.52485
F    -1.53958   1.76551   0.89940
F    -0.85226   1.78351  -1.14913
C     1.27062   0.50295   0.63020
C     2.20281   0.29495  -0.58401
C     2.31298  -1.03164  -0.70480
C     1.44921  -1.60174   0.44065
O     1.66096  -0.60582   1.45568
H    -0.50042  -2.86243  -1.30906
H    -1.05210  -3.16670   0.34133
H    -1.93876  -1.99632  -0.68651
H     1.32339   1.46063   1.15881
H     2.60282   1.09091  -1.21105
H     2.82624  -1.62598  -1.45977
H     1.66995  -2.61511   0.79331
