36
Generated by autodE on: 2022-05-29. E = -1102.396573 Ha. Imaginary frequency = -289.7 cm-1
C     3.87380   1.50906  -0.18263
C     2.97169   0.42670  -0.70114
O     2.91806   0.15567  -1.90586
C     2.10621  -0.29178   0.25039
C     2.31648  -0.26214   1.73091
N     1.45029  -1.32659  -0.31988
C     0.36482  -1.90314   0.23158
C    -0.38160  -2.83328  -0.53291
N    -1.03831  -3.56161  -1.16423
C    -0.85834   0.09844   0.20721
C    -1.75937  -0.16764   1.35393
F    -2.48683  -1.29462   1.17993
F    -1.10673  -0.30278   2.53059
F    -2.66518   0.82879   1.54259
C    -1.42187   0.05133  -1.23911
C    -2.18220   1.37024  -1.47170
C    -1.23232   2.31120  -1.52462
C     0.09023   1.55040  -1.31676
O    -0.21019   0.30249  -1.96524
C     0.10192   1.11308   0.17142
C     0.38783   2.12022   1.23818
H     3.29712   2.26766   0.36940
H     4.39672   1.98215  -1.02329
H     4.60915   1.08920   0.52258
H     3.03519  -1.04898   2.02277
H     1.38721  -0.43449   2.28822
H     2.72396   0.70167   2.05337
H     1.50425  -1.30454  -1.34410
H     0.31794  -2.00361   1.31464
H    -1.90856  -0.87551  -1.55847
H    -3.26614   1.47182  -1.51209
H    -1.32945   3.39225  -1.61959
H     1.00191   2.00847  -1.71219
H     0.35534   1.69190   2.24677
H    -0.38450   2.91074   1.18983
H     1.36105   2.60966   1.09176
