30
Generated by autodE on: 2022-05-29. E = -1388.941849 Ha
C    -3.31112   1.34997   0.13654
C    -2.09176   1.03211   0.93708
O    -1.81082   1.58180   1.98372
C    -1.08468  -0.00132   0.43193
C    -0.72371  -1.09687   1.48271
O    -0.93843  -1.12973   2.66243
O    -0.17440  -2.11068   0.78404
N    -0.16809  -1.62195  -0.68870
N    -1.33048  -0.85668  -0.75125
C    -2.54598  -1.66722  -0.82757
C     0.90184  -0.58818  -0.74627
Cl    1.29691  -0.40801  -2.47540
C     2.17590  -0.78600   0.13763
C     3.11215   0.36231  -0.23306
C     2.58716   1.45276   0.33841
C     1.34004   0.96987   1.06593
O     1.69821  -0.36435   1.42000
C     0.25673   0.67049  -0.03773
C    -0.01754   1.80736  -0.89983
N    -0.24813   2.73594  -1.55478
H    -4.05398   0.54912   0.28849
H    -3.73542   2.29934   0.48697
H    -3.08387   1.39580  -0.93844
H    -2.38362  -2.43028  -1.59826
H    -2.79749  -2.16273   0.12501
H    -3.38243  -1.03336  -1.13890
H     2.56542  -1.80808   0.15465
H     3.97223   0.27895  -0.89490
H     2.90722   2.49090   0.26452
H     0.96158   1.53772   1.92079
