14
Generated by autodE on: 2022-05-29. E = -859.428387 Ha
N     3.27835  -0.02094   0.10591
C     2.12781  -0.12258  -0.05347
C     0.74379  -0.26474  -0.25602
C    -0.24900   0.62085  -0.03609
Cl   -0.17106   2.21286   0.56411
C    -1.56391  -0.13875  -0.33232
C    -1.72599  -1.18098   0.79585
C    -0.75917  -2.07540   0.57359
C    -0.01832  -1.56242  -0.67896
O    -1.10395  -0.96889  -1.40727
H    -2.42716   0.47709  -0.60263
H    -2.45191  -1.11535   1.60475
H    -0.47391  -2.95476   1.14917
H     0.55222  -2.27926  -1.27666
