30
Generated by autodE on: 2022-05-29. E = -1388.895810 Ha. Imaginary frequency = -364.1 cm-1
C    -3.61048   1.10715   0.10833
C    -2.43958   0.88943   1.01252
O    -2.18668   1.61998   1.95677
C    -1.48868  -0.22939   0.75704
C    -0.61910  -0.77801   1.80320
O    -0.43695  -0.51233   2.96011
O     0.00866  -1.85011   1.17924
N    -0.27934  -1.82006  -0.18225
N    -1.44613  -1.12637  -0.25398
C    -2.16294  -1.14410  -1.52397
C     0.96794  -0.51836  -0.75585
Cl    0.94323  -0.77509  -2.49634
C     2.33617  -0.77989  -0.06085
C     3.30869   0.26421  -0.64458
C     2.92665   1.42962  -0.11058
C     1.72477   1.08260   0.78721
O     2.08050  -0.22833   1.22913
C     0.56431   0.73233  -0.18771
C    -0.13377   1.74083  -0.88520
N    -0.71188   2.58798  -1.44154
H    -4.21263   0.19176   0.00556
H    -4.22412   1.91993   0.51599
H    -3.25213   1.38904  -0.89471
H    -1.78796  -2.00004  -2.09351
H    -3.23216  -1.28185  -1.32662
H    -2.00198  -0.21491  -2.08557
H     2.65149  -1.82711  -0.01860
H     4.08826   0.05349  -1.37465
H     3.30370   2.43536  -0.29087
H     1.47234   1.74968   1.61688
