18
Generated by autodE on: 2022-06-24. E = -235.968070 Ha
C     0.99393  -0.97268   1.39710
C     0.63323  -0.16714   0.17210
C     1.85754   0.22104  -0.62172
C    -0.63325   0.16697  -0.17220
C    -1.85754  -0.22095   0.62177
C    -0.99392   0.97268  -1.39709
H     0.13510  -1.28065   2.00527
H     1.54668  -1.88448   1.10762
H     1.67831  -0.39760   2.04650
H     1.64503   0.80739  -1.52361
H     2.41693  -0.68068  -0.92949
H     2.55179   0.80783   0.00638
H    -2.41581   0.68100   0.93098
H    -2.55276  -0.80619  -0.00667
H    -1.64516  -0.80861   1.52284
H    -1.67876   0.39793  -2.04630
H    -1.54615   1.88476  -1.10746
H    -0.13512   1.28026  -2.00552
