35
Generated by autodE on: 2022-07-27. E = -990.114046 Ha
C    -3.26033   2.63903   0.65138
N    -2.88929   1.30687   0.22914
C    -1.62224   0.86710   0.31020
O    -0.70095   1.59844   0.73127
C    -1.38987  -0.54653  -0.08303
C    -2.38688  -1.37410  -0.71807
C    -1.97748  -2.63753  -1.45098
O    -3.59052  -1.04396  -0.77647
N    -0.12094  -1.04433   0.19672
C    -0.01399  -2.34041   0.90223
C     0.96776  -0.31920   0.00900
C     2.28150  -0.68795   0.61914
O     3.29008  -0.81275  -0.04413
O     2.21536  -0.83379   1.93650
C     3.42076  -1.24668   2.60651
C     0.99113   0.79528  -0.98853
O     0.30216   0.84068  -1.98572
O     1.92709   1.68504  -0.67661
C     2.07408   2.80445  -1.56494
H    -2.57852   3.38868   0.22163
H    -4.28141   2.84954   0.30859
H    -3.23120   2.75114   1.74894
H    -3.58332   0.61797  -0.07345
H    -2.49226  -2.62465  -2.42320
H    -2.34262  -3.52229  -0.90512
H    -0.89891  -2.73851  -1.62163
H    -0.94369  -2.89695   0.77262
H     0.83337  -2.91483   0.50889
H     0.12291  -2.14065   1.97171
H     3.16227  -1.31678   3.66861
H     3.74856  -2.22379   2.22436
H     4.21403  -0.50224   2.45134
H     2.88251   3.41447  -1.14716
H     2.33625   2.46044  -2.57533
H     1.13781   3.37968  -1.59981
