47
Generated by autodE on: 2022-06-02. E = -1182.261737 Ha
C     2.79444   3.25241   0.90021
N     2.37034   1.92051   0.50648
C     1.09883   1.53779   0.60999
O     0.20215   2.25595   1.05814
C     0.74496   0.07201   0.16819
C     1.90903  -0.64816  -0.48795
C     2.27135  -0.33959  -1.80890
C     3.35805  -0.97539  -2.41228
C     4.10225  -1.92286  -1.70295
C     3.75532  -2.22418  -0.38356
C     2.66766  -1.58930   0.22189
N     0.34222  -0.54190   1.43345
C    -0.92807  -0.47771   1.55488
C    -1.54050  -0.96452   2.76600
N    -2.03813  -1.36453   3.73533
C    -1.73447   0.01380   0.36775
C    -2.56148   1.28643   0.60895
C    -2.92984   1.65652   2.01421
O    -2.95643   1.92309  -0.34943
C    -2.67572  -1.09593  -0.25288
C    -2.04168  -2.48655  -0.06332
C    -0.78014  -2.41587  -0.96820
C    -0.90969  -1.04800  -1.67247
C    -2.44009  -0.88034  -1.75731
C    -0.57243   0.14160  -0.70706
C    -0.57264   1.35684  -1.52209
N    -0.45826   2.25458  -2.24904
H     2.27067   4.02021   0.31030
H     2.58037   3.43272   1.96476
H     3.87341   3.34395   0.73017
H     3.04998   1.27459   0.11741
H     1.71348   0.40965  -2.37169
H     3.62409  -0.72564  -3.44177
H     4.95152  -2.42083  -2.17626
H     4.33283  -2.95908   0.18194
H     2.40043  -1.82783   1.25042
H    -3.52431   2.57875   2.00459
H    -2.02451   1.80001   2.62288
H    -3.51782   0.84555   2.47267
H    -3.70872  -1.01115   0.10594
H    -1.81521  -2.74245   0.97960
H    -2.74988  -3.24458  -0.42709
H    -0.78980  -3.20720  -1.73046
H     0.15545  -2.52543  -0.40814
H    -0.35896  -0.97852  -2.61642
H    -2.91269  -1.66512  -2.36530
H    -2.76335   0.10242  -2.12208
