24
Generated by autodE on: 2022-06-02. E = -664.304326 Ha
C     3.08735  -2.18040  -1.25167
N     1.81141  -1.60901  -0.86455
C     1.74517  -0.44763  -0.19168
O     2.74302   0.19247   0.15109
C     0.36277   0.03297   0.18388
N     0.35474   0.90455   1.12251
C     0.41785   1.61856   2.10973
C     0.52575   3.00494   2.23547
N     0.61149   4.13978   2.50528
C    -0.91509  -0.43296  -0.39652
C    -1.02330  -0.75513  -1.76238
C    -2.24585  -1.17621  -2.28896
C    -3.37247  -1.27548  -1.46766
C    -3.27441  -0.94441  -0.11142
C    -2.05710  -0.52402   0.42161
H     2.90354  -3.06888  -1.86742
H     3.67794  -1.45659  -1.83341
H     3.68073  -2.47313  -0.37026
H     0.96127  -2.12428  -1.06529
H    -0.15854  -0.65843  -2.41956
H    -2.31790  -1.41948  -3.35132
H    -4.32682  -1.60615  -1.88352
H    -4.15108  -1.01759   0.53602
H    -1.98367  -0.27038   1.48130
