47
Generated by autodE on: 2022-06-02. E = -1182.175107 Ha. Imaginary frequency = -328.1 cm-1
C     1.34907   3.83759   1.27763
N     1.06782   2.41488   1.25057
C     1.85015   1.59277   0.53284
O     2.90216   1.94307  -0.00549
C     1.39253   0.14882   0.42602
C     2.11361  -0.79332  -0.43711
C     2.54288  -0.39346  -1.71795
C     3.12996  -1.32297  -2.57359
C     3.30843  -2.65018  -2.16478
C     2.89527  -3.04791  -0.88901
C     2.29902  -2.12752  -0.02883
N     0.58833  -0.32296   1.34184
C    -0.56480  -0.57470   1.67750
C    -1.09056  -1.13040   2.85635
N    -1.67423  -1.57449   3.76272
C    -1.88068   0.09792   0.19158
C    -2.45405   1.15063   1.09076
C    -3.85789   0.96198   1.58051
O    -1.78856   2.12927   1.41983
C    -2.67156  -1.14706  -0.25491
C    -1.70760  -2.34445  -0.47233
C    -0.88328  -1.92522  -1.72039
C    -1.47054  -0.53441  -2.06197
C    -2.96758  -0.76165  -1.72592
C    -1.13056   0.47183  -0.95145
C    -0.62342   1.74283  -1.27703
N    -0.19745   2.77101  -1.63979
H     0.66604   4.31858   1.98897
H     1.20721   4.29145   0.28262
H     2.38482   4.02005   1.59652
H     0.08992   2.15318   1.41347
H     2.37770   0.63101  -2.04817
H     3.44421  -1.01154  -3.57221
H     3.77125  -3.37292  -2.84046
H     3.03812  -4.08018  -0.56223
H     1.97549  -2.43728   0.96657
H    -4.54526   0.78292   0.73973
H    -4.17291   1.84251   2.15425
H    -3.89383   0.06672   2.22386
H    -3.52843  -1.38479   0.38344
H    -1.07941  -2.55884   0.40315
H    -2.30276  -3.24758  -0.66900
H    -1.05335  -2.61185  -2.56276
H     0.19312  -1.88889  -1.53458
H    -1.22842  -0.16954  -3.06706
H    -3.42637  -1.57954  -2.30387
H    -3.57477   0.14998  -1.82133
