39
Generated by autodE on: 2022-10-21. E = -1220.990243 Ha
C     4.04453  -0.81586   1.61785
N     2.85334  -0.45036   0.87925
C     2.69506  -0.67081  -0.42735
O     3.50705  -1.18614  -1.19419
C     1.28006  -0.26621  -0.95196
C     1.39927   0.10897  -2.38404
N     1.43526   0.46158  -3.48829
C     0.32274  -1.42455  -0.79151
F     0.65022  -2.60618  -1.31820
C    -0.77704  -1.07841  -0.10843
O    -1.86936  -1.74166   0.26760
C    -2.00346  -3.10666  -0.15145
C    -0.68592   0.38768   0.26941
C    -0.81496   0.53862   1.80063
O     0.13757   0.66151   2.53825
O    -2.07562   0.45605   2.19227
C    -2.33004   0.51890   3.60771
C    -1.74943   1.19830  -0.50399
O    -2.22424   0.83312  -1.55605
O    -1.98426   2.37040   0.06826
C    -2.85466   3.27821  -0.63135
N     0.65332   0.75800  -0.15133
C     1.02478   2.14796  -0.33521
H     4.77675  -1.24706   0.92442
H     4.48796   0.06721   2.10239
H     3.81013  -1.55897   2.39594
H     2.07361   0.00376   1.35951
H    -2.96510  -3.45275   0.24549
H    -1.18820  -3.71952   0.26084
H    -2.00777  -3.17228  -1.24975
H    -3.41539   0.42418   3.72165
H    -1.81550  -0.30575   4.12040
H    -1.98347   1.48116   4.00970
H    -2.43168   3.52053  -1.61635
H    -2.91418   4.17664  -0.00751
H    -3.84942   2.82784  -0.75401
H     0.58499   2.60299  -1.24202
H     0.70922   2.72841   0.54181
H     2.11948   2.21602  -0.41123
