31
Generated by autodE on: 2022-10-21. E = -929.677479 Ha
C     3.42933   2.65349   0.29133
N     3.03821   1.31343  -0.10113
C     1.84458   0.80351   0.25448
O     1.00416   1.46763   0.87754
C     1.60536  -0.62229  -0.09849
C     2.71168  -1.43983  -0.41258
N     3.66922  -2.05464  -0.67949
N     0.38070  -1.19952   0.06666
C     0.35842  -2.66206   0.31264
C    -0.77155  -0.51547   0.01784
C    -1.98516  -1.07381   0.65488
O    -1.98290  -1.73967   1.67476
O    -3.09301  -0.75785  -0.02000
C    -4.33987  -1.16593   0.56177
C    -0.84735   0.76839  -0.73088
O    -0.21688   0.99601  -1.74642
O    -1.72373   1.61239  -0.19582
C    -1.89430   2.87114  -0.86405
H     2.64440   3.37639   0.02463
H     4.35420   2.91868  -0.23462
H     3.60488   2.72599   1.37728
H     3.71827   0.72975  -0.57787
H    -0.62567  -3.06701   0.07023
H     0.61397  -2.85641   1.36126
H     1.10321  -3.12844  -0.34149
H    -5.12078  -0.79366  -0.11085
H    -4.38906  -2.26189   0.63428
H    -4.45688  -0.72673   1.56305
H    -0.94492   3.42565  -0.86954
H    -2.23789   2.71648  -1.89675
H    -2.65104   3.41605  -0.28866
