31
Generated by autodE on: 2022-10-26. E = -929.677502 Ha
C     3.81776  -1.30449   1.61491
N     3.04500  -1.23248   0.39001
C     1.95670  -0.44666   0.29802
O     1.52822   0.20212   1.26284
C     1.32247  -0.35879  -1.04555
C     2.07805  -0.73840  -2.17509
N     2.75440  -1.08654  -3.06248
N     0.11976   0.25660  -1.22817
C    -0.13309   0.84481  -2.56628
C    -0.81782   0.34834  -0.27359
C    -0.84863  -0.63792   0.84042
O    -0.53555  -1.80715   0.71541
O    -1.30897  -0.10911   1.96974
C    -1.40814  -0.99034   3.09835
C    -1.86296   1.39179  -0.36744
O    -1.68834   2.50239  -0.83613
O    -3.02971   0.97380   0.12940
C    -4.09072   1.93870   0.18211
H     4.56776  -2.09761   1.51201
H     3.16534  -1.53640   2.46984
H     4.33299  -0.35347   1.82741
H     3.38369  -1.72715  -0.42930
H     0.37984   1.81118  -2.63981
H     0.26492   0.15751  -3.32068
H    -1.20633   0.96099  -2.72682
H    -2.08884  -1.82481   2.87764
H    -0.41432  -1.38260   3.35778
H    -1.80445  -0.38259   3.91949
H    -4.93934   1.42619   0.64902
H    -4.35677   2.27203  -0.83127
H    -3.78922   2.80655   0.78636
