8
Generated by autodE on: 2022-10-21. E = -291.177975 Ha
C    -2.25745   0.43437   0.32628
O    -1.17850  -0.39166   0.81916
C    -0.02567  -0.21698   0.23104
C     1.04028  -0.04881  -0.30314
F     2.18083   0.12296  -0.88479
H    -2.01440   1.49800   0.47062
H    -3.14168   0.16387   0.91560
H    -2.43328   0.22874  -0.74047
