39
Generated by autodE on: 2022-10-21. E = -1220.835326 Ha. Imaginary frequency = -383.1 cm-1
C     3.23720  -2.38166   1.62610
N     2.70445  -1.61782   0.51272
C     2.12111  -0.42733   0.70542
O     2.02055   0.11201   1.80976
C     1.65796   0.30297  -0.53936
C     2.68993   0.49525  -1.49986
N     3.55113   0.55551  -2.28378
C     0.32348  -1.27030  -1.57064
F     1.28923  -1.99419  -2.11488
C    -0.88519  -1.03080  -1.49134
O    -2.18904  -0.95959  -1.55385
C    -2.92533  -1.96219  -0.81490
C    -0.52886   0.90086   0.11967
C    -0.57885   0.08266   1.40115
O    -0.61284  -1.12396   1.49288
O    -0.65309   0.91155   2.43986
C    -0.71713   0.30673   3.74162
C    -1.81301   1.55403  -0.20457
O    -2.04361   2.38174  -1.06603
O    -2.77817   1.00346   0.54914
C    -4.12988   1.35838   0.23449
N     0.63761   1.22138  -0.48852
C     0.65538   2.27566  -1.52311
H     3.78221  -3.24745   1.23175
H     3.92496  -1.76592   2.22381
H     2.43013  -2.73699   2.28712
H     2.67660  -2.04292  -0.40873
H    -3.98543  -1.73814  -0.98049
H    -2.67903  -2.96259  -1.20141
H    -2.68086  -1.89623   0.25288
H    -1.60636  -0.33475   3.82143
H     0.18913  -0.28895   3.92008
H    -0.77811   1.13568   4.45569
H    -4.35123   1.11922  -0.81528
H    -4.75976   0.76118   0.90326
H    -4.29664   2.43079   0.41042
H     1.69436   2.57195  -1.69315
H     0.08609   3.13746  -1.17390
H     0.21345   1.89273  -2.45390
