46
Generated by autodE on: 2022-06-09. E = -1912.310103 Ha
C    -3.21675  -1.02764  -2.63838
C    -2.19593  -1.59167  -1.69880
O    -1.99960  -2.78237  -1.55368
C    -1.37759  -0.59031  -0.91591
N    -1.50476   0.65347  -1.14905
C    -0.64136   1.47299  -0.34259
C    -1.53381   2.36409   0.62932
C    -3.01752   2.32030   0.43227
O    -0.98601   3.12406   1.38974
C     0.02006   2.61442  -1.19571
C    -0.66754   3.00348  -2.46718
O     0.99041   3.18335  -0.75439
C     0.42929   0.44944   0.29600
C     1.65624   0.36866  -0.66838
C     1.44556   0.25986  -2.05486
C     2.50862   0.21532  -2.95623
C     3.82521   0.27614  -2.49884
C     4.05378   0.37472  -1.12707
C     2.98791   0.41661  -0.22479
C     0.91560   0.83494   1.72594
F    -0.07435   1.00932   2.60960
F     1.62408   1.96704   1.70905
F     1.70009  -0.12338   2.25330
C    -0.40627  -0.93439   0.23499
C    -1.32702  -1.23452   1.46635
F    -2.07725  -0.16678   1.77625
F    -2.18911  -2.21995   1.19797
F    -0.62445  -1.59107   2.54409
C     0.49011  -2.20017  -0.01332
F     1.64945  -2.11819   0.64882
F     0.77106  -2.35390  -1.31045
F    -0.09443  -3.32818   0.40503
H    -3.92682  -0.39150  -2.08753
H    -2.72826  -0.38825  -3.38955
H    -3.74670  -1.85172  -3.13158
H    -3.49799   2.91936   1.21613
H    -3.24463   2.75848  -0.55356
H    -3.41046   1.29652   0.42747
H    -0.14987   3.86542  -2.90606
H    -1.72089   3.25403  -2.26462
H    -0.67188   2.16143  -3.17496
H     0.44527   0.19611  -2.47378
H     2.29516   0.13247  -4.02392
H     4.66082   0.24543  -3.20135
H     5.07393   0.42112  -0.73989
H     3.23875   0.48581   0.82843
