21
Generated by autodE on: 2022-06-09. E = -590.919014 Ha
C     3.60663  -0.82151   0.81181
C     2.89928   0.42501   0.37697
O     3.41609   1.51532   0.19191
C     1.47683   0.26597   0.14580
N     0.32172   0.18398  -0.01543
C    -0.97201  -0.07902  -0.14722
C    -1.84923   0.99649  -0.61954
C    -1.19783   2.32718  -0.91509
O    -3.05850   0.82862  -0.77039
C    -1.33522  -1.46232   0.21932
C    -2.77218  -1.89030   0.11044
O    -0.46162  -2.23889   0.60719
H     3.99734  -1.32380  -0.09033
H     4.45473  -0.54925   1.45583
H     2.92699  -1.51740   1.32440
H    -1.96401   3.03548  -1.25434
H    -0.42602   2.21706  -1.69386
H    -0.69880   2.72439  -0.01667
H    -2.84966  -2.93990   0.42348
H    -3.41343  -1.25624   0.74048
H    -3.13403  -1.77266  -0.92175
