25
Generated by autodE on: 2022-06-09. E = -1321.355887 Ha
F    -1.62790  -1.96344   1.04386
C    -0.43342  -1.45488   1.37732
F    -0.54253  -0.87783   2.58284
F     0.39969  -2.49521   1.51491
C     0.09714  -0.46194   0.33742
C    -0.71439   0.38673  -0.32579
C    -2.19249   0.60739  -0.02230
F    -2.98736  -0.20601  -0.73109
F    -2.47995   0.43691   1.27356
F    -2.54209   1.87142  -0.32222
C    -0.21673   1.24029  -1.48676
F    -1.17158   1.32067  -2.43272
F     0.86656   0.74161  -2.08645
F     0.07423   2.49451  -1.10280
C     1.57736  -0.43919   0.19702
C     2.26744   0.71498   0.60259
C     3.65822   0.77213   0.49576
C     4.36546  -0.31352  -0.02708
C     3.67947  -1.46261  -0.43655
C     2.29201  -1.53289  -0.31809
H     1.70943   1.56222   1.00533
H     4.18859   1.67032   0.81946
H     5.45313  -0.26593  -0.11651
H     4.22905  -2.31020  -0.85173
H     1.75904  -2.42714  -0.64338
