31
Generated by autodE on: 2022-07-03. E = -834.555009 Ha
C    -3.43030   2.00710   0.77878
N    -2.78740   1.01089  -0.05697
C    -1.68780   0.36285   0.35902
O    -1.18569   0.52936   1.47213
C    -1.15068  -0.67214  -0.59259
C    -2.04690  -1.28451  -1.50223
N    -2.82154  -1.75256  -2.23883
N     0.08699  -1.16837  -0.46662
C     0.36709  -2.47315  -1.10413
C     1.11033  -0.44769   0.09897
C     2.10526  -1.11362   0.93007
C     1.81943  -2.48335   1.51145
O     3.16074  -0.55112   1.27118
C     1.14376   1.01352  -0.21413
O     0.28845   1.55087  -0.94076
N     2.18398   1.70451   0.28231
C     2.39654   3.09243  -0.06453
H    -2.75591   2.85662   0.97383
H    -4.32659   2.37345   0.26463
H    -3.72415   1.57515   1.74710
H    -3.11834   0.88278  -1.00838
H     1.43354  -2.69248  -1.03127
H    -0.23600  -3.26106  -0.63702
H     0.11020  -2.39372  -2.16952
H     0.75566  -2.74814   1.53328
H     2.36767  -3.25486   0.94798
H     2.21482  -2.48718   2.53708
H     2.90477   1.15540   0.75682
H     2.70811   3.21550  -1.11623
H     1.47305   3.67261   0.08021
H     3.18145   3.50486   0.58203
