31
Generated by autodE on: 2022-07-27. E = -834.551640 Ha
C    -4.94159   0.10552   0.76767
N    -3.63317   0.57163   0.35468
C    -2.55956  -0.24462   0.38960
O    -2.63751  -1.42695   0.74714
C    -1.25963   0.37725   0.01432
C    -1.13606   1.78068   0.03507
N    -1.10848   2.94782   0.00510
N    -0.18522  -0.38856  -0.32444
C    -0.42181  -1.68406  -1.00834
C     1.09696  -0.01759  -0.12657
C     1.49941   0.88199   0.96081
C     2.97212   1.19221   1.09379
O     0.69238   1.33143   1.77767
C     2.15406  -0.66021  -0.99296
O     2.26687  -0.33871  -2.18171
N     2.94439  -1.56518  -0.39985
C     4.05559  -2.18192  -1.10061
H    -5.62972   0.95900   0.79253
H    -4.89608  -0.34602   1.77028
H    -5.34124  -0.65201   0.07334
H    -3.54335   1.51373  -0.01158
H    -1.47521  -1.77967  -1.27044
H    -0.11037  -2.50767  -0.35610
H     0.17617  -1.68426  -1.92626
H     3.44029   1.36844   0.11402
H     3.08265   2.08343   1.72505
H     3.50175   0.35570   1.57607
H     2.80310  -1.76624   0.58547
H     3.70472  -2.72526  -1.99142
H     4.55185  -2.88821  -0.42458
H     4.78605  -1.42478  -1.42781
