30
Generated by autodE on: 2022-07-03. E = -1776.717979 Ha
C     1.55779  -3.76705   0.49990
N     1.03616  -2.47063   0.10725
C     1.83140  -1.52806  -0.40873
O     3.03741  -1.68158  -0.59852
C     1.17044  -0.16234  -0.76138
C     1.39664   0.10489  -2.26067
F     0.71160   1.18829  -2.66441
F     2.68292   0.31822  -2.55694
F     0.97447  -0.93339  -3.00407
C    -0.25028  -0.11015  -0.44019
C    -1.24904   0.09884   0.21178
C    -2.00799   0.62451   1.32295
Cl   -3.26615  -0.55825   1.89458
Cl   -2.86426   2.14889   0.79250
C    -1.02941   0.93882   2.46934
C     0.22351   1.74430   2.06980
C     1.48157   0.96431   1.59440
C     1.83763   0.96445   0.09447
H     1.97998  -4.30119  -0.36541
H     2.35122  -3.65937   1.25558
H     0.74054  -4.36308   0.92265
H     0.05275  -2.26478   0.25506
H    -0.72832  -0.02985   2.89761
H    -1.60387   1.47357   3.23995
H     0.51268   2.29677   2.97602
H    -0.05028   2.51620   1.33212
H     1.44724  -0.07053   1.97357
H     2.34626   1.42584   2.09396
H     1.56588   1.93237  -0.35277
H     2.92229   0.83683  -0.02586
