38
Generated by autodE on: 2022-06-19. E = -1083.532487 Ha
C     2.57558   2.19128  -2.30651
O     2.56561   1.05955  -1.42553
C     1.43745   0.34491  -1.40612
O     0.45004   0.60293  -2.08193
N     1.51575  -0.74717  -0.58725
N     2.59072  -0.94327   0.30138
N     2.00604  -1.13669   1.61087
C     0.53272  -1.15058   1.44888
C    -0.13775  -2.11169   2.43020
C     0.00276   0.25982   1.75940
O     0.54351   0.93149   2.62351
C    -1.18177   0.78633   1.04304
O    -1.66040   1.90199   1.60102
C    -2.37183   2.88209   0.83279
C    -1.64558   0.16386  -0.08456
O    -2.79500   0.57187  -0.66781
C    -2.76561   0.96351  -2.04923
C    -1.00177  -1.05101  -0.62143
O    -1.57904  -1.73223  -1.45384
C     0.35663  -1.50185  -0.05626
C     0.54327  -2.99097  -0.34609
H     1.79586   2.91199  -2.02088
H     3.56709   2.64555  -2.19548
H     2.41934   1.87425  -3.34768
H     3.00276  -1.84229   0.04724
H     2.22865  -0.30664   2.16407
H     0.27679  -3.12146   2.31668
H     0.04886  -1.77315   3.45953
H    -1.22538  -2.14377   2.26672
H    -2.34602   3.79938   1.43516
H    -3.41202   2.57841   0.66136
H    -1.86807   3.05807  -0.12942
H    -3.79268   1.25756  -2.29921
H    -2.45004   0.13546  -2.69655
H    -2.09111   1.82265  -2.18523
H     1.47191  -3.36529   0.10444
H    -0.29434  -3.57331   0.05799
H     0.58175  -3.14809  -1.43141
