12
Generated by autodE on: 2022-06-19. E = -394.051551 Ha
C    -2.75539   0.43921   0.15876
O    -1.44468   0.77065  -0.31661
C    -0.44958  -0.02042   0.09021
O    -0.60141  -0.98862   0.82564
N     0.75039   0.42419  -0.44206
N     1.73042  -0.34027  -0.04862
N     2.94711  -0.23437  -0.33540
H    -3.43067   1.18692  -0.27335
H    -3.04470  -0.56864  -0.17337
H    -2.79216   0.48623   1.25707
H     1.46873  -1.13186   0.57762
H     3.03941   0.58751  -0.95515
