26
Generated by autodE on: 2022-06-19. E = -689.460880 Ha
C     2.20956   2.37778   0.03361
O     1.48888   1.59365  -0.92290
C     0.59320   0.70179  -0.40511
C     0.80259  -0.64487  -0.39784
O     1.85841  -1.33680  -0.82476
C     3.02106  -0.71257  -1.37980
C    -0.26428  -1.56399   0.13579
O    -0.05838  -2.76985   0.13322
C    -1.53002  -0.99061   0.66065
C    -2.55559  -1.94307   1.19341
C    -1.72605   0.35130   0.65042
C    -2.98285   0.97330   1.17151
C    -0.68133   1.26221   0.09254
O    -0.87224   2.47580   0.03379
H     2.88959   3.02300  -0.53829
H     2.79826   1.72924   0.70359
H     1.53045   3.00315   0.63220
H     3.69628  -1.53862  -1.63654
H     2.76953  -0.14242  -2.28344
H     3.50689  -0.05705  -0.64327
H    -3.50980  -1.83060   0.65298
H    -2.21820  -2.98215   1.10162
H    -2.76835  -1.73303   2.25471
H    -3.14287   0.70009   2.22757
H    -3.86014   0.60198   0.61591
H    -2.94911   2.06578   1.08837
