38
Generated by autodE on: 2022-06-19. E = -1083.488525 Ha. Imaginary frequency = -357.5 cm-1
C     1.93180   1.52966  -2.79104
O     1.99764   0.93304  -1.48629
C     1.94298  -0.40338  -1.42829
O     1.92135  -1.13111  -2.40145
N     1.88110  -0.91941  -0.13432
N     1.85743  -0.03266   0.83604
N     1.45900  -0.54960   1.98064
C    -0.19628  -1.24577   1.71157
C    -0.27533  -2.26818   2.81999
C    -0.99068   0.00430   1.97638
O    -1.49082   0.24488   3.06319
C    -1.07665   1.01288   0.87221
O    -1.27715   2.24860   1.33595
C    -1.11620   3.39461   0.49073
C    -1.02798   0.57080  -0.41612
O    -1.19940   1.38425  -1.49433
C    -2.52552   1.41739  -2.03842
C    -0.78278  -0.86552  -0.70947
O    -0.99372  -1.28734  -1.85407
C    -0.22400  -1.71465   0.34690
C    -0.01292  -3.15834   0.03019
H     1.94282   2.61275  -2.62534
H     1.00110   1.22804  -3.29011
H     2.79865   1.22559  -3.39436
H     1.67340   0.96040   0.61186
H     1.35866   0.21292   2.66119
H     0.51090  -3.02324   2.70405
H    -0.15233  -1.78072   3.79583
H    -1.25368  -2.77244   2.80662
H    -1.11930   4.25822   1.16772
H    -0.15848   3.34424  -0.04619
H    -1.94476   3.48516  -0.22470
H    -2.83652   0.41817  -2.37592
H    -3.24109   1.79574  -1.29005
H    -2.49439   2.10288  -2.89534
H     0.85092  -3.55859   0.57793
H    -0.89640  -3.75557   0.31758
H     0.15281  -3.29082  -1.04599
