15
Generated by autodE on: 2022-05-31. E = -583.363177 Ha
C    -2.78052   1.07908  -0.23297
C    -2.27487  -0.30905   0.01084
O    -2.98425  -1.29128   0.16785
C    -0.80457  -0.49923   0.06282
C    -0.26005  -1.78763   0.28832
N     0.13304  -2.86766   0.47414
O    -0.07278   0.56275  -0.10221
C     1.21620   0.80853  -0.11163
C     1.57316   2.15662  -0.34979
N     1.89202   3.25946  -0.54589
C     2.20423  -0.18033   0.09583
N     3.05817  -0.95502   0.26343
H    -2.40498   1.76315   0.54421
H    -2.40841   1.45122  -1.20087
H    -3.87710   1.06728  -0.22983
