19
Generated by autodE on: 2022-05-31. E = -552.523366 Ha
C     2.70941  -1.32689   0.16674
C     1.88046  -0.15770  -0.27407
O     2.30637   0.72709  -1.00583
C     0.48432  -0.11075   0.21568
C    -0.49895   0.73128  -0.17409
C    -0.45670   1.78267  -1.11357
N    -0.48475   2.66413  -1.87521
C    -1.77161   0.23623   0.57758
C    -2.14120  -1.12603  -0.04703
C    -1.16900  -1.95572   0.34020
C    -0.21851  -1.08560   1.19149
O    -1.15676  -0.18139   1.80101
H     2.83364  -1.29684   1.26230
H     2.18740  -2.26947  -0.06785
H     3.69212  -1.30380  -0.32070
H    -2.56582   0.97387   0.72545
H    -2.99321  -1.29899  -0.70276
H    -0.99944  -3.00238   0.09164
H     0.41534  -1.58882   1.92710
