14
Generated by autodE on: 2022-05-26. E = -324.833843 Ha
C    -2.97323  -1.13794  -0.02207
C    -1.68547  -0.46621   0.01814
C    -0.60829   0.09569   0.05136
C     0.65669   0.81304   0.10178
O     0.69646   2.03364   0.31153
N     1.76200   0.06498  -0.09307
C     1.78703  -1.36661  -0.34041
H    -3.52442  -0.97689   0.91856
H    -2.85052  -2.22242  -0.17066
H    -3.58990  -0.74374  -0.84609
H     2.64279   0.57177  -0.05400
H     1.35111  -1.93262   0.49717
H     1.24052  -1.63060  -1.25880
H     2.83206  -1.67775  -0.45974
