25
Generated by autodE on: 2022-07-26. E = -593.390661 Ha
C     2.94313  -2.21245   0.67681
O     1.92800  -1.53546  -0.06626
C     1.13737  -0.69287   0.63339
O     1.29200  -0.53235   1.84936
C     0.14164   0.02019  -0.13145
N    -0.59394   0.89644   0.70707
C    -1.87117   1.14854   0.75175
C    -2.35885   2.17927   1.70673
C    -2.85245   0.43546  -0.10138
C     0.03492   0.06450  -1.56332
C    -0.69637   1.22575  -2.22081
O     0.56790  -0.77407  -2.31621
H     2.50528  -2.82799   1.47717
H     3.46544  -2.85497  -0.04304
H     3.65230  -1.49876   1.12294
H    -0.03327   1.33336   1.44576
H    -2.82563   3.00359   1.14131
H    -3.14426   1.74826   2.34744
H    -1.54785   2.58494   2.32704
H    -2.43361  -0.48434  -0.53034
H    -3.18918   1.08650  -0.92439
H    -3.74150   0.20500   0.50492
H    -0.05820   1.57773  -3.04543
H    -0.92003   2.06997  -1.55676
H    -1.63663   0.87101  -2.67164
