39
Generated by autodE on: 2022-05-26. E = -918.204574 Ha. Imaginary frequency = -366.5 cm-1
C    -4.91535  -0.55808   1.13630
N    -3.60429  -0.63034   0.52165
C    -2.47058  -0.50242   1.24713
O    -2.48793  -0.34026   2.47689
C    -1.22406  -0.54908   0.49102
C    -0.31388  -1.24177  -0.01687
C     0.34549  -2.47671  -0.44996
C     1.26391   0.43495  -0.52241
C     1.40391   0.44660  -1.98576
C     1.21308   1.75792  -2.72400
O     1.76244  -0.54762  -2.62130
C     2.29588  -0.15652   0.33986
O     2.39655   0.10993   1.53472
O     3.11898  -1.01169  -0.27628
C     4.08976  -1.66886   0.54571
N     0.55108   1.41218   0.15954
C    -0.78083   1.59697   0.07807
C    -1.38366   2.43330   1.16664
C    -1.50512   1.59763  -1.23472
H    -5.67795  -0.62208   0.35038
H    -5.04757   0.38971   1.68208
H    -5.07393  -1.38325   1.84938
H    -3.52592  -0.75352  -0.48187
H     0.80992  -2.35323  -1.43903
H    -0.39193  -3.29526  -0.50211
H     1.13905  -2.77194   0.25433
H     2.18463   1.99757  -3.18664
H     0.91580   2.59484  -2.08441
H     0.48686   1.63207  -3.54060
H     4.63583  -2.34801  -0.11957
H     3.59743  -2.23943   1.34679
H     4.78141  -0.93943   0.99175
H     0.91722   1.52780   1.10816
H    -0.90224   2.24389   2.13649
H    -2.45962   2.23395   1.25296
H    -1.27030   3.50252   0.91643
H    -2.57565   1.43527  -1.05756
H    -1.39371   2.58627  -1.71220
H    -1.14364   0.83146  -1.92845
