26
Generated by autodE on: 2022-05-25. E = -773.770380 Ha
C    -0.90063   2.84020  -0.06200
N    -0.05462   1.65857  -0.26047
N    -0.67922   0.63535  -1.05442
C    -1.45471  -0.26476  -0.16702
C    -1.60693  -1.57526  -0.82620
N    -1.72826  -2.60357  -1.34638
C    -2.81855   0.20831   0.17063
N    -3.88513   0.60656   0.39498
C    -0.56327  -0.30757   1.10421
C     0.56789  -1.39461   1.20578
C     1.31931  -1.48114  -0.11051
C     2.05359  -0.35357  -0.16656
C     2.84557   0.12952  -1.23379
N     3.50509   0.54857  -2.09761
C     1.73062   0.40841   1.11967
O     1.49570  -0.67137   2.02867
C     0.28844   0.99550   0.99275
H    -0.30802   3.60653   0.45679
H    -1.19199   3.24355  -1.04217
H    -1.81237   2.64449   0.53034
H    -1.24606   1.05430  -1.79327
H    -1.17606  -0.35706   2.00946
H     0.25851  -2.33610   1.66944
H     1.21169  -2.25295  -0.86984
H     2.48928   1.10307   1.49203
H     0.11528   1.67474   1.83406
