12
Generated by autodE on: 2022-05-25. E = -373.908833 Ha
C     2.29078   0.32327  -0.89400
N     1.88582   0.88315   0.37038
N     0.69920   0.66595   0.74645
C    -0.37535  -0.01206   0.21993
C    -0.40822  -0.70275  -1.01400
N    -0.55480  -1.29965  -2.00604
C    -1.55808  -0.01166   0.99823
N    -2.54121  -0.02118   1.62671
H     3.33971   0.59158  -1.06205
H     2.20042  -0.77595  -0.89743
H     1.68542   0.72267  -1.72499
H     0.48154   1.09418   1.65607
