12
Generated by autodE on: 2022-07-26. E = -373.912221 Ha
C     1.32640   2.73536  -0.50483
N     1.16434   1.30356  -0.44814
N     0.05078   0.91284  -0.01464
C    -0.33483  -0.39468   0.12855
C     0.55597  -1.42879  -0.22815
N     1.27881  -2.29762  -0.51832
C    -1.62155  -0.66957   0.63377
N    -2.68444  -0.91390   1.05127
H     1.55767   3.02441  -1.54243
H     2.19883   3.01727   0.10599
H     0.43886   3.29140  -0.15796
H    -0.66600   1.60789   0.26950
