14
Generated by autodE on: 2022-05-25. E = -399.800816 Ha
N     2.89280  -1.02833   1.18548
C     1.93324  -0.53756   0.74044
C     0.76561   0.02310   0.18191
C     0.25882   1.26109   0.31832
C    -1.07068   1.22405  -0.46394
C    -2.03391   0.31958   0.33769
C    -1.54238  -0.91461   0.19757
C    -0.28726  -0.74386  -0.68351
O    -0.70309   0.33199  -1.53372
H     0.64439   2.10177   0.89281
H    -1.45489   2.18082  -0.83130
H    -2.87832   0.67446   0.92697
H    -1.87574  -1.85429   0.63585
H     0.07845  -1.61092  -1.24182
