26
Generated by autodE on: 2022-05-25. E = -773.693989 Ha. Imaginary frequency = -404.2 cm-1
C     0.23575   2.86145  -0.68148
N    -0.15395   1.47241  -0.52985
N    -1.44209   1.28465  -0.57358
C    -1.90918  -0.00073  -0.47108
C    -1.35022  -1.02488  -1.27877
N    -0.94559  -1.87366  -1.96722
C    -3.20431  -0.20054   0.07202
N    -4.25518  -0.37659   0.54503
C    -0.37859  -0.30082   1.58401
C     0.71082  -1.39817   1.63250
C     1.24796  -1.59775   0.21945
C     1.91865  -0.46320  -0.05702
C     2.49919  -0.04984  -1.27625
N     2.99227   0.31389  -2.26780
C     1.79523   0.39676   1.21785
O     1.80183  -0.63911   2.21531
C     0.32064   0.86916   1.30118
H     1.25882   2.97671  -0.30170
H     0.23682   3.12168  -1.75249
H    -0.43940   3.55567  -0.14799
H    -2.07960   2.04382  -0.29294
H    -1.33392  -0.39191   2.09394
H     0.47436  -2.29476   2.21317
H     1.04017  -2.43633  -0.43883
H     2.56922   1.14992   1.38962
H     0.06877   1.84181   1.72498
