26
Generated by autodE on: 2022-06-15. E = -755.709706 Ha
C     2.67599   1.20436   1.37182
C     2.39704   0.67375   0.00208
O     2.88498   1.10687  -1.01292
C     1.38534  -0.54547  -0.08834
C     2.12246  -1.72918   0.37379
N     2.72851  -2.65859   0.71238
C     0.19272  -0.28548   0.71255
C    -0.93823   0.04455   0.99079
C    -2.31718   0.39856   0.64283
F    -2.84352   1.33672   1.48843
F    -3.11968  -0.70993   0.77588
C    -2.35850   0.90568  -0.79434
C    -1.63349   0.02321  -1.82847
C    -0.11888   0.27743  -2.07261
C     0.89209  -0.76594  -1.55648
H     2.79926   0.38425   2.09542
H     1.80522   1.79711   1.69889
H     3.56460   1.84774   1.35176
H    -3.42757   0.99216  -1.04604
H    -1.93603   1.92234  -0.78883
H    -1.80968  -1.03872  -1.58878
H    -2.14993   0.19542  -2.78405
H     0.15939   1.28034  -1.71069
H     0.03210   0.31077  -3.16192
H     1.79405  -0.75725  -2.18351
H     0.45721  -1.77441  -1.61463
