25
Generated by autodE on: 2022-07-27. E = -593.371450 Ha
C     1.49418   1.09584   2.16176
C     1.71518   1.47081   0.75697
N     1.12503   0.94521  -0.26371
C     1.39489   1.43175  -1.62303
C     0.17503  -0.14486  -0.15004
C     0.67359  -1.47041   0.02782
C     2.18565  -1.65687   0.08224
O    -0.04884  -2.48159   0.15274
C    -1.18365   0.30200  -0.24875
O    -1.51633   1.48675  -0.37359
O    -2.11952  -0.68055  -0.19700
C    -3.47997  -0.25825  -0.28365
H     1.34259   2.01735   2.74728
H     2.42019   0.63501   2.54919
H     0.65371   0.40439   2.29229
H     2.44310   2.26025   0.53953
H     0.44167   1.74272  -2.06938
H     1.81845   0.60699  -2.21217
H     2.09159   2.27864  -1.59392
H     2.73598  -1.00780  -0.61395
H     2.40823  -2.70808  -0.14628
H     2.55606  -1.44652   1.09979
H    -4.08457  -1.17226  -0.22539
H    -3.74341   0.41481   0.54672
H    -3.67831   0.25832  -1.23532
