51
Generated by autodE on: 2022-06-15. E = -1349.071063 Ha. Imaginary frequency = -349.6 cm-1
C    -7.18999  -4.16758  -7.53995
O    -5.89734  -4.44358  -6.99196
C    -4.99558  -3.44419  -7.03546
O    -5.27918  -2.35349  -7.51579
C    -3.68620  -3.80690  -6.47249
C    -3.42011  -5.17267  -5.98754
C    -2.09362  -5.81889  -6.34272
O    -4.26372  -5.85623  -5.40651
C    -4.18224  -2.15367  -4.45529
C    -3.18933  -1.44794  -4.70054
C    -1.77543  -2.57168  -5.77446
C    -1.30947  -3.40996  -4.62564
N    -2.61934  -2.95792  -6.75773
C    -2.60326  -2.10176  -7.96077
C    -2.59446  -0.11157  -4.48025
F    -2.11885   0.39085  -5.67484
F    -1.47756  -0.24172  -3.68056
C    -3.54252   0.90708  -3.87861
C    -4.11226   0.56299  -2.49497
C    -5.45295  -0.19522  -2.42004
C    -5.42226  -1.72620  -2.33789
C    -5.39022  -2.51292  -3.69845
C    -6.58981  -2.16121  -4.46796
N    -7.55409  -1.84211  -5.02722
C    -5.35845  -4.03200  -3.29389
C    -6.59333  -4.83970  -3.51274
O    -4.34839  -4.44881  -2.77321
H    -7.77371  -5.08575  -7.40209
H    -7.67080  -3.33225  -7.01298
H    -7.11383  -3.92795  -8.61109
H    -1.36818  -5.14936  -6.81523
H    -2.32649  -6.63155  -7.05093
H    -1.65368  -6.28249  -5.44779
H    -1.03918  -1.83813  -6.11395
H    -0.89897  -2.74057  -3.85802
H    -0.49191  -4.06832  -4.96267
H    -2.10006  -4.01885  -4.17334
H    -3.07218  -1.13049  -7.75947
H    -1.55554  -1.95134  -8.24931
H    -3.12987  -2.60145  -8.77817
H    -2.95945   1.83957  -3.81987
H    -4.35095   1.07163  -4.60718
H    -3.34742   0.03704  -1.89955
H    -4.26891   1.52631  -1.98706
H    -5.94933   0.13393  -1.49436
H    -6.11701   0.13136  -3.23854
H    -4.54227  -2.06686  -1.77390
H    -6.31642  -2.08170  -1.80256
H    -6.45325  -5.85301  -3.11751
H    -7.45024  -4.34927  -3.02324
H    -6.81008  -4.88019  -4.59072
