50
Generated by autodE on: 2022-06-09. E = -4203.706425 Ha
C     5.07073  -0.53677   0.55191
O     3.77250  -0.60570  -0.06020
C     2.90489   0.34094   0.28107
O     3.14729   1.26988   1.02007
C     1.59952   0.20194  -0.45462
N     1.61607   0.36190  -1.73011
C     0.22400   0.42090  -2.17263
C     0.00436  -0.55977  -3.32132
C     0.13495   1.91394  -2.67453
C     0.15325   2.99521  -1.63256
O     0.16470   2.13818  -3.86515
C    -0.62390   0.14763  -0.93706
C     0.24285   0.01453   0.11443
C     0.01272  -0.27416   1.57658
Cl    0.30634   1.27574   2.49476
Br    1.41445  -1.60461   2.18452
C    -1.32176  -0.82826   2.05813
C    -1.75398  -2.20392   1.54168
C    -1.61337  -2.47635   0.04592
C    -2.43279  -1.61319  -0.91295
C    -2.12638  -0.08620  -0.99093
C    -2.87211   0.81760   0.04536
C    -4.23457   0.40179   0.52261
O    -2.38235   1.88424   0.36286
C    -2.74793   0.52399  -2.30273
C    -3.77989  -0.24945  -3.06921
O    -2.41616   1.64277  -2.64149
H     5.63612  -1.38727   0.15501
H     4.97898  -0.61645   1.64506
H     5.56801   0.40883   0.29342
H    -0.98940  -0.45064  -3.77152
H     0.74893  -0.36716  -4.10377
H     0.12287  -1.59094  -2.96051
H    -0.68494   2.87231  -0.93475
H     0.10261   3.97414  -2.12619
H     1.08158   2.93039  -1.04357
H    -2.07565  -0.06296   1.85414
H    -1.26581  -0.86652   3.15484
H    -1.18098  -2.97303   2.08136
H    -2.80601  -2.33552   1.84356
H    -0.55108  -2.44921  -0.24245
H    -1.93228  -3.51632  -0.12938
H    -2.26207  -2.01955  -1.91805
H    -3.50297  -1.74538  -0.70554
H    -4.20397  -0.56841   1.03810
H    -4.62512   1.17360   1.19728
H    -4.91413   0.28556  -0.33658
H    -4.23172   0.41212  -3.81849
H    -4.55179  -0.66524  -2.40748
H    -3.30113  -1.10072  -3.57757
