20
Generated by autodE on: 2022-06-09. E = -552.786800 Ha
C     3.91406   0.25740  -0.30121
O     2.56479   0.24909   0.20084
C     1.88162  -0.88423   0.04705
O     2.30385  -1.90484  -0.45937
C     0.55898  -0.79052   0.65950
N    -0.54778  -0.57465   0.23196
C    -1.74441  -0.21157  -0.08134
C    -2.73837  -1.19534  -0.62554
C    -2.04784   1.22345   0.14788
C    -3.43403   1.68259  -0.21129
O    -1.19946   1.98122   0.61147
H     4.31025   1.25295  -0.07225
H     4.51236  -0.51681   0.19992
H     3.92019   0.08528  -1.38684
H    -2.29151  -2.19554  -0.69857
H    -3.08217  -0.89165  -1.62716
H    -3.62634  -1.25324   0.02417
H    -4.18680   1.11532   0.35957
H    -3.63458   1.49436  -1.27845
H    -3.53455   2.75422   0.00288
