26
Generated by autodE on: 2022-05-28. E = -776.921767 Ha
C    -2.00008  -2.74697  -1.75873
N    -1.54004  -1.61071  -0.98732
C    -0.25918  -1.21793  -1.04143
O     0.61426  -1.81403  -1.68359
C     0.10216   0.01257  -0.27992
C    -0.57382   1.08013   0.22331
C    -2.01511   1.38788   0.40379
C    -2.33803   2.70878   1.02668
O    -2.87854   0.58556   0.06751
O     0.30022   2.04296   0.68744
N     1.60925   1.66572   0.15853
N     1.48833   0.28303  -0.02830
C     2.21587  -0.56755   0.82484
C     3.48911  -0.00236   1.38074
O     1.81327  -1.69758   1.03593
H    -1.90197  -2.57096  -2.84324
H    -3.05584  -2.93015  -1.52462
H    -1.41906  -3.64865  -1.51217
H    -2.21678  -0.98041  -0.54661
H    -1.96001   3.52336   0.38776
H    -1.82197   2.80081   1.99615
H    -3.42283   2.79950   1.15985
H     1.58344   2.09687  -0.77516
H     4.09717   0.46195   0.59162
H     4.04610  -0.81174   1.86818
H     3.25449   0.77954   2.11955
