10
Generated by autodE on: 2022-05-28. E = -338.647683 Ha
C    -1.71767   0.39222   0.49845
C    -0.70773  -0.39404  -0.27530
O    -0.77241  -1.57784  -0.52011
N     0.34207   0.38464  -0.86943
N     1.27576   0.71492  -0.09524
O     1.42126   0.42167   1.10241
H    -1.21930   0.97777   1.28633
H    -2.21430   1.10332  -0.18206
H    -2.46100  -0.28638   0.93590
H     2.01456   1.29931  -0.53685
