26
Generated by autodE on: 2022-05-28. E = -776.827803 Ha. Imaginary frequency = -391.3 cm-1
C    -1.19694  -3.07000  -2.33765
N    -0.63743  -2.10215  -1.41738
C    -1.02805  -0.82476  -1.42658
O    -1.85959  -0.35252  -2.21377
C    -0.42879   0.05494  -0.40162
C    -0.59327   1.04652   0.34831
C    -1.44103   2.05996   0.98903
C    -2.50754   2.62164   0.09291
O    -1.27501   2.39422   2.14893
O     1.22044   1.59515   0.97423
N     1.91227   1.06716   0.05273
N     1.74488  -0.18058  -0.22961
C     1.83464  -1.13812   0.80131
C     2.84803  -0.87009   1.87941
O     1.20596  -2.18081   0.73002
H    -2.28537  -3.17272  -2.19891
H    -0.72351  -4.04296  -2.15939
H    -1.01774  -2.77291  -3.38310
H     0.05146  -2.37332  -0.70880
H    -3.00082   1.81710  -0.47367
H    -2.02344   3.28288  -0.64670
H    -3.23346   3.19833   0.68133
H     2.16215   1.66961  -0.74704
H     3.83279  -0.67572   1.42765
H     2.89998  -1.74352   2.53983
H     2.56045   0.02163   2.45425
