33
Generated by autodE on: 2022-07-27. E = -749.055046 Ha
C    -1.47056   3.34232   1.59836
C    -0.74043   2.02164   1.65454
O    -0.24687   1.64284   2.75041
C    -0.59133   1.22111   0.47623
N     0.15687   0.09298   0.71661
C     0.48939  -0.93442  -0.02783
C     1.29618  -2.04129   0.43718
C     1.52538  -3.11187  -0.45624
C     2.28952  -4.21192  -0.07158
C     2.84417  -4.26942   1.21170
C     2.62789  -3.21297   2.10668
C     1.86612  -2.11012   1.72967
C    -1.12564   1.50974  -0.86413
C    -2.47852   1.86156  -1.04207
C    -2.98235   2.16311  -2.30919
C    -2.15072   2.10525  -3.43160
C    -0.80688   1.74806  -3.27352
C    -0.29928   1.45657  -2.00687
H    -1.46233   3.80105   0.60119
H    -1.00981   4.02562   2.32683
H    -2.52269   3.20121   1.89827
H     0.45619   0.11226   1.70636
H     0.12427  -0.95176  -1.05522
H     1.09251  -3.06857  -1.45855
H     2.45398  -5.02980  -0.77691
H     3.44406  -5.13065   1.51414
H     3.06107  -3.24940   3.10894
H     1.72358  -1.29865   2.44702
H    -3.14259   1.88734  -0.17635
H    -4.03509   2.43423  -2.42074
H    -2.54656   2.33473  -4.42368
H    -0.14568   1.70610  -4.14261
H     0.75729   1.20188  -1.89938
