41
Generated by autodE on: 2022-10-21. E = -3588.915787 Ha
C    -1.43915  -3.20760   0.56962
N    -1.27400  -1.91750  -0.06361
C    -1.24763  -0.75639   0.60446
O    -1.44002  -0.62972   1.81766
C    -1.04593   0.49135  -0.27031
C    -2.43946   1.10840  -0.46504
C    -3.11038   0.95647  -1.68500
C    -4.39530   1.48010  -1.85777
C    -5.02937   2.15016  -0.80804
C    -4.37029   2.29110   0.41772
C    -3.08409   1.77370   0.58838
O    -0.48225   0.10540  -1.52269
C     0.16606   1.24460  -2.09998
C     0.69146   2.07160  -0.92436
C     2.17326   1.85642  -0.49366
O     2.08982   2.09210   0.91985
C     1.16328   1.01990   1.19275
C     1.88334  -0.15811   0.53980
Br    1.91825  -1.89385   1.27461
C     2.48761   0.36369  -0.54779
O     3.16036  -0.11384  -1.59830
C     3.04298  -1.50611  -1.91347
C    -0.04705   1.50773   0.32243
H    -2.26411  -3.76774   0.10291
H    -0.51988  -3.80859   0.48879
H    -1.66852  -3.05651   1.63107
H    -1.02158  -1.87721  -1.04638
H    -2.62084   0.42435  -2.50115
H    -4.90283   1.36009  -2.81801
H    -6.03370   2.55878  -0.94247
H    -4.85936   2.80704   1.24746
H    -2.58448   1.87710   1.55275
H    -0.55581   1.82864  -2.69363
H     0.95273   0.87187  -2.76980
H     0.50909   3.14325  -1.06759
H     2.91253   2.50289  -0.98013
H     0.95437   0.92603   2.26244
H     3.47347  -1.63063  -2.91505
H     1.98376  -1.80446  -1.92276
H     3.60032  -2.12514  -1.19594
H    -0.56206   2.29231   0.88427
