17
Generated by autodE on: 2022-10-21. E = -2995.673361 Ha
C     2.59996   0.02435   1.14003
O     1.48161   0.76846   1.63058
C     0.34459   0.75710   0.93374
C    -0.12500   0.19134  -0.19521
Br    0.58202  -1.05109  -1.42126
C    -1.62350   0.58409  -0.22485
C    -2.32801  -0.16342   0.93271
C    -1.85360   0.40678   2.04428
C    -0.87810   1.49297   1.53716
O    -1.54453   1.90899   0.33358
H     3.41892   0.19936   1.84876
H     2.36899  -1.05056   1.10245
H     2.89617   0.37791   0.14094
H    -2.10609   0.57263  -1.20827
H    -3.00820  -1.00633   0.81472
H    -2.03177   0.16201   3.09061
H    -0.63928   2.32729   2.20587
