24
Generated by autodE on: 2022-10-21. E = -593.084279 Ha
C     2.12567   2.01402  -0.71864
O     1.04223   1.47788  -0.27050
C     0.53299   0.24571  -0.29232
C     1.30053  -0.88724  -0.85302
O     0.77227  -1.70759  -1.62458
N     2.60096  -1.01558  -0.48036
C     3.23922  -0.41012   0.67127
C    -0.83910   0.14847   0.17005
C    -1.48117  -1.10457   0.32298
C    -2.79166  -1.18534   0.79115
C    -3.50593  -0.03027   1.12935
C    -2.88265   1.21552   0.98826
C    -1.57559   1.30865   0.51474
H     2.20302   3.08836  -0.55495
H     2.84975   1.42662  -1.28402
H     3.09111  -1.77874  -0.94125
H     3.80705  -1.17595   1.21876
H     3.93535   0.39964   0.39555
H     2.48101  -0.00257   1.35440
H    -0.94648  -2.01850   0.06600
H    -3.25974  -2.16749   0.89688
H    -4.53246  -0.09931   1.49606
H    -3.42403   2.12968   1.24558
H    -1.11155   2.28994   0.40642
