24
Generated by autodE on: 2022-10-26. E = -593.091724 Ha
C     1.96788   0.05512  -2.09330
O     1.53406  -0.57810  -1.05945
C     0.55242  -0.38341  -0.17757
C     0.52221  -1.38834   0.88491
O    -0.37072  -1.40111   1.75751
N     1.51402  -2.31798   0.89126
C     1.52356  -3.39764   1.85347
C    -0.40267   0.71530  -0.29841
C    -0.91070   1.12462  -1.55182
C    -1.84125   2.16053  -1.64527
C    -2.28818   2.81756  -0.49491
C    -1.79725   2.42145   0.75457
C    -0.86720   1.38817   0.85478
H     1.49649   0.97822  -2.43114
H     2.85936  -0.37668  -2.54759
H     2.20004  -2.31327   0.14657
H     1.52290  -3.01464   2.88644
H     0.64695  -4.05930   1.74462
H     2.43097  -3.99655   1.70514
H    -0.60334   0.61022  -2.46357
H    -2.22370   2.45168  -2.62662
H    -3.01250   3.63184  -0.57073
H    -2.13646   2.92890   1.66107
H    -0.48939   1.09031   1.83210
