41
Generated by autodE on: 2022-10-21. E = -3588.776836 Ha. Imaginary frequency = -193.6 cm-1
C    -0.84271  -3.62610   0.70255
N    -0.87909  -2.44808  -0.13545
C    -1.62130  -1.36592   0.20889
O    -2.41015  -1.40959   1.17288
C    -1.48703  -0.16854  -0.63382
C    -2.58184   0.79777  -0.78195
C    -3.06208   1.17525  -2.05445
C    -4.13132   2.06275  -2.18470
C    -4.75363   2.59448  -1.05108
C    -4.29866   2.21830   0.21721
C    -3.22756   1.33535   0.35306
O    -0.50020  -0.27261  -1.53351
C    -0.03059   0.59767  -2.37066
C     0.72136   2.27044  -0.66569
C     2.23953   2.02191  -0.50397
O     2.41039   2.34639   0.89221
C     1.41255   1.39705   1.34553
C     1.98035   0.10750   0.72594
Br    1.87948  -1.54077   1.62523
C     2.47890   0.49714  -0.46313
O     3.02403  -0.08760  -1.53328
C     3.01418  -1.51539  -1.61126
C     0.19373   1.86750   0.51712
H    -1.81093  -4.15354   0.70236
H    -0.07521  -4.31080   0.32021
H    -0.60137  -3.37285   1.74745
H    -0.20599  -2.35626  -0.88608
H    -2.62019   0.74935  -2.95637
H    -4.48533   2.33292  -3.18264
H    -5.58681   3.29335  -1.15478
H    -4.77713   2.62274   1.11259
H    -2.88019   1.05238   1.34552
H     0.87797   0.28254  -2.88135
H    -0.64845   1.41442  -2.73109
H     0.28411   2.91411  -1.42317
H     2.91605   2.58105  -1.15961
H     1.30026   1.40039   2.43486
H     3.40879  -1.77205  -2.60209
H     1.98888  -1.90144  -1.51018
H     3.65608  -1.95641  -0.83456
H    -0.80522   2.01446   0.91452
