51
Generated by autodE on: 2022-06-07. E = -3874.246886 Ha
C    -3.79776   2.48613  -1.65405
N    -2.74662   1.64220  -1.12342
C    -2.64743   1.29700   0.16571
O    -3.42326   1.64922   1.05736
C    -1.47885   0.32482   0.49436
C    -2.05824  -1.07340   0.53578
C    -2.75137  -1.50248   1.67524
C    -3.30792  -2.78235   1.71506
C    -3.18418  -3.63717   0.61578
C    -2.51039  -3.20171  -0.52868
C    -1.95362  -1.92205  -0.57318
O    -0.48095   0.37428  -0.54134
N     0.30647   1.50158  -0.23651
C     1.15674   1.98561  -1.17515
C     0.99729   1.44528  -2.56798
O     1.99283   2.83367  -0.84803
C     0.37810   1.71571   1.19589
C     1.63216   1.12173   1.92098
O     1.04797   0.75227   3.17660
C     0.09075  -0.17447   2.64272
C     0.98894  -1.03678   1.76565
Br    0.72465  -2.88211   1.54277
C     1.94638  -0.22730   1.26319
C     2.95156  -0.40924   0.21558
C     2.75151  -1.33215  -0.83096
C     3.68796  -1.45829  -1.85667
C     4.84028  -0.66504  -1.86110
C     5.04603   0.26134  -0.83376
C     4.10926   0.39348   0.19142
C    -0.74735   0.81498   1.75492
H    -4.39099   1.94545  -2.40787
H    -3.37570   3.38768  -2.12395
H    -4.45854   2.78885  -0.83313
H    -2.03507   1.28435  -1.75416
H    -2.85473  -0.83849   2.53473
H    -3.83733  -3.11335   2.61144
H    -3.61476  -4.64069   0.65043
H    -2.41296  -3.86315  -1.39268
H    -1.42226  -1.58940  -1.46505
H     1.68729   1.98000  -3.23174
H    -0.03757   1.56874  -2.92102
H     1.23106   0.36988  -2.58325
H     0.25837   2.78113   1.42356
H     2.46353   1.81871   2.05396
H    -0.47021  -0.68028   3.43340
H     1.84195  -1.93154  -0.85439
H     3.51115  -2.17253  -2.66418
H     5.57151  -0.76303  -2.66683
H     5.94004   0.88916  -0.83317
H     4.28008   1.12326   0.98428
H    -1.43578   1.36049   2.40643
