28
Generated by autodE on: 2022-07-27. E = -761.863125 Ha
C    -1.79618   3.55981  -0.46809
N    -0.89227   2.44511  -0.26578
C    -1.36208   1.19818  -0.15642
O    -2.55672   0.89428  -0.19148
C    -0.31961   0.10809   0.05582
O     0.89661   0.21065  -0.32331
N     1.45479   1.35829  -0.91656
C     2.70598   1.02389  -1.32652
C     3.42735   2.20316  -1.93642
O     3.23808  -0.09292  -1.24404
C    -0.64614  -1.17024   0.66418
C    -1.81335  -1.35790   1.43948
C    -2.05791  -2.59115   2.03724
C    -1.15977  -3.64965   1.86733
C     0.00255  -3.47264   1.10346
C     0.26517  -2.24483   0.51183
H    -1.22522   4.49403  -0.41226
H    -2.57775   3.56545   0.30581
H    -2.29312   3.50053  -1.45066
H     0.11607   2.53477  -0.44584
H     4.34502   2.39387  -1.35770
H     2.81448   3.11371  -1.95814
H     3.73199   1.94070  -2.96162
H    -2.51281  -0.53706   1.57692
H    -2.95654  -2.72734   2.64197
H    -1.36288  -4.61663   2.33311
H     0.70330  -4.29932   0.97156
H     1.16964  -2.09736  -0.07893
