45
Generated by autodE on: 2022-10-07. E = -1046.751069 Ha
C     4.39381  -0.69109  -0.97280
N     3.16605  -0.20040  -0.36797
C     2.05169  -0.92589  -0.36493
O     1.95300  -2.08174  -0.77557
C     0.77958  -0.23661   0.22685
C     1.13667   0.31798   1.62442
O     0.95841  -0.31917   2.63946
O     1.70377   1.50278   1.54645
C     2.16735   2.08856   2.78162
N    -0.22897  -1.34080   0.44577
C    -1.56390  -0.89171  -0.17234
N    -1.60182  -1.53991  -1.45960
N    -2.60726  -1.16695   0.77923
C    -3.07137  -2.54938   0.84355
C    -1.28262   0.64986  -0.32729
C    -1.56785   1.41236   0.98815
C    -2.17553   1.34757  -1.37016
C    -1.90046   2.79668  -1.66754
O    -3.14483   0.77802  -1.83805
N     0.15753   0.71371  -0.66209
C     0.52828   0.59529  -2.08374
H     4.31579  -0.70398  -2.07163
H     4.60311  -1.71237  -0.62572
H     5.21881  -0.03194  -0.67870
H     3.12404   0.76274  -0.04290
H     1.31730   2.23646   3.46128
H     2.61329   3.04921   2.50422
H     2.91415   1.43215   3.24841
H    -0.31922  -1.53916   1.45371
H     0.15697  -2.17630  -0.03449
H    -2.40336  -1.17386  -1.97323
H    -1.74314  -2.54426  -1.34109
H    -3.38830  -0.54360   0.57874
H    -2.24326  -3.21608   1.13033
H    -3.84099  -2.62725   1.62385
H    -3.50382  -2.92768  -0.10067
H    -1.08303   2.39477   0.95169
H    -2.64833   1.55561   1.12602
H    -1.21445   0.87059   1.87179
H    -2.17338   3.00788  -2.71056
H    -2.56269   3.39641  -1.02024
H    -0.86524   3.09502  -1.46634
H     1.56446   0.93144  -2.21542
H    -0.09558   1.27096  -2.67924
H     0.41433  -0.42083  -2.48412
