32
Generated by autodE on: 2022-10-07. E = -801.478934 Ha
C    -0.53008  -0.69969  -4.04876
N    -0.64008   0.04456  -2.81465
C    -0.15963  -0.45190  -1.64493
O     0.51987  -1.50426  -1.62397
C    -0.47502   0.29283  -0.42986
C    -1.34777   1.41524  -0.36447
O    -1.95608   1.93196  -1.31480
O    -1.46051   1.93553   0.89183
C    -2.37102   3.02202   1.05403
N     0.05141  -0.24326   0.77718
C    -0.88575  -0.73801   1.81180
C     1.33006  -0.45335   0.91552
C     2.36672   0.11569   0.02453
C     1.81780  -1.32016   2.06278
C     2.07331  -2.75157   1.71220
O     2.02202  -0.81676   3.14918
H     0.51607  -0.97369  -4.25446
H    -1.12023  -1.63394  -4.03675
H    -0.89294  -0.07476  -4.87539
H    -1.28286   0.83151  -2.73844
H    -2.34025   3.28730   2.11826
H    -3.39443   2.72944   0.77339
H    -2.06826   3.88802   0.44621
H    -0.66534  -0.26694   2.77663
H    -0.78397  -1.82926   1.89808
H    -1.90544  -0.49951   1.50222
H     2.64049  -0.62258  -0.74672
H     1.98428   1.01199  -0.48508
H     3.26598   0.35132   0.61334
H     2.93115  -2.78701   1.01806
H     1.21104  -3.17025   1.16974
H     2.29873  -3.33307   2.61585
