32
Generated by autodE on: 2022-10-13. E = -801.477246 Ha
C     3.73709  -1.90455  -1.06004
N     2.78687  -1.10905  -0.31586
C     1.58207  -0.77887  -0.84734
O     1.31822  -1.07895  -2.03584
C     0.61016  -0.07510  -0.01653
C     0.66102   0.26455   1.37086
O    -0.20574   0.88618   1.99643
O     1.79791  -0.15198   2.00707
C     1.92871   0.19901   3.38488
N    -0.56182   0.37662  -0.69495
C    -0.36358   1.37038  -1.76393
C    -1.75641   0.03555  -0.30102
C    -2.01674  -1.04650   0.67288
C    -2.98029   0.75626  -0.83809
C    -3.23351   2.12787  -0.29684
O    -3.72562   0.15736  -1.58866
H     4.03081  -1.41097  -2.00046
H     3.33582  -2.89912  -1.32229
H     4.63716  -2.04529  -0.44776
H     2.94103  -0.91668   0.66777
H     1.11212  -0.23363   3.98182
H     1.93025   1.29138   3.51744
H     2.88979  -0.21654   3.71222
H    -0.12121   2.33986  -1.30735
H     0.47263   1.03180  -2.38268
H    -1.25867   1.45024  -2.39269
H    -2.13109  -0.61588   1.68199
H    -2.95222  -1.55804   0.40478
H    -1.17205  -1.75042   0.70093
H    -3.37353   2.04045   0.79464
H    -2.36452   2.78523  -0.44994
H    -4.13201   2.55663  -0.75972
