45
Generated by autodE on: 2022-10-07. E = -1046.708789 Ha. Imaginary frequency = -405.9 cm-1
C     4.61503  -0.48399  -1.09904
N     3.40600   0.10485  -0.54866
C     2.21595  -0.48748  -0.68059
O     2.03467  -1.55873  -1.26665
C     1.04939   0.21333  -0.00538
C     1.27697   0.54017   1.43958
O     1.31607   1.68436   1.84291
O     1.56835  -0.53270   2.16252
C     1.98033  -0.30279   3.52322
N    -0.52287  -1.68585   0.38119
C    -1.59962  -1.19134  -0.33492
N    -1.55342  -1.58353  -1.70005
N    -2.88000  -1.37728   0.24099
C    -3.04782  -1.79953   1.61817
C    -1.27713   0.68964  -0.24527
C    -1.52857   1.08585   1.20081
C    -2.26289   1.47685  -1.11426
C    -2.03324   2.95284  -1.28610
O    -3.26543   0.93137  -1.54447
N     0.05939   0.71617  -0.72725
C     0.27697   0.92180  -2.17717
H     5.47628   0.10955  -0.77175
H     4.58407  -0.49652  -2.19991
H     4.73238  -1.51875  -0.74553
H     3.45970   1.01270  -0.09392
H     2.19890  -1.29208   3.93930
H     1.16893   0.18039   4.08495
H     2.87716   0.33211   3.54301
H     0.16133  -2.25934  -0.10376
H    -0.60320  -1.83205   1.38078
H    -0.63670  -1.44005  -2.11880
H    -2.25428  -1.08384  -2.24436
H    -3.53474  -0.66403  -0.06608
H    -2.62800  -1.11565   2.37737
H    -2.60190  -2.79413   1.77557
H    -4.12484  -1.88604   1.81788
H    -1.14987   2.09876   1.39648
H    -2.61043   1.07865   1.38442
H    -1.06794   0.40176   1.92174
H    -2.58421   3.31614  -2.16372
H    -2.44328   3.44779  -0.38835
H    -0.97139   3.22289  -1.34760
H     0.77878   1.88853  -2.31615
H     0.90472   0.12757  -2.59360
H    -0.67491   0.92475  -2.71485
