55
Generated by autodE on: 2022-10-22. E = -1286.078946 Ha
C    -2.25463   3.10309   2.27263
N    -1.78224   1.82891   1.76728
C    -1.35485   1.68192   0.50860
O    -1.34061   2.60597  -0.31027
C    -0.93158   0.23461   0.13254
C    -2.15009  -0.50534  -0.40484
C    -2.37489  -1.83987  -0.03705
C    -3.47450  -2.53863  -0.54211
C    -4.36593  -1.91288  -1.41774
C    -4.15234  -0.57943  -1.77906
C    -3.05464   0.12173  -1.27493
O    -0.50201  -0.41565   1.31573
C     0.82734  -0.01867   1.60219
C     1.42659  -0.98082   2.62180
C     0.50428  -1.96700   3.27675
O     2.60638  -0.89686   2.91848
C     1.55272   0.18687   0.22293
O     2.27396   1.39206   0.21738
C     3.47328   1.44395   0.97092
C     2.35231  -1.06284  -0.22290
C     2.95571  -0.80012  -1.61808
C     1.73098  -0.95329  -2.56364
C     0.54900  -1.12483  -1.57946
C     1.21057  -2.04305  -0.54105
C     0.33917   0.22817  -0.80996
C     0.20196   1.33133  -1.88831
C     1.08586   2.54319  -1.96345
O    -0.60334   1.11090  -2.78331
H    -2.50756   2.99242   3.33377
H    -3.14965   3.43929   1.72562
H    -1.48106   3.87998   2.16885
H    -1.72818   1.02056   2.37978
H    -1.68759  -2.33276   0.64881
H    -3.63380  -3.57837  -0.24651
H    -5.22600  -2.45915  -1.81213
H    -4.84685  -0.07643  -2.45603
H    -2.90210   1.16115  -1.56113
H     0.82935   0.97084   2.09727
H    -0.36045  -1.44348   3.71404
H     0.10205  -2.66419   2.52513
H     1.04966  -2.52131   4.05117
H     4.21821   0.71288   0.61475
H     3.88092   2.45560   0.83505
H     3.29600   1.26431   2.04292
H     3.07990  -1.39461   0.52452
H     3.41411   0.19613  -1.68122
H     3.73733  -1.54042  -1.84062
H     1.61461  -0.11629  -3.26268
H     1.81449  -1.86672  -3.17064
H    -0.37019  -1.48658  -2.05095
H     0.57480  -2.30102   0.31131
H     1.57913  -2.97579  -0.99324
H     0.69358   3.20303  -2.74926
H     1.15711   3.06665  -1.00608
H     2.10383   2.22055  -2.23343
