29
Generated by autodE on: 2022-10-22. E = -745.833157 Ha
C    -1.53997   3.54888  -1.53257
N    -1.06059   2.19402  -1.34070
C    -0.68014   1.75598  -0.12396
O    -0.68930   2.49138   0.87485
C    -0.20201   0.35090  -0.02998
O     0.63333   0.04099   0.92177
C     1.24816   0.69714   1.88956
C     2.16074  -0.05557   2.69629
C     2.35134  -1.52747   2.39866
O     2.78188   0.50738   3.61596
C    -0.56819  -0.76128  -0.89965
C    -1.78551  -0.77847  -1.61696
C    -2.11774  -1.86763  -2.42210
C    -1.25476  -2.96254  -2.52616
C    -0.05124  -2.96324  -1.80969
C     0.29125  -1.87985  -1.00625
H    -2.40807   3.75476  -0.88740
H    -1.83712   3.67261  -2.58067
H    -0.75792   4.28762  -1.29324
H    -0.98168   1.58100  -2.14472
H     1.05064   1.75646   2.03286
H     1.39014  -2.06307   2.38948
H     2.80813  -1.66309   1.40453
H     3.01135  -1.96248   3.16058
H    -2.48971   0.04804  -1.52409
H    -3.06631  -1.86361  -2.96359
H    -1.51841  -3.81274  -3.15906
H     0.62991  -3.81396  -1.88484
H     1.23468  -1.88401  -0.45941
