29
Generated by autodE on: 2022-10-26. E = -745.832245 Ha
C    -1.42333   3.88765  -0.45646
N    -1.23032   2.45600  -0.34508
C    -0.02611   1.88336  -0.13943
O     1.01824   2.52755   0.03463
C    -0.00776   0.39445  -0.08330
O     0.90447  -0.18931   0.64060
C     1.87533   0.21697   1.44055
C     2.63175  -0.80313   2.09997
C     2.28177  -2.25240   1.83608
O     3.55252  -0.48830   2.87619
C    -0.90723  -0.51754  -0.77907
C    -1.08448  -1.83491  -0.29468
C    -1.91857  -2.72827  -0.96000
C    -2.59581  -2.33592  -2.12163
C    -2.42168  -1.04006  -2.61657
C    -1.58536  -0.13832  -1.95933
H    -2.11185   4.25000   0.32274
H    -1.84279   4.15078  -1.44033
H    -0.45584   4.38793  -0.33569
H    -2.04355   1.85669  -0.44299
H     2.05835   1.28091   1.56921
H     3.00786  -2.89392   2.35243
H     2.28789  -2.47680   0.75875
H     1.26938  -2.47862   2.20911
H    -0.56880  -2.14511   0.61477
H    -2.04870  -3.73872  -0.56583
H    -3.25299  -3.03858  -2.63865
H    -2.93213  -0.72884  -3.53071
H    -1.43711   0.85531  -2.38231
