42
Generated by autodE on: 2022-06-19. E = -1103.077558 Ha
C    -1.31385   2.35828   1.88233
N    -1.28582   1.44339   0.75825
C    -0.95131   0.15896   0.90412
O    -0.83482  -0.42132   1.98857
C    -0.73219  -0.63490  -0.39857
C    -1.55015  -1.92826  -0.25744
O    -1.08541  -3.04615  -0.21850
O    -2.84819  -1.65251  -0.18103
C    -3.74337  -2.76746  -0.03108
O    -1.23357   0.13198  -1.51186
N    -0.25509   0.16454  -2.57173
C    -0.51503  -0.94414  -3.48451
C     1.01931   0.06906  -1.86775
C     0.75596  -0.92780  -0.72787
C     1.75089  -0.85684   0.42781
C     1.96738   0.57289   0.84988
C     2.31486   0.96708   2.21706
N     2.61428  -0.03203   3.08430
O     2.34624   2.15822   2.59992
C     1.78833   1.56185  -0.07298
N     1.42271   1.38012  -1.36563
C     1.26861   2.51976  -2.25501
H    -0.29284   2.61657   2.20937
H    -1.83941   3.27583   1.58971
H    -1.84120   1.89840   2.72935
H    -1.27869   1.80704  -0.19058
H    -3.51371  -3.31629   0.89328
H    -4.75096  -2.33990   0.01881
H    -3.65718  -3.44392  -0.89320
H     0.19864  -0.87274  -4.31728
H    -0.42149  -1.94183  -3.01971
H    -1.53008  -0.83425  -3.88824
H     1.76732  -0.31139  -2.57975
H     0.79244  -1.93605  -1.15322
H     2.69214  -1.32953   0.09661
H     1.36469  -1.47006   1.25344
H     2.61444  -1.00737   2.81534
H     2.82780   0.20793   4.04592
H     1.95315   2.60076   0.21923
H     0.21730   2.83590  -2.34827
H     1.85743   3.36072  -1.86609
H     1.64246   2.27122  -3.25995
