20
Generated by autodE on: 2022-06-19. E = -457.715349 Ha
C     3.14900   0.39233  -0.12367
N     1.81176  -0.02125   0.26964
C     1.60540  -0.57207   1.54081
C     0.38429  -0.86925   2.01264
C    -0.88237  -0.64136   1.22490
C    -0.56418  -0.00448  -0.11806
C    -1.63100   0.34707  -1.06930
N    -2.89690   0.05784  -0.67635
O    -1.41820   0.88217  -2.17644
C     0.71859   0.26029  -0.49401
H     3.15374   0.64070  -1.19257
H     3.48518   1.27659   0.44465
H     3.86790  -0.42298   0.04818
H     2.51490  -0.74539   2.11888
H     0.30493  -1.30360   3.01184
H    -1.42443  -1.60022   1.09026
H    -1.58330  -0.00864   1.80673
H    -3.66307   0.27911  -1.30274
H    -3.10640  -0.39018   0.20640
H     0.91822   0.72142  -1.46262
