22
Generated by autodE on: 2022-06-19. E = -645.258871 Ha
C    -0.49023   3.30001  -0.74366
N     0.34614   2.14793  -0.51098
O    -0.41681   1.14053  -0.21121
C    -0.04081  -0.09767   0.02886
C     1.35931  -0.58693  -0.04611
O     1.63573  -1.77987   0.14557
N     2.30139   0.33480  -0.33487
C     3.69326  -0.04637  -0.44343
C    -1.18163  -0.96431   0.38707
O    -1.09529  -2.13985   0.68968
O    -2.34972  -0.30352   0.34697
C    -3.51734  -1.06272   0.68396
H    -1.44298   3.23687  -0.19652
H     0.07066   4.19351  -0.43463
H    -0.70632   3.40054  -1.82444
H     1.99920   1.29761  -0.49525
H     4.28607   0.84383  -0.68585
H     3.84174  -0.80083  -1.23296
H     4.06432  -0.47637   0.50089
H    -4.36149  -0.36857   0.59893
H    -3.64674  -1.90444  -0.01209
H    -3.44578  -1.44869   1.71141
