22
Generated by autodE on: 2022-07-27. E = -645.251214 Ha
C     0.93339  -0.13852  -2.78760
N     0.33332   1.08774  -2.38322
O    -0.01109   1.15243  -1.12184
C    -0.00079   0.24908  -0.15157
C    -0.09293   0.84013   1.20968
O    -0.35500   0.14274   2.19862
N     0.12290   2.16863   1.29396
C    -0.01225   2.86850   2.55515
C    -0.26256  -1.17586  -0.40338
O    -0.98018  -1.56502  -1.31248
O     0.32286  -1.98418   0.48026
C    -0.00775  -3.37886   0.39099
H     0.21029  -0.95595  -2.97029
H     1.47389   0.07301  -3.71895
H     1.62783  -0.51347  -2.00495
H     0.33532   2.69416   0.45324
H     0.69483   2.47853   3.30440
H    -1.02937   2.76466   2.96652
H     0.19678   3.93264   2.39296
H    -1.09236  -3.52492   0.49778
H     0.32486  -3.79055  -0.57272
H     0.52454  -3.86595   1.21580
