42
Generated by autodE on: 2022-06-19. E = -1102.971069 Ha. Imaginary frequency = -258.2 cm-1
C    -1.08493   2.21958   2.34958
N    -1.26041   1.51595   1.09663
C    -1.20979   0.17360   0.99398
O    -1.16852  -0.59339   1.96620
C    -1.23509  -0.37244  -0.40074
C    -1.90885  -1.68769  -0.59271
O    -2.94950  -1.81098  -1.21416
O    -1.29811  -2.69077   0.03517
C    -1.96199  -3.96403   0.01078
O    -1.33276   0.58391  -1.31661
N    -1.00522   0.53382  -2.61946
C    -1.18923  -0.74198  -3.26531
C     1.38207  -0.01353  -1.81809
C     1.11528  -0.97430  -0.86886
C     1.67312  -0.86003   0.52865
C     1.93434   0.59322   0.86773
C     2.13973   1.05784   2.25222
N     2.02958   0.12139   3.22416
O     2.41275   2.24137   2.53631
C     2.02727   1.51950  -0.12152
N     1.87006   1.22842  -1.45338
C     1.91805   2.27620  -2.46184
H    -0.11179   2.73316   2.38078
H    -1.88137   2.96625   2.49063
H    -1.12611   1.49760   3.17315
H    -1.19406   2.04583   0.23380
H    -2.96311  -3.88316   0.45775
H    -2.04909  -4.32951  -1.02236
H    -1.33413  -4.64041   0.60159
H    -0.73796  -0.63509  -4.26152
H    -0.72406  -1.60681  -2.76494
H    -2.26159  -0.97828  -3.39415
H     1.35246  -0.21430  -2.88542
H     0.84190  -1.96914  -1.21614
H     2.60816  -1.45408   0.60019
H     0.97748  -1.32523   1.24275
H     2.09218   0.42361   4.19060
H     1.69176  -0.81412   3.03542
H     2.24608   2.56149   0.11382
H     0.89981   2.53551  -2.79474
H     2.40649   3.16532  -2.04550
H     2.49141   1.93375  -3.33588
