55
Generated by autodE on: 2022-06-04. E = -1807.112740 Ha
C   -12.34263   0.88238  -1.45429
N   -11.11970   0.59706  -0.73278
C    -9.89872   0.70216  -1.27392
O    -9.66270   1.15083  -2.39585
C    -8.75672   0.20159  -0.34201
C    -8.21148   1.38690   0.47919
O    -8.70959   2.49013   0.50454
O    -7.14579   1.01788   1.17572
C    -6.48576   2.03281   1.94853
O    -9.25905  -0.73611   0.59045
C    -8.85092  -2.07413   0.23762
C    -8.46699  -2.74404   1.54689
C   -10.11501  -2.72692  -0.37150
O   -10.83063  -3.51289   0.20918
O   -10.36176  -2.25088  -1.58661
C   -11.58033  -2.65734  -2.22647
C    -7.74365  -1.87691  -0.80822
C    -7.66841  -0.56185  -1.09001
C    -6.75281   0.22234  -2.00019
F    -6.98639   1.56880  -1.76680
Cl   -5.00280   0.03999  -1.42929
C    -6.89914  -0.01228  -3.51833
C    -7.76286  -1.19830  -3.95486
C    -7.05661  -2.55578  -3.92169
C    -6.22558  -2.86318  -2.67571
C    -6.93732  -3.07764  -1.31565
C    -7.84467  -4.31893  -1.45796
C    -5.82314  -3.38613  -0.28406
H   -12.96534  -0.02163  -1.53494
H   -12.92788   1.66509  -0.94672
H   -12.08873   1.23093  -2.46235
H   -11.17971   0.12041   0.16215
H    -7.17038   2.45007   2.70031
H    -5.63884   1.53655   2.43512
H    -6.12944   2.83352   1.28477
H    -8.24159  -3.80952   1.42565
H    -7.59539  -2.22859   1.97054
H    -9.31164  -2.64956   2.24346
H   -12.44149  -2.43372  -1.58218
H   -11.63661  -2.08106  -3.15634
H   -11.54948  -3.73469  -2.44344
H    -7.36742   0.91359  -3.87688
H    -5.90088  -0.06424  -3.97542
H    -8.08140  -1.00060  -4.99086
H    -8.68514  -1.21813  -3.35906
H    -6.36062  -2.59930  -4.77716
H    -7.79820  -3.35185  -4.09767
H    -5.67923  -3.80114  -2.86479
H    -5.44552  -2.10106  -2.56245
H    -8.64892  -4.15886  -2.18868
H    -7.23453  -5.16371  -1.81116
H    -8.29945  -4.62753  -0.50802
H    -5.20484  -4.21649  -0.65927
H    -6.22453  -3.68452   0.69132
H    -5.17432  -2.51107  -0.13935
