55
Generated by autodE on: 2022-06-04. E = -1806.978790 Ha. Imaginary frequency = -256.8 cm-1
C   -11.44233   0.80200  -2.76225
N   -10.71972   0.91579  -1.51309
C   -10.18071  -0.17460  -0.93253
O   -10.46041  -1.32619  -1.30746
C    -9.18299   0.07237   0.13790
C    -8.78914   1.40681   0.60610
O    -9.13648   2.45664   0.07497
O    -8.00617   1.37468   1.69000
C    -7.52724   2.63778   2.16582
O    -8.74925  -0.89231   0.94946
C    -8.73664  -2.19094   0.86149
C    -7.76862  -2.84485   1.79146
C    -9.99659  -2.94285   0.54363
O   -10.03596  -4.04876   0.04532
O   -11.04623  -2.33023   1.09496
C   -12.32977  -2.93067   0.86864
C    -7.46147  -1.95327  -1.38529
C    -7.39512  -0.71915  -1.42007
C    -6.89264   0.49093  -2.06126
F    -7.93400   1.31478  -2.43363
Cl   -5.86871   1.46636  -0.88154
C    -6.05123   0.17708  -3.29628
C    -6.76535  -0.79026  -4.26013
C    -6.19470  -2.21739  -4.30515
C    -5.96515  -2.99502  -3.00096
C    -7.17775  -3.25797  -2.05298
C    -8.41740  -3.69622  -2.85737
C    -6.78483  -4.36539  -1.06485
H   -11.91700   1.76497  -2.98950
H   -10.77205   0.53277  -3.59783
H   -12.22206   0.03071  -2.69092
H   -10.31413   1.81292  -1.24595
H    -8.36583   3.28190   2.46800
H    -6.89359   2.41127   3.03114
H    -6.93959   3.14521   1.38734
H    -7.72286  -3.92373   1.61090
H    -6.76892  -2.40257   1.68232
H    -8.10677  -2.68954   2.83282
H   -13.05654  -2.28930   1.37997
H   -12.54225  -2.96322  -0.20947
H   -12.35955  -3.94807   1.28373
H    -5.83831   1.14412  -3.77567
H    -5.09086  -0.23676  -2.95885
H    -6.69840  -0.37959  -5.27939
H    -7.84096  -0.81475  -4.02577
H    -5.21219  -2.17072  -4.80654
H    -6.83742  -2.81386  -4.97278
H    -5.57049  -3.98404  -3.28779
H    -5.17138  -2.51415  -2.40647
H    -8.77245  -2.89893  -3.52453
H    -8.15869  -4.57409  -3.47069
H    -9.23995  -3.97203  -2.18658
H    -6.49991  -5.26874  -1.62551
H    -7.62561  -4.62342  -0.41082
H    -5.92828  -4.06308  -0.44357
