67
Generated by autodE on: 2022-07-03. E = -2002.726505 Ha
C   -21.74535   4.72781 -16.43235
O   -22.52135   5.30097 -17.49891
C   -22.37980   4.77423 -18.70595
O   -21.65857   3.83714 -18.96694
C   -23.25115   5.49737 -19.71610
C   -24.75801   5.62561 -19.25910
O   -25.25402   5.55418 -18.16718
O   -25.45116   5.78317 -20.39238
C   -24.40682   5.79553 -21.49240
C   -25.03665   5.40305 -22.80059
C   -26.41677   5.20726 -22.93353
C   -26.94993   4.77158 -24.14849
C   -26.11086   4.51582 -25.23606
C   -24.72967   4.68143 -25.09753
C   -24.19425   5.11474 -23.88400
C   -23.67549   7.16131 -21.25675
C   -22.87535   6.94638 -20.18512
C   -21.81633   7.69371 -19.38347
C   -20.56125   6.78512 -19.18377
C   -20.00906   6.09002 -20.40136
O   -19.98244   6.72364 -18.11763
C   -22.47392   8.17303 -18.06533
C   -21.63047   8.71336 -16.94657
O   -23.68910   8.16666 -17.98144
C   -21.14433   8.97264 -20.01082
C   -20.98217   8.99072 -21.53638
C   -21.98228   9.94707 -22.17183
C   -23.41239   9.76197 -21.68162
C   -24.15280   8.42093 -21.98610
C   -24.12583   8.25263 -23.51322
O   -25.01232   8.59922 -24.26126
O   -22.95553   7.77212 -23.91427
C   -22.71940   7.72431 -25.33116
C   -25.62463   8.70447 -21.53213
F   -26.50011   7.77840 -21.94030
F   -26.08854   9.87876 -21.98639
F   -25.69000   8.75382 -20.19070
N   -23.43318   4.83509 -21.01222
C   -23.89147   3.44061 -20.98659
H   -22.00906   5.29723 -15.53485
H   -22.00555   3.66769 -16.30834
H   -20.67491   4.82942 -16.65449
H   -27.07574   5.39448 -22.08829
H   -28.02870   4.62834 -24.24182
H   -26.53056   4.17741 -26.18614
H   -24.06260   4.46685 -25.93511
H   -23.11638   5.22778 -23.77836
H   -19.40786   5.23091 -20.07881
H   -19.34443   6.79941 -20.92087
H   -20.78352   5.77667 -21.11021
H   -21.34754   7.86892 -16.29906
H   -20.70275   9.18606 -17.28955
H   -22.23730   9.41754 -16.36084
H   -21.70716   9.85913 -19.68576
H   -20.16462   9.07161 -19.52472
H   -21.10122   7.98860 -21.96657
H   -19.96060   9.31213 -21.78840
H   -21.70488  10.98036 -21.90369
H   -21.93075   9.88995 -23.26831
H   -24.01910  10.55277 -22.13724
H   -23.47152   9.91649 -20.59555
H   -21.74493   7.23991 -25.45550
H   -23.50489   7.14320 -25.83104
H   -22.69594   8.74523 -25.73790
H   -24.04258   3.10327 -22.01867
H   -23.10898   2.82332 -20.53501
H   -24.83311   3.29130 -20.42896
