39
Generated by autodE on: 2022-07-03. E = -1182.757402 Ha
C     0.33937  -3.06249   2.89024
O     0.10250  -2.13826   1.81233
C    -1.16154  -1.90723   1.49115
O    -2.11358  -2.42436   2.03164
C    -1.30681  -0.85438   0.37449
C    -2.24984  -1.42028  -0.70411
F    -3.50530  -1.56698  -0.26646
F    -2.29431  -0.60771  -1.77396
F    -1.82487  -2.62206  -1.13251
C    -0.03629  -0.45922  -0.22323
C     0.90671   0.25764  -0.46748
C     1.74612   1.44844  -0.45514
C     3.25445   1.08723  -0.50501
C     4.23420   2.15503  -0.12374
O     3.59338  -0.02736  -0.85313
C     1.47950   2.33598  -1.71549
C     1.05525   1.63217  -2.96768
O     1.64708   3.53627  -1.65005
C     1.37117   2.22648   0.84292
C    -0.13932   2.42387   1.08766
C    -0.93891   1.30798   1.81909
C    -1.91851   0.45062   0.99223
H     1.42717  -3.10620   3.01184
H    -0.13711  -2.69820   3.81103
H    -0.05952  -4.05352   2.63255
H     3.97080   3.11763  -0.58493
H     4.19892   2.30148   0.96829
H     5.24725   1.84804  -0.41333
H     0.02940   1.25117  -2.83757
H     1.09100   2.32266  -3.81976
H     1.69865   0.75597  -3.14489
H     1.85045   3.21204   0.77507
H     1.82086   1.70175   1.70000
H    -0.64014   2.68144   0.13915
H    -0.21661   3.32849   1.71003
H    -1.55848   1.80527   2.58027
H    -0.25036   0.65771   2.38376
H    -2.76952   0.14080   1.61506
H    -2.32179   1.04959   0.16180
