67
Generated by autodE on: 2022-07-03. E = -2002.682722 Ha. Imaginary frequency = -373.4 cm-1
C   -21.52254   4.49850 -16.65015
O   -22.35752   5.09526 -17.65373
C   -22.63133   4.36561 -18.73402
O   -22.17447   3.25878 -18.93909
C   -23.58059   5.08637 -19.61010
C   -24.78179   5.71563 -19.05025
O   -25.08721   6.07901 -17.93745
O   -25.63236   5.86558 -20.11982
C   -24.97675   5.43471 -21.26216
C   -25.84251   5.15603 -22.42605
C   -27.23799   5.13015 -22.24703
C   -28.08075   4.86793 -23.32545
C   -27.54784   4.63058 -24.59699
C   -26.16317   4.65143 -24.77978
C   -25.31388   4.90875 -23.70290
C   -23.69383   7.22913 -21.34152
C   -22.87963   7.03307 -20.39193
C   -21.65932   7.47598 -19.65189
C   -20.57041   6.37880 -19.69245
C   -19.33896   6.48286 -18.83668
O   -20.68121   5.46574 -20.49316
C   -21.99180   8.03247 -18.24343
C   -23.27490   8.80359 -18.10622
O   -21.22171   7.91480 -17.31050
C   -20.98295   8.70079 -20.39024
C   -20.84006   8.52202 -21.90959
C   -21.74344   9.46019 -22.71552
C   -23.19944   9.57758 -22.26582
C   -24.10882   8.30105 -22.30770
C   -24.11298   7.82978 -23.76663
O   -24.91500   8.18728 -24.60053
O   -23.05799   7.06544 -24.02653
C   -22.81865   6.72981 -25.40449
C   -25.52865   8.79048 -21.91212
F   -26.48317   7.88030 -22.14354
F   -25.89451   9.90345 -22.56568
F   -25.56964   9.07992 -20.59737
N   -23.96908   4.60481 -20.85164
C   -23.06777   3.92829 -21.77509
H   -22.04469   3.65081 -16.18392
H   -21.33657   5.28676 -15.91281
H   -20.57855   4.15224 -17.09121
H   -27.65917   5.32331 -21.26090
H   -29.16194   4.85041 -23.17136
H   -28.21084   4.43149 -25.44190
H   -25.73478   4.47123 -25.76805
H   -24.24165   4.93946 -23.86799
H   -18.54510   5.88368 -19.30291
H   -19.00651   7.51463 -18.67721
H   -19.56374   6.06517 -17.84536
H   -24.08098   8.08599 -17.88877
H   -23.18589   9.49819 -17.26033
H   -23.55133   9.33591 -19.02437
H   -21.57403   9.59730 -20.16054
H   -20.00645   8.86232 -19.91665
H   -21.03576   7.47827 -22.19082
H   -19.79650   8.71875 -22.19864
H   -21.33616  10.48281 -22.64345
H   -21.69216   9.19094 -23.78152
H   -23.68288  10.32717 -22.90630
H   -23.24981   9.96440 -21.23871
H   -21.93856   6.07796 -25.40342
H   -23.68522   6.20651 -25.83031
H   -22.62000   7.64425 -25.98111
H   -22.37794   3.31272 -21.19542
H   -22.50132   4.66359 -22.36363
H   -23.65161   3.28350 -22.44162
