50
Generated by autodE on: 2022-10-22. E = -1617.580951 Ha
C    -4.45279   2.48404   0.76760
O    -3.35014   1.58756   1.00037
C    -2.17977   1.92222   0.49396
O    -1.93752   2.94087  -0.10119
C    -1.11625   0.83197   0.80707
C    -1.14658   0.60794   2.26541
N    -1.20909   0.48456   3.41564
O     0.15566   1.28005   0.39887
C     0.77771   0.42378  -0.57430
C     0.53316   1.00314  -2.01087
C     0.41246   2.49683  -2.09043
O     0.56651   0.30956  -3.00594
C     2.29288   0.50161  -0.40940
C     2.86774   1.28226   0.60031
C     4.25820   1.35454   0.72275
C     5.08207   0.65141  -0.15969
C     4.50839  -0.12509  -1.17183
C     3.12131  -0.19588  -1.30189
C     0.11926  -0.97615  -0.29631
O     0.23354  -1.80433  -1.40166
C    -0.17893  -3.17545  -1.33619
C     0.82615  -1.67029   0.92461
F     1.99160  -2.20194   0.52559
F     0.11012  -2.67433   1.44380
F     1.09772  -0.82259   1.92913
C    -1.36845  -0.50593  -0.00875
O    -1.96532  -0.02685  -1.17688
C    -2.39955  -0.92910  -2.20283
O    -2.06123  -1.50961   0.61780
C    -3.46320  -1.36788   0.88813
H    -5.32056   2.01773   1.24604
H    -4.62059   2.59629  -0.31237
H    -4.24190   3.46337   1.21868
H     1.06731   2.99591  -1.36269
H     0.65510   2.81236  -3.11331
H    -0.61793   2.78899  -1.84594
H     2.22883   1.82661   1.29401
H     4.69731   1.96529   1.51496
H     6.16853   0.70951  -0.06141
H     5.14370  -0.67853  -1.86699
H     2.67884  -0.80078  -2.09327
H    -0.34054  -3.48542  -2.37663
H    -1.10930  -3.30141  -0.76939
H     0.61164  -3.80177  -0.89563
H    -1.62008  -1.04169  -2.96709
H    -2.66615  -1.91065  -1.79143
H    -3.29412  -0.47390  -2.64898
H    -3.98656  -0.85818   0.06904
H    -3.62249  -0.81640   1.82478
H    -3.84987  -2.38953   0.99232
