29
Generated by autodE on: 2022-10-26. E = -857.972506 Ha
C    -4.26227   1.64899   0.95204
O    -3.29571   0.70289   1.42647
C    -2.14907   0.61353   0.73124
O    -1.91494   1.28687  -0.27502
C    -1.22234  -0.31367   1.30130
C    -1.36987  -0.90195   2.56502
N    -1.51134  -1.40857   3.61044
O     0.05028  -0.40407   0.78770
C     0.44568  -0.21079  -0.42445
C    -0.55420  -0.28014  -1.57716
C    -0.51305   0.73454  -2.67801
O    -1.27445  -1.26082  -1.58470
C     1.87489  -0.16032  -0.61560
C     2.72336   0.03056   0.50312
C     4.10144   0.06543   0.33656
C     4.66020  -0.08988  -0.93966
C     3.83267  -0.28205  -2.05160
C     2.45016  -0.31448  -1.89902
H    -5.12881   1.55069   1.61624
H    -4.55168   1.42141  -0.08431
H    -3.86284   2.67252   1.00366
H     0.06748   1.62449  -2.40662
H    -0.07494   0.26994  -3.57628
H    -1.54647   1.01455  -2.92349
H     2.28430   0.16668   1.49172
H     4.74847   0.22156   1.20196
H     5.74448  -0.05822  -1.06715
H     4.26850  -0.41118  -3.04403
H     1.82526  -0.48733  -2.77384
