21
Generated by autodE on: 2022-10-22. E = -759.549188 Ha
C     2.10565  -1.36074   1.72619
O     1.82033   0.00947   1.41622
C     0.89757   0.33113   0.50429
O     1.09938   1.53583  -0.05686
C     2.40130   1.77927  -0.61413
C    -0.19312  -0.39071   0.14622
O    -0.59450  -1.51975   0.81911
C    -1.44944  -1.26151   1.93620
C    -1.07926   0.07243  -0.97644
F    -1.81279   1.17364  -0.67245
F    -1.96061  -0.88852  -1.30451
F    -0.39756   0.38570  -2.09984
H     3.09238  -1.35669   2.20680
H     1.35957  -1.77788   2.41563
H     2.14220  -1.96336   0.80710
H     2.35317   2.77293  -1.07584
H     3.17598   1.76937   0.16533
H     2.63064   1.02336  -1.38187
H    -1.69214  -2.23370   2.38707
H    -0.93961  -0.62787   2.68126
H    -2.38112  -0.76417   1.61795
