50
Generated by autodE on: 2022-10-22. E = -1617.518824 Ha. Imaginary frequency = -217.9 cm-1
C    -4.58497   1.77284   0.35555
O    -3.36300   1.78380   1.09896
C    -2.21776   1.67739   0.37804
O    -2.22945   1.66570  -0.85790
C    -1.06731   1.54948   1.19853
C    -1.12826   1.44785   2.59600
N    -1.18047   1.34454   3.76140
O     0.21909   1.42134   0.70834
C     0.62164   0.96893  -0.46065
C    -0.00095   1.55057  -1.74915
C     0.01298   3.06125  -1.75221
O    -0.19582   0.90599  -2.75852
C     2.09260   0.86294  -0.56252
C     2.90523   1.16542   0.54826
C     4.28746   1.03206   0.46010
C     4.87991   0.59385  -0.73071
C     4.08035   0.30250  -1.83979
C     2.69581   0.44190  -1.76421
C     0.06961  -1.28513  -0.31861
O     0.34228  -1.68468  -1.60762
C     0.35073  -3.09620  -1.86358
C     1.08696  -1.78284   0.70732
F     2.30940  -1.86598   0.16132
F     1.17526  -1.00322   1.79658
F     0.80182  -3.03317   1.15575
C    -1.28660  -1.36832   0.14210
O    -2.36912  -1.33378  -0.56781
C    -2.45549  -1.25802  -2.01246
O    -1.46847  -1.53435   1.42816
C    -2.79644  -1.52805   1.99083
H    -5.38711   1.88661   1.09463
H    -4.70586   0.82070  -0.18287
H    -4.61667   2.60460  -0.36326
H    -0.73748   3.41895  -2.46922
H    -0.15848   3.50182  -0.76290
H     1.01266   3.37299  -2.10024
H     2.44551   1.50251   1.47641
H     4.90947   1.27172   1.32532
H     5.96513   0.48668  -0.79455
H     4.53772  -0.03433  -2.77245
H     2.08014   0.20661  -2.63026
H     0.32921  -3.21070  -2.95532
H    -0.53339  -3.58794  -1.42582
H     1.26402  -3.56833  -1.46940
H    -1.71822  -0.55973  -2.41227
H    -2.31344  -2.26608  -2.42235
H    -3.47555  -0.91125  -2.20867
H    -3.29392  -0.57548   1.77147
H    -2.64675  -1.64146   3.06927
H    -3.37664  -2.36765   1.58591
