65
Generated by autodE on: 2022-06-12. E = -1797.629181 Ha
C    -2.82131   0.13062  -3.16626
N    -3.45159   1.43210  -3.26519
C    -4.73355   1.55402  -3.62017
O    -5.46971   0.57531  -3.78815
C    -5.37023   2.98536  -3.70795
C    -4.39515   4.19465  -3.52005
C    -5.01597   5.50786  -3.15057
O    -3.18242   4.08513  -3.61428
C    -6.20511   3.09947  -5.00537
C    -7.52129   3.08943  -4.67929
C    -7.72675   2.98697  -3.16231
C    -8.47824   4.24892  -2.60590
O    -8.16063   5.35639  -3.04480
N    -9.39759   4.09655  -1.64725
C   -10.11375   5.23903  -1.11192
C    -8.32559   1.60197  -2.79976
O    -8.47769   0.69276  -3.58244
O    -8.58224   1.48025  -1.49592
C    -9.01662   0.18924  -1.03205
N    -6.36425   3.08882  -2.66359
C    -6.01049   2.77503  -1.29766
C    -8.67577   3.06551  -5.67731
F    -8.49540   4.13446  -6.57896
C   -10.09191   3.42219  -5.13788
F   -10.47430   2.64272  -4.11186
F   -10.18623   4.69496  -4.73962
F   -11.00040   3.26116  -6.11258
C    -8.82363   1.72274  -6.44111
C    -7.59067   0.84966  -6.66814
C    -6.63265   1.33683  -7.75091
C    -6.21670   2.80050  -7.63741
C    -5.47108   3.26076  -6.35552
C    -5.19771   4.77473  -6.54181
C    -4.12256   2.50867  -6.35002
H    -3.38976  -0.52700  -2.49228
H    -2.76065  -0.36407  -4.15049
H    -1.80594   0.25572  -2.77023
H    -2.88789   2.28081  -3.27076
H    -5.17326   5.51681  -2.05891
H    -4.31883   6.31630  -3.40755
H    -6.00015   5.65039  -3.60837
H    -9.58000   3.16795  -1.28123
H   -10.81596   4.88933  -0.34549
H   -10.67680   5.75293  -1.90707
H    -9.42248   5.96731  -0.65947
H    -9.16549   0.29494   0.04808
H    -8.24390  -0.56254  -1.24346
H    -9.95632  -0.09399  -1.52581
H    -5.95582   1.68991  -1.08787
H    -6.73978   3.22051  -0.60759
H    -5.02824   3.21403  -1.06625
H    -9.31048   1.96913  -7.39729
H    -9.54317   1.12546  -5.86625
H    -7.96113  -0.14891  -6.95248
H    -7.05857   0.70977  -5.71939
H    -5.74534   0.68281  -7.76024
H    -7.11237   1.21114  -8.73727
H    -7.08420   3.43940  -7.81764
H    -5.52093   3.01933  -8.46290
H    -4.71161   4.93799  -7.51614
H    -6.13844   5.34281  -6.52148
H    -4.52708   5.18424  -5.77588
H    -3.42661   2.88281  -5.59348
H    -4.25754   1.42911  -6.19881
H    -3.64190   2.64959  -7.32944
