29
Generated by autodE on: 2022-06-12. E = -827.295576 Ha
C    -2.98691  -2.27411  -0.68813
C    -1.46486  -2.15786  -0.89550
C    -0.82922  -3.55613  -0.92175
C    -0.88676  -1.30462   0.14302
C    -0.43546  -0.34738   0.73666
C     0.10802   1.00163   0.81338
F    -0.36133   1.69493   1.93519
C     1.63707   0.97735   1.01783
F     2.13017   2.21951   1.11144
F     2.26210   0.36345   0.00281
F     1.95836   0.32860   2.14640
C    -0.32573   1.77914  -0.44452
C    -0.21977   1.05841  -1.80397
C    -1.38447   0.12709  -2.24619
C    -1.14119  -1.39709  -2.22420
H    -3.21503  -2.75115   0.27701
H    -3.41933  -2.89121  -1.49088
H    -3.47247  -1.28740  -0.70705
H    -1.22070  -4.12564  -1.77896
H     0.26503  -3.49201  -1.01938
H    -1.06506  -4.11250  -0.00170
H    -1.37281   2.06103  -0.25359
H     0.25663   2.71297  -0.46730
H     0.73639   0.51679  -1.86818
H    -0.14653   1.86468  -2.54952
H    -2.29762   0.37427  -1.67927
H    -1.61615   0.38399  -3.29141
H    -0.08741  -1.59288  -2.48233
H    -1.74999  -1.87617  -3.00872
