11
Generated by autodE on: 2022-06-16. E = -393.699514 Ha
C    -2.41402   0.18208  -0.28387
N    -1.74030  -1.06527  -0.48306
O    -0.46616  -1.04586  -0.30836
C     0.40549  -0.08990   0.03088
C     0.15683   1.27223   0.32031
N     0.09346   2.40773   0.57934
C     1.73636  -0.56960   0.09976
N     2.84012  -0.93799   0.16342
H    -3.47908   0.00218  -0.46756
H    -2.04861   0.95374  -0.98565
H    -2.28050   0.55386   0.74819
