33
Generated by autodE on: 2022-05-29. E = -1411.371604 Ha
C     1.58198   4.00223  -1.10080
O     1.14495   2.63783  -1.01377
C     0.13628   2.37504  -0.17493
O    -0.42487   3.21167   0.50121
C    -0.17220   0.93036  -0.18785
C    -0.96124   0.25851   0.66581
Cl   -1.86010   0.83714   2.00075
C    -0.95891  -1.23746   0.35382
C    -0.23076  -1.96165   1.43029
N     0.38547  -2.55576   2.21234
C    -2.42419  -1.79656   0.30517
C    -3.21776  -1.46342  -0.91481
O    -2.83940  -2.44065   1.24244
N    -0.29627  -1.26717  -0.93372
C     0.26567  -2.52467  -1.39074
C     0.46532  -0.03829  -1.15191
C     1.95652  -0.20154  -0.81629
O     2.36443  -0.48894   0.28950
O     2.72976  -0.03473  -1.88306
C     4.14600  -0.18835  -1.68565
H     1.93038   4.35423  -0.11933
H     2.40607   4.00726  -1.82291
H     0.76046   4.64322  -1.45133
H    -2.84831  -2.07276  -1.75570
H    -4.27652  -1.68951  -0.73611
H    -3.08457  -0.40893  -1.19889
H     1.13374  -2.86015  -0.79171
H     0.58772  -2.41137  -2.43565
H    -0.50429  -3.30956  -1.35243
H     0.38183   0.29343  -2.19717
H     4.51010   0.55464  -0.96189
H     4.37143  -1.20026  -1.32042
H     4.60678  -0.02405  -2.66606
