10
Generated by autodE on: 2022-05-29. E = -764.965933 Ha
C    -3.41729  -0.00548  -0.33299
O    -2.00673   0.19287  -0.53438
C    -1.19754  -0.31108   0.39891
O    -1.57211  -0.91481   1.38422
C     0.19478  -0.04941   0.09646
C     1.37572   0.14341  -0.10371
Cl    2.96769   0.40524  -0.37822
H    -3.91010   0.46398  -1.19163
H    -3.65052  -1.07920  -0.29682
H    -3.73960   0.47311   0.60287
