23
Generated by autodE on: 2022-05-29. E = -646.307752 Ha
C    -4.28982   1.02488   0.64181
O    -2.88888   1.09672   0.34803
C    -2.19139  -0.04539   0.45801
O    -2.70260  -1.10116   0.79186
C    -0.79234   0.25055   0.11304
N     0.21660  -0.59711   0.07813
C     0.03126  -2.03330   0.40089
C     1.51182  -0.22397  -0.26046
C     2.49501  -1.24060  -0.26438
N     3.34010  -2.04678  -0.28115
C     1.91760   1.12947  -0.60798
C     3.37903   1.33094  -0.94035
O     1.13496   2.08887  -0.63919
H    -4.44923   0.70207   1.68112
H    -4.68053   2.03818   0.49471
H    -4.79028   0.32065  -0.03888
H    -0.55635   1.27926  -0.14343
H    -1.01178  -2.21508   0.65601
H     0.32081  -2.62508  -0.47599
H     0.68242  -2.28476   1.24674
H     3.67553   0.71425  -1.80339
H     3.54317   2.39015  -1.17517
H     4.02004   1.03915  -0.09368
