23
Generated by autodE on: 2022-07-26. E = -646.300268 Ha
C     3.61299   2.03362  -0.21946
O     2.67525   1.27294  -0.99344
C     1.51477   0.96838  -0.39508
O     1.23541   1.29163   0.74587
C     0.63484   0.28566  -1.34964
N    -0.53172  -0.26143  -1.05202
C    -1.43995  -0.50661  -2.19864
C    -0.90004  -0.68955   0.21263
C     0.11942  -1.15426   1.07675
N     0.95015  -1.58371   1.77499
C    -2.25909  -0.76261   0.74499
C    -3.44146  -0.16867   0.01836
O    -2.42159  -1.28248   1.85573
H     3.19027   3.01549   0.03969
H     3.87576   1.49489   0.70257
H     4.49798   2.15715  -0.85389
H     0.90624   0.33542  -2.40278
H    -0.82330  -0.62657  -3.09551
H    -2.10017   0.35790  -2.33378
H    -2.01810  -1.41727  -2.02221
H    -3.82085  -0.87297  -0.73793
H    -4.23534  -0.00351   0.75860
H    -3.20258   0.77787  -0.48444
