33
Generated by autodE on: 2022-05-29. E = -1411.252953 Ha. Imaginary frequency = -303.9 cm-1
C     1.85925   3.76842  -1.36112
O     1.22645   2.81994  -0.48959
C     0.07112   2.28827  -0.91910
O    -0.50356   2.64663  -1.93369
C    -0.38512   1.24407  -0.04589
C    -0.90806   0.53440   0.83297
Cl   -1.70613   0.48904   2.31860
C    -0.76591  -1.61440   0.22660
C     0.10165  -2.18800   1.21181
N     0.69393  -2.74559   2.04345
C    -2.20847  -1.97747   0.48204
C    -3.32557  -1.31645  -0.28595
O    -2.45909  -2.71155   1.42610
N    -0.28017  -1.37197  -1.05259
C    -1.11838  -1.70375  -2.23134
C     0.76210  -0.59405  -1.32515
C     1.92160  -0.22938  -0.47912
O     2.10382  -0.46580   0.69612
O     2.78628   0.44685  -1.24687
C     3.93899   0.98817  -0.58618
H     2.78719   4.06421  -0.85905
H     2.08409   3.30274  -2.33154
H     1.21347   4.64461  -1.51430
H    -3.71794  -2.01245  -1.04318
H    -4.13401  -1.11858   0.43151
H    -3.03137  -0.38348  -0.77932
H    -0.44742  -1.92633  -3.06722
H    -1.75518  -0.85022  -2.49323
H    -1.71686  -2.59245  -2.01854
H     0.91339  -0.38643  -2.38441
H     3.63053   1.62356   0.25525
H     4.58225   0.17590  -0.21802
H     4.46717   1.58077  -1.34110
