34
Generated by autodE on: 2022-05-31. E = -691.266003 Ha
C    -1.54044  -3.57208  -0.12956
N    -1.14885  -2.22176   0.21106
C    -0.06196  -1.62607  -0.38707
O     0.75133  -2.35943  -1.01042
C     0.11195  -0.20450  -0.23552
C    -0.85858   0.77261   0.23538
C    -2.26383   0.62972   0.08445
C    -3.15156   1.59902   0.55017
C    -2.68544   2.76789   1.16418
C    -1.30392   2.94503   1.30148
C    -0.41207   1.97055   0.85545
N     1.38919   0.30672  -0.60433
C     1.42813   1.34016  -1.65464
C     2.51853  -0.19099  -0.14853
C     3.81635   0.17977  -0.78922
C     2.53117  -1.12863   0.99991
H    -0.72743  -4.28635   0.07157
H    -1.82027  -3.68212  -1.19355
H    -2.40672  -3.85555   0.48311
H    -1.84008  -1.63433   0.65754
H    -2.66879  -0.23834  -0.43719
H    -4.22533   1.44642   0.41064
H    -3.38436   3.52728   1.52179
H    -0.91328   3.84999   1.77511
H     0.65930   2.12694   0.99935
H     1.72575   0.87614  -2.60679
H     2.13820   2.13763  -1.40244
H     0.42680   1.76435  -1.76715
H     3.76313   0.11388  -1.88654
H     4.61874  -0.47631  -0.43002
H     4.08820   1.22012  -0.53891
H     1.64353  -0.99030   1.63431
H     2.50388  -2.16916   0.62980
H     3.45550  -0.99562   1.58042
