48
Generated by autodE on: 2022-05-31. E = -999.785635 Ha. Imaginary frequency = -271.7 cm-1
C    -3.38243   2.82917  -1.39879
N    -2.47085   1.73862  -1.12199
C    -1.76513   1.67704   0.03577
O    -1.69255   2.65413   0.79940
C    -1.14177   0.35273   0.34280
C    -2.13614  -0.75012   0.51613
C    -3.47683  -0.46834   0.85097
C    -4.41915  -1.48899   0.99144
C    -4.04472  -2.82442   0.81308
C    -2.71742  -3.12471   0.49020
C    -1.77963  -2.10284   0.33569
C    -0.04708  -0.34480  -1.40998
C     1.19199  -0.35724  -1.25892
C     2.60321  -0.46708  -1.19727
C     3.21752  -1.53029  -0.48542
C     4.60476  -1.62261  -0.39626
C     5.42744  -0.66439  -1.00304
C     4.83580   0.38729  -1.71359
C     3.44906   0.48744  -1.81903
C     1.07705   1.09159   0.89659
C     2.30726   0.92574   1.73496
C     1.06190   2.28582  -0.00265
N    -0.02602   0.38965   1.20164
C     0.08602  -0.61808   2.26841
H    -4.26788   2.80875  -0.73785
H    -2.87899   3.79627  -1.25943
H    -3.72305   2.75804  -2.43985
H    -2.57303   0.88426  -1.65836
H    -3.78657   0.56468   1.02288
H    -5.44991  -1.23828   1.25390
H    -4.78058  -3.62410   0.92574
H    -2.40998  -4.16370   0.34755
H    -0.75236  -2.35313   0.07100
H    -0.88838  -0.63108  -2.03123
H     2.58520  -2.27479   0.00320
H     5.05112  -2.45166   0.15931
H     6.51441  -0.73833  -0.92547
H     5.46406   1.13899  -2.19891
H     3.00058   1.30612  -2.38479
H     3.15106   1.42891   1.24663
H     2.18008   1.38053   2.73449
H     2.58044  -0.12874   1.88114
H     0.36404   2.20218  -0.83931
H     2.07104   2.44918  -0.40302
H     0.77805   3.18111   0.58042
H     0.58191  -0.17433   3.13853
H    -0.91313  -0.93803   2.57197
H     0.66091  -1.49382   1.93410
