40
Generated by autodE on: 2022-06-05. E = -3687.247484 Ha
C     0.51859  -5.33280  -0.50508
N     0.74873  -3.90211  -0.44915
C     0.03327  -3.01529  -1.14969
O    -0.89873  -3.27452  -1.91276
C     0.42571  -1.56895  -0.94247
O     1.61834  -1.35610  -0.16443
C     1.59938   0.04417  -0.26776
C     2.81015   0.68446   0.41830
C     3.56480   1.72441  -0.33726
O     3.07894   0.28589   1.53128
O     1.61462   0.23892  -1.72824
C     0.84699  -0.77484  -2.21017
O     0.58859  -0.94606  -3.36622
C     0.16968   0.38194   0.20669
C    -0.58636  -0.63261  -0.24500
C    -2.04320  -0.88815  -0.11096
C    -2.35943  -1.65500   1.19144
C    -1.68092  -1.09179   2.44546
C    -1.86603   0.42241   2.69296
C    -0.63995   1.30947   2.44672
C    -0.19228   1.57989   1.01717
F     0.91134   2.40620   1.08256
Br   -1.58372   2.68690   0.05385
H     0.45731  -5.74620   0.51181
H    -0.42663  -5.52181  -1.02726
H     1.33082  -5.84527  -1.04435
H     1.50939  -3.55078   0.12552
H     4.30735   2.19764   0.31711
H     2.87164   2.47185  -0.75170
H     4.06772   1.24397  -1.19341
H    -2.57262   0.07458  -0.11039
H    -2.39817  -1.46524  -0.97505
H    -3.45441  -1.64401   1.31796
H    -2.06566  -2.71076   1.07361
H    -0.60409  -1.32631   2.41338
H    -2.07916  -1.64584   3.30971
H    -2.12385   0.57593   3.75121
H    -2.72801   0.81099   2.12607
H     0.24395   0.85742   2.92952
H    -0.79217   2.29528   2.91150
