40
Generated by autodE on: 2022-06-05. E = -3687.167402 Ha. Imaginary frequency = -230.0 cm-1
C     0.44727  -5.47935  -0.53983
N     0.78688  -4.07479  -0.66241
C     0.08011  -3.25481  -1.46094
O    -0.88633  -3.62141  -2.14334
C     0.48561  -1.84557  -1.47848
O     1.55400  -1.39946  -0.76800
C     1.60035  -0.09090  -0.90943
C     2.73466   0.71070  -0.36152
C     3.61987   0.01164   0.62170
O     2.87509   1.85161  -0.75459
O     0.89097   0.29948  -1.95582
C     0.05013  -0.79749  -2.34888
O    -0.78350  -0.66966  -3.20976
C    -0.20705   0.13892   0.61937
C    -0.99911  -0.72104   0.21659
C    -2.21792  -1.51067   0.11636
C    -3.36171  -0.76692   0.83739
C    -3.07650  -0.33482   2.28832
C    -2.45211   1.06302   2.52660
C    -0.93837   1.18095   2.75781
C    -0.03054   1.25605   1.53645
F     1.27189   1.36295   1.97287
Br   -0.38246   2.95989   0.50982
H     1.15271  -5.95321   0.15266
H     0.50775  -5.98950  -1.51386
H    -0.57530  -5.60943  -0.15144
H     1.55818  -3.69963  -0.11973
H     3.02784  -0.53764   1.36682
H     4.26913   0.74830   1.11061
H     4.24046  -0.72286   0.08059
H    -2.48099  -1.70334  -0.93517
H    -2.04345  -2.49492   0.58391
H    -4.23100  -1.44328   0.82571
H    -3.64311   0.11662   0.24079
H    -2.47447  -1.10770   2.79805
H    -4.04777  -0.33047   2.80670
H    -2.91125   1.46521   3.44223
H    -2.75657   1.75248   1.72150
H    -0.57442   0.31295   3.33408
H    -0.72202   2.07734   3.35845
