20
Generated by autodE on: 2022-05-30. E = -2885.785262 Ha
C    -2.21101  -1.21625  -0.26616
C    -0.90211  -0.94992   0.38675
C    -0.05461   0.08764   0.26726
Br   -0.25997   1.60708  -0.85245
C     1.25177  -0.23266   0.97116
C     1.93853  -1.34032   0.11005
C     0.97384  -2.55076   0.27694
C    -0.13929  -1.98351   1.21722
C     0.70036  -1.07652   2.13948
H    -2.13590  -2.09221  -0.93483
H    -2.98607  -1.45753   0.48112
H    -2.55199  -0.35735  -0.86207
H     1.88752   0.62691   1.21556
H     2.93957  -1.56484   0.50828
H     2.05561  -1.02184  -0.93576
H     0.55647  -2.90330  -0.67749
H     1.47878  -3.40271   0.75695
H    -0.76886  -2.74818   1.69172
H     0.08916  -0.48995   2.84095
H     1.48542  -1.61940   2.68903
