17
Generated by autodE on: 2022-05-30. E = -472.480850 Ha
C    -3.65155   0.30509  -0.34513
N    -2.32152   0.88316  -0.35457
C    -1.24819   0.16777   0.02557
O    -1.31509  -1.00570   0.40516
C     0.06927   0.89506  -0.03412
C     0.20985   2.33068  -0.44633
N     1.08090   0.19670   0.30355
C     1.94834  -0.52625   0.78083
C     2.81102  -1.41378   0.12714
N     3.59554  -2.18820  -0.26363
H    -4.36411   1.05145  -0.71559
H    -3.69978  -0.58611  -0.99045
H    -3.94779   0.00302   0.67199
H    -2.20931   1.84525  -0.65398
H    -0.14481   2.47138  -1.48043
H    -0.39562   2.97671   0.21026
H     1.25819   2.64877  -0.38710
