37
Generated by autodE on: 2022-05-30. E = -3358.260119 Ha. Imaginary frequency = -312.5 cm-1
C     3.43499   2.73510  -0.78776
N     3.02791   1.50215  -0.14335
C     2.75547   0.38301  -0.84779
O     3.03467   0.25724  -2.04886
C     2.09823  -0.74055  -0.11885
C     2.37007  -2.14203  -0.56634
N     1.59071  -0.53638   1.07638
C     0.56750  -0.21733   1.67214
C     0.25377   0.03602   3.00832
N    -0.17368   0.28993   4.06661
C    -0.99771  -0.03372   0.02853
Br   -2.05124  -1.54568   0.59467
C    -1.51546   1.37533   0.28244
C    -2.56217   1.66194  -0.83675
C    -1.68607   1.73251  -2.12234
C    -0.24866   1.43245  -1.58250
C    -0.31173   2.18202  -0.23734
C    -0.28412  -0.03827  -1.15732
C    -0.19352  -1.13481  -2.16724
H     3.90089   3.39432  -0.04416
H     4.16437   2.52191  -1.58049
H     2.57742   3.26330  -1.23920
H     2.72628   1.55179   0.82409
H     1.59962  -2.83139  -0.19520
H     3.35215  -2.48138  -0.19246
H     2.40377  -2.17694  -1.66173
H    -1.85604   1.57442   1.30624
H    -3.32886   0.87508  -0.88120
H    -3.07223   2.61679  -0.64061
H    -1.71303   2.73721  -2.57081
H    -1.99593   1.01381  -2.89389
H     0.56386   1.69446  -2.27282
H    -0.54218   3.25104  -0.35812
H     0.58583   2.07650   0.38051
H    -1.05630  -1.08251  -2.85714
H    -0.21100  -2.12937  -1.70284
H     0.71565  -1.04187  -2.77932
