18
Generated by autodE on: 2022-10-22. E = -584.882709 Ha
C     4.57424   0.84848   0.09291
N     3.53739  -0.16226   0.09198
C     2.23402   0.16674   0.06349
O     1.80556   1.32135   0.04914
N     1.40589  -0.98628   0.05424
N     0.18459  -0.73012   0.02816
C    -0.96742  -0.52965   0.00836
C    -2.41071  -0.48303  -0.05818
O    -3.09186  -1.48601  -0.08817
O    -2.84879   0.76941  -0.07864
C    -4.27788   0.94617  -0.14413
H     4.45933   1.53664   0.94521
H     4.55644   1.44859  -0.83160
H     5.54977   0.35360   0.17059
H     3.78650  -1.14542   0.08731
H    -4.44133   2.02909  -0.15399
H    -4.75555   0.49189   0.73522
H    -4.67415   0.48785  -1.06104
