59
Generated by autodE on: 2022-06-05. E = -1458.672917 Ha
C    -2.40046   4.05932   0.71077
O    -1.56354   3.01451   0.18498
C    -2.17329   1.89947  -0.18128
O    -3.37525   1.73860  -0.17200
C    -1.19300   0.83855  -0.75649
C    -1.69080   0.79141  -2.23912
C    -0.91033   1.60790  -3.22763
O    -2.72029   0.21844  -2.52489
O     0.13383   1.29108  -0.76163
C     0.94600   0.72061   0.28009
C     0.81273   1.59485   1.53190
C     2.37830   0.71569  -0.25839
C     3.48791   0.83544   0.59237
C     4.79072   0.80631   0.08543
C     5.01240   0.66815  -1.28630
C     3.91558   0.56662  -2.14671
C     2.61588   0.59255  -1.63739
C     0.30490  -0.71099   0.49648
C     0.49575  -1.26319   1.91314
C     1.90243  -1.47103   2.41674
O    -0.45043  -1.62925   2.58922
C     0.82622  -1.84365  -0.47784
C     0.34700  -3.22160   0.02527
C    -1.19308  -3.11124  -0.13464
C    -1.38896  -1.77715  -0.90359
C    -0.08095  -1.70512  -1.70910
C    -1.21320  -0.55111   0.03601
C    -2.22776  -0.43033   1.17620
O    -2.19791   0.43821   2.02732
O    -3.22405  -1.30502   1.07997
C    -4.25677  -1.21247   2.07220
H    -2.93091   3.70022   1.60384
H    -1.72526   4.88210   0.97005
H    -3.12735   4.38207  -0.04761
H     0.08892   1.17939  -3.39073
H    -1.46027   1.64227  -4.17639
H    -0.75723   2.62367  -2.83146
H     1.46610   1.25909   2.34412
H    -0.21634   1.57639   1.90407
H     1.08670   2.62787   1.27770
H     3.35192   0.95360   1.66573
H     5.63541   0.89837   0.77226
H     6.03034   0.64729  -1.68256
H     4.06930   0.46834  -3.22401
H     1.77497   0.51946  -2.32291
H     2.63411  -1.59420   1.60978
H     2.20355  -0.59929   3.01728
H     1.90820  -2.34688   3.07946
H     1.90544  -1.78064  -0.64785
H     0.76386  -3.99357  -0.63745
H     0.66258  -3.47876   1.04409
H    -1.71489  -3.12303   0.82771
H    -1.59603  -3.93674  -0.73845
H    -2.32008  -1.73730  -1.47115
H     0.07364  -0.78478  -2.27895
H     0.03497  -2.55209  -2.40052
H    -4.97565  -2.00428   1.83339
H    -3.83508  -1.36762   3.07547
H    -4.74061  -0.22671   2.02390
