28
Generated by autodE on: 2022-06-05. E = -653.567797 Ha
C     3.17639  -0.50774  -1.61967
O     1.79763  -0.44281  -1.22120
C     1.53754  -0.64964   0.07218
O     2.37844  -0.95037   0.89588
C     0.08953  -0.53534   0.37941
C    -0.65156   0.59591   0.45821
C    -0.12886   1.95342   0.21906
C    -1.13097   3.05499   0.01721
O     1.08328   2.16207   0.19125
C    -2.10104   0.15985   0.62811
C    -2.52148  -0.45122  -0.74770
C    -1.65143  -1.73650  -0.83775
C    -0.85075  -1.71635   0.50974
C    -1.90727  -1.12160   1.46581
H     3.18519  -0.34428  -2.70332
H     3.60399  -1.49115  -1.37798
H     3.75234   0.27935  -1.11154
H    -1.73427   3.17801   0.93195
H    -0.61979   3.99690  -0.21977
H    -1.83216   2.78836  -0.79028
H    -2.78589   0.92024   1.02016
H    -3.59420  -0.69372  -0.73782
H    -2.34084   0.24958  -1.57481
H    -0.97721  -1.74456  -1.70524
H    -2.27143  -2.64381  -0.87930
H    -0.37913  -2.66897   0.77863
H    -1.51037  -0.92243   2.47193
H    -2.81620  -1.73785   1.53604
