31
Generated by autodE on: 2022-06-05. E = -805.056561 Ha
C    -3.21608  -2.62081  -0.03639
O    -2.19171  -1.62674   0.00883
C    -2.61039  -0.33140   0.00781
O    -3.80533  -0.04117  -0.00124
C    -1.51536   0.59773   0.04258
O    -0.25763  -0.01393  -0.08265
C     0.78531   0.31723   0.60042
C     0.67558   1.16318   1.80381
C     2.02702  -0.27495   0.13644
C     2.02144  -1.15475  -0.97138
C     3.20808  -1.72462  -1.41551
C     4.41711  -1.41781  -0.77620
C     4.43594  -0.54000   0.31309
C     3.25072   0.02783   0.77214
C    -1.56008   2.01262  -0.12960
C    -2.90556   2.70658  -0.13557
O    -0.51553   2.68055  -0.29155
H    -3.81973  -2.52738  -0.95202
H    -2.69993  -3.58882  -0.02874
H    -3.87996  -2.54507   0.83812
H    -0.34491   1.08186   2.20877
H     1.41728   0.87146   2.55628
H     0.83009   2.22021   1.53324
H     1.07933  -1.38454  -1.46898
H     3.19745  -2.40818  -2.26677
H     5.34874  -1.86346  -1.13212
H     5.37907  -0.29845   0.80689
H     3.27706   0.71261   1.61966
H    -3.46755   2.49767   0.78642
H    -3.52791   2.35851  -0.97348
H    -2.73154   3.78708  -0.22967
