59
Generated by autodE on: 2022-06-05. E = -1458.611333 Ha. Imaginary frequency = -276.2 cm-1
C    -2.22871   4.36868   1.07529
O    -1.51706   3.42205   0.26634
C    -2.16831   2.29891  -0.05566
O    -3.34829   2.12322   0.18810
C    -1.31842   1.35432  -0.82766
C    -1.82842   1.01572  -2.18394
C    -3.30810   0.80715  -2.37191
O    -1.05111   0.89547  -3.12728
O     0.03078   1.54387  -0.84943
C     0.89337   1.43067   0.15372
C     0.58546   2.02699   1.48418
C     2.27803   1.29916  -0.32340
C     3.36784   1.37433   0.56771
C     4.67436   1.21920   0.10525
C     4.92048   0.99427  -1.25217
C     3.84819   0.93903  -2.15047
C     2.54177   1.09278  -1.69525
C     0.21290  -0.81264   0.65822
C     0.69555  -0.82227   2.06546
C     2.11081  -1.30996   2.28973
O     0.02539  -0.47630   3.03322
C     0.92754  -1.75542  -0.32276
C     0.41750  -3.18927   0.02871
C    -1.07310  -3.13238  -0.40660
C    -1.21260  -1.69489  -1.00010
C     0.17552  -1.51441  -1.63281
C    -1.14182  -0.74419   0.19830
C    -2.35513  -0.52150   1.03253
O    -2.45105   0.16807   2.02839
O    -3.40968  -1.18347   0.52249
C    -4.66525  -0.99928   1.18737
H    -3.11431   4.74216   0.54170
H    -1.52728   5.18866   1.26672
H    -2.53982   3.90366   2.02191
H    -3.82388   1.78058  -2.36533
H    -3.74323   0.20243  -1.56683
H    -3.46476   0.32622  -3.34619
H     0.62266   3.12363   1.38504
H     1.32051   1.72507   2.23445
H    -0.40925   1.74591   1.84422
H     3.20242   1.54855   1.62968
H     5.50496   1.27574   0.81198
H     5.94471   0.87128  -1.61136
H     4.03266   0.78008  -3.21518
H     1.71360   1.07471  -2.40149
H     2.81789  -0.86598   1.57732
H     2.40893  -1.06922   3.31830
H     2.15966  -2.40155   2.15293
H     2.01706  -1.65092  -0.35528
H     0.98021  -3.93317  -0.55471
H     0.53903  -3.43911   1.09117
H    -1.77194  -3.30532   0.42293
H    -1.29610  -3.87016  -1.19127
H    -2.08635  -1.56831  -1.64494
H     0.34257  -0.53023  -2.06995
H     0.38921  -2.28315  -2.38988
H    -4.60759  -1.35262   2.22704
H    -5.39387  -1.59486   0.62526
H    -4.94946   0.06204   1.17624
