49
Generated by autodE on: 2022-06-25. E = -1373.703887 Ha
C    -4.32221  -0.94861  -1.18173
O    -3.92929   0.06050  -0.23468
C    -2.63535   0.12550   0.14986
C    -1.93632   1.29930   0.02127
O    -2.35156   2.41190  -0.57743
C    -3.36092   2.39356  -1.59955
C    -0.60597   1.48307   0.66178
O    -0.14159   2.60499   0.75623
C     0.20760   0.27602   1.13226
C     0.83104   0.63824   2.48355
C     1.31258   0.01189   0.02503
C     2.46739   0.95907  -0.05982
C     2.45759   2.01836  -0.97763
C     3.52486   2.91834  -1.01856
C     4.60464   2.77070  -0.14404
C     4.61563   1.71532   0.77322
C     3.55179   0.81309   0.81822
O     0.54343   0.05910  -1.27174
C    -0.13207  -1.09206  -1.35020
O    -0.87560  -1.40316  -2.24137
C     0.23029  -1.84653  -0.04320
C     0.02096  -3.28038  -0.12027
N    -0.15520  -4.42279  -0.19834
N     1.60511  -1.39077   0.19339
C     2.61730  -1.97004  -0.69679
C    -0.55443  -1.10433   1.12767
C    -0.40366  -1.90588   2.42515
C    -2.04505  -1.06488   0.76974
O    -2.73178  -2.06253   0.95294
H    -5.09143  -0.49311  -1.82098
H    -3.46914  -1.25684  -1.80247
H    -4.74029  -1.82237  -0.66420
H    -3.26175   3.35545  -2.11822
H    -3.17804   1.57052  -2.30537
H    -4.36353   2.30245  -1.16477
H     1.33908   1.60577   2.40529
H     0.04426   0.72478   3.24485
H     1.55576  -0.11364   2.81142
H     1.61586   2.13973  -1.65822
H     3.50908   3.73991  -1.73810
H     5.43839   3.47576  -0.17797
H     5.45713   1.59140   1.45825
H     3.56845  -0.00828   1.53456
H     3.59989  -1.55916  -0.43916
H     2.64782  -3.05500  -0.53098
H     2.42186  -1.77794  -1.76656
H    -0.92744  -2.86409   2.32977
H    -0.85511  -1.35612   3.26088
H     0.64963  -2.09724   2.65312
