49
Generated by autodE on: 2022-06-25. E = -1373.670074 Ha. Imaginary frequency = -422.5 cm-1
C    -4.35801  -0.81489  -1.03043
O    -3.85226   0.23074  -0.18475
C    -2.57389   0.19932   0.25040
C    -1.79862   1.32345   0.18089
O    -2.10299   2.46632  -0.44776
C    -2.91976   2.43206  -1.62758
C    -0.51424   1.39953   0.92801
O    -0.01905   2.49233   1.16292
C     0.18478   0.12306   1.31356
C     1.09947   0.31645   2.51236
C     1.34162  -0.07272  -0.25238
C     2.40035   0.96224  -0.27784
C     2.22517   2.08776  -1.10295
C     3.18183   3.10225  -1.12402
C     4.32092   3.01308  -0.31938
C     4.49362   1.90395   0.51314
C     3.54019   0.88556   0.54222
O     0.37162   0.10460  -1.26203
C    -0.29805  -1.07197  -1.44797
O    -1.23728  -1.18583  -2.19787
C     0.36777  -2.00879  -0.54282
C     0.10081  -3.39740  -0.52636
N    -0.16062  -4.52986  -0.48443
N     1.59521  -1.44602  -0.24550
C     2.72157  -2.15351   0.34870
C    -0.62534  -1.08669   1.28936
C    -0.32009  -2.19151   2.26498
C    -2.05429  -1.02857   0.88478
O    -2.80788  -1.98633   1.07264
H    -5.07310  -0.33712  -1.71508
H    -3.55079  -1.27784  -1.61212
H    -4.87360  -1.57951  -0.43408
H    -2.70013   3.36278  -2.16680
H    -2.64979   1.56767  -2.25301
H    -3.98655   2.39006  -1.37360
H     1.66212   1.25138   2.42154
H     0.49161   0.37474   3.42923
H     1.80872  -0.50893   2.63439
H     1.33521   2.16958  -1.72514
H     3.03276   3.96814  -1.77264
H     5.06955   3.80835  -0.33651
H     5.37531   1.82970   1.15312
H     3.68884   0.04858   1.21914
H     2.80536  -1.97650   1.42809
H     2.57522  -3.22626   0.17492
H     3.64983  -1.84247  -0.14734
H    -0.88647  -3.09826   2.02388
H    -0.62078  -1.87108   3.27806
H     0.74743  -2.43323   2.30480
