58
Generated by autodE on: 2022-06-26. E = -1474.702068 Ha
C    -0.06585   4.82219   1.60834
N     0.12414   3.68904   0.72574
C    -0.89154   2.88816   0.37180
O    -2.07144   3.12035   0.63550
C    -0.46967   1.69307  -0.52861
C    -0.76600   2.18301  -1.97096
C     0.40344   2.39622  -2.88765
O    -1.89841   2.50409  -2.27679
O     0.91828   1.41518  -0.39974
C     1.21271   0.38398   0.58065
C     2.10723   0.97667   1.66651
C     1.93912  -0.77329  -0.10977
C     2.46241  -1.83021   0.65489
C     3.05885  -2.93011   0.03708
C     3.16110  -2.98751  -1.35692
C     2.67963  -1.92332  -2.12082
C     2.07855  -0.82332  -1.50005
C    -0.22017  -0.01259   1.12282
O    -0.46846   0.82522   2.21664
C    -1.66086   0.71332   2.99586
C    -0.33612  -1.48925   1.51830
O    -0.14772  -1.80510   2.68209
C    -0.64494  -2.49994   0.47640
C    -0.54606  -3.93892   0.87218
C    -0.94957  -2.13799  -0.80236
C    -1.16211  -3.15794  -1.87595
C    -0.98087  -0.71444  -1.20287
O    -0.98896  -0.37617  -2.37550
C    -1.12357   0.34020  -0.08580
O    -2.44572   0.30769   0.36207
C    -3.52262   0.52368  -0.54851
H    -0.21395   4.50164   2.65356
H    -0.94841   5.39954   1.29921
H     0.81950   5.46842   1.56010
H     1.06389   3.36565   0.51957
H     1.17953   2.99198  -2.38522
H     0.05335   2.90795  -3.79305
H     0.85527   1.43339  -3.16303
H     3.07565   1.24025   1.21776
H     2.27796   0.24606   2.46801
H     1.65633   1.86979   2.10875
H     2.38767  -1.81370   1.74209
H     3.44417  -3.74778   0.65039
H     3.62204  -3.85155  -1.84082
H     2.76630  -1.94401  -3.20961
H     1.70334  -0.00318  -2.10409
H    -2.15840  -0.25664   2.87984
H    -1.36643   0.83876   4.04878
H    -2.36457   1.51024   2.71740
H    -1.48092  -4.47266   0.63782
H    -0.33259  -4.04228   1.94195
H     0.25538  -4.43518   0.30051
H    -0.24875  -3.76039  -2.01334
H    -1.96511  -3.85767  -1.59495
H    -1.41606  -2.68357  -2.83078
H    -3.45522  -0.12740  -1.43450
H    -4.43396   0.26907   0.00874
H    -3.56092   1.57104  -0.86985
