32
Generated by autodE on: 2022-06-26. E = -785.182895 Ha
C    -2.56647  -2.96393   0.80026
N    -1.85321  -1.79448   0.33231
C    -2.40736  -0.54913   0.40751
O    -3.56450  -0.40091   0.84365
C    -1.60181   0.56563  -0.07839
O    -0.22096   0.39476  -0.27656
C     0.64432   0.00999   0.60402
C     0.22817  -0.24210   1.99536
C     2.00117  -0.12127   0.11247
C     3.03294  -0.58185   0.96065
C     4.33331  -0.70343   0.47904
C     4.62533  -0.36738  -0.84731
C     3.60905   0.08630  -1.69967
C     2.30641   0.20278  -1.23155
C    -2.11059   1.76132  -0.66618
C    -1.09413   2.69703  -1.30320
O    -3.32017   2.07230  -0.66617
H    -2.96439  -2.79330   1.81175
H    -1.87371  -3.81500   0.83411
H    -3.41612  -3.23021   0.14693
H    -1.00348  -1.93619  -0.20247
H     1.05514  -0.08321   2.69536
H    -0.13785  -1.27709   2.10681
H    -0.62105   0.41925   2.23558
H     2.81765  -0.85109   1.99455
H     5.12387  -1.06271   1.14060
H     5.64714  -0.46336  -1.22123
H     3.83831   0.34340  -2.73570
H     1.51284   0.54400  -1.89611
H    -0.36405   3.05823  -0.56138
H    -1.62993   3.55383  -1.73298
H    -0.52220   2.18846  -2.09597
