32
Generated by autodE on: 2022-07-27. E = -785.193922 Ha
C    -1.24106   4.49113   0.40662
N    -1.59718   3.17144  -0.06571
C    -0.76701   2.11364   0.11781
O     0.24732   2.18150   0.84562
C    -1.11928   0.89871  -0.60728
O    -0.26231  -0.19106  -0.43243
C     0.09088  -0.67328   0.71343
C    -0.63601  -0.31648   1.94845
C     1.17501  -1.63629   0.66185
C     1.63914  -2.26110   1.84064
C     2.68277  -3.18041   1.78160
C     3.27570  -3.49172   0.55313
C     2.82782  -2.87374  -0.62231
C     1.79299  -1.94773  -0.57255
C    -2.00495   0.78384  -1.70891
C    -2.01537  -0.52527  -2.47257
O    -2.78988   1.70784  -2.04763
H    -2.09744   5.16432   0.26957
H    -0.98612   4.46633   1.47658
H    -0.37503   4.91762  -0.13151
H    -2.29227   3.04660  -0.80641
H    -0.69121  -1.17822   2.62439
H    -1.64635   0.03259   1.68482
H    -0.13106   0.51324   2.46708
H     1.18724  -2.02563   2.80411
H     3.03641  -3.65737   2.69768
H     4.09410  -4.21404   0.51071
H     3.29701  -3.11263  -1.57881
H     1.45508  -1.45342  -1.48330
H    -2.38146  -1.34626  -1.83496
H    -1.00356  -0.80362  -2.80739
H    -2.67694  -0.42393  -3.34305
