26
Generated by autodE on: 2022-06-26. E = -689.460863 Ha
C    -2.82987   1.58515   0.21073
O    -2.17469   0.46417   0.81327
C    -0.90273   0.21436   0.38382
C    -0.57921  -0.84854  -0.40562
O    -1.37313  -1.77968  -0.93353
C    -2.79699  -1.75638  -0.78779
C     0.86033  -1.10028  -0.76818
O     1.13187  -2.06941  -1.46374
C     1.91027  -0.16570  -0.28843
C     3.32487  -0.44040  -0.69600
C     1.57583   0.89343   0.48980
C     2.60014   1.85983   0.99473
C     0.15316   1.11829   0.88783
O    -0.15037   2.04275   1.64011
H    -3.83257   1.63788   0.65523
H    -2.29047   2.52198   0.41413
H    -2.92059   1.44203  -0.87890
H    -3.15818  -2.62768  -1.34870
H    -3.08806  -1.84526   0.26671
H    -3.22224  -0.83966  -1.22064
H     3.73831   0.41007  -1.26292
H     3.96792  -0.57021   0.18995
H     3.39239  -1.34210  -1.31579
H     3.35608   1.34088   1.60745
H     2.13856   2.64958   1.59860
H     3.14339   2.32423   0.15521
