29
Generated by autodE on: 2022-06-16. E = -687.850939 Ha
C     1.62375   2.01187  -0.91081
O     1.45855   0.58974  -0.83522
C     2.16520  -0.06072   0.09230
O     3.00239   0.47526   0.79069
C     1.74936  -1.51624   0.22145
C     1.34284  -2.20960  -1.08760
C    -0.16315  -1.90778  -1.20230
N    -0.55263  -1.40842   0.13665
C    -1.30077  -0.23228   0.24100
C    -1.12626   0.66945   1.31183
C    -1.89275   1.83246   1.39038
C    -2.85581   2.13075   0.41956
C    -3.04331   1.23203  -0.63536
C    -2.28421   0.06386  -0.72797
N     0.52612  -1.55674   1.04607
H     1.34648   2.47570   0.04698
H     0.94869   2.35230  -1.70419
H     2.66375   2.26806  -1.15804
H     2.55724  -2.03057   0.75501
H     1.51940  -3.28876  -0.97769
H     1.90719  -1.85627  -1.96096
H    -0.36150  -1.13596  -1.95810
H    -0.73545  -2.80696  -1.47619
H    -0.37424   0.44869   2.06696
H    -1.72859   2.51882   2.22556
H    -3.45185   3.04337   0.48682
H    -3.79619   1.43600  -1.40136
H    -2.46513  -0.62923  -1.55053
H     0.46446  -2.49191   1.45264
