23
Generated by autodE on: 2022-06-16. E = -609.171901 Ha
C     5.13428   0.24495  -0.03610
O     3.97752  -0.41640  -0.55996
C     2.78376   0.04071  -0.14045
O     2.65780   0.97450   0.64895
C     1.68482  -0.69515  -0.71971
N     0.46307  -0.31794  -0.35644
N    -0.65058  -0.80979  -0.77349
C    -1.81112  -0.30778  -0.18515
C    -1.86741   0.44682   1.00836
C    -3.09500   0.89570   1.49543
C    -4.28586   0.59725   0.82329
C    -4.23894  -0.16767  -0.34838
C    -3.01853  -0.61918  -0.84504
H     5.99948  -0.25151  -0.49111
H     5.12822   1.31209  -0.30365
H     5.17674   0.14714   1.05899
H     1.80640  -1.52101  -1.41747
H     0.46710   0.46555   0.32307
H    -0.96574   0.67184   1.58331
H    -3.12087   1.47595   2.42096
H    -5.24238   0.94938   1.21535
H    -5.16146  -0.41424  -0.87948
H    -2.96990  -1.21402  -1.75925
