29
Generated by autodE on: 2022-06-16. E = -687.762410 Ha. Imaginary frequency = -414.5 cm-1
C     1.46775   2.02315  -0.85381
O     1.14598   0.67306  -0.50445
C     2.02843  -0.00164   0.22319
O     3.13671   0.42849   0.50142
C     1.60704  -1.35877   0.64495
C     1.44307  -2.15077  -1.47841
C     0.08498  -2.05273  -1.69784
N    -0.76779  -1.55719   0.38691
C    -1.31623  -0.28082   0.35447
C    -1.02646   0.70769   1.32226
C    -1.66485   1.94587   1.28638
C    -2.61313   2.23820   0.29830
C    -2.92513   1.25392  -0.64763
C    -2.29730   0.00906  -0.61796
N     0.37940  -1.77152   1.01774
H     1.67118   2.61610   0.04928
H     0.58477   2.41475  -1.37183
H     2.34386   2.05087  -1.51793
H     2.41195  -1.89975   1.14568
H     1.89159  -3.11851  -1.23851
H     2.12503  -1.40151  -1.88667
H    -0.33664  -1.16895  -2.17950
H    -0.55369  -2.93598  -1.66242
H    -0.28602   0.49885   2.09648
H    -1.41457   2.69496   2.04257
H    -3.10618   3.21231   0.27116
H    -3.67105   1.45623  -1.42092
H    -2.55155  -0.75383  -1.35608
H     0.41216  -2.69632   1.45257
