42
Generated by autodE on: 2022-06-21. E = -1011.758458 Ha
C    -2.91832   3.06425   0.39133
N    -2.71463   1.66792   0.05641
C    -1.50608   1.10260  -0.08232
O    -0.45190   1.74882   0.01564
C    -1.44275  -0.42458  -0.36829
C    -2.72340  -0.92187  -1.04501
N    -0.27091  -0.70944  -1.18728
C    -0.25830  -0.30431  -2.57881
C     0.93697  -0.70998  -0.38492
C     1.81737  -1.80791  -0.85882
N     2.50211  -2.67799  -1.25855
C     1.84905   0.55407  -0.40642
O     2.50337   0.90168   0.55520
O     1.92186   1.12023  -1.59572
C     2.73251   2.30324  -1.70464
C     0.45323  -1.02269   1.07663
C     0.83126  -0.02556   2.15989
O     1.32983  -0.39498   3.20605
C    -1.10361  -1.20040   0.95767
C    -1.87256  -0.68553   2.17954
C    -1.38771  -2.70203   0.80479
H    -3.46349   3.58684  -0.41032
H    -3.49580   3.15923   1.32380
H    -1.94180   3.54323   0.52605
H    -3.53421   1.07675  -0.02138
H    -3.55687  -0.95447  -0.32767
H    -2.58010  -1.93641  -1.43513
H    -3.01542  -0.27225  -1.88138
H    -1.08834  -0.79100  -3.11126
H     0.67443  -0.63824  -3.05284
H    -0.34263   0.78741  -2.72669
H     3.77282   2.08094  -1.42965
H     2.33306   3.08941  -1.04849
H     2.66997   2.61261  -2.75369
H     0.89632  -1.96746   1.41168
H     0.53073   1.02732   2.00756
H    -1.58407  -1.25712   3.07405
H    -2.95346  -0.82311   2.02547
H    -1.69766   0.37783   2.39153
H    -0.88573  -3.12207  -0.07822
H    -1.01092  -3.22979   1.69369
H    -2.46537  -2.90373   0.72866
