14
Generated by autodE on: 2022-06-21. E = -270.687344 Ha
C    -1.24477   1.49995  -0.11664
C    -0.93918   0.08209   0.26405
C    -2.08560  -0.66528   0.87458
C     0.26272  -0.52953   0.09478
C     1.45071   0.07737  -0.47903
O     2.51885  -0.51586  -0.60981
H    -1.57011   2.05726   0.77830
H    -2.09851   1.51635  -0.81514
H    -0.40701   2.03641  -0.57656
H    -2.44171  -0.13997   1.77774
H    -2.93952  -0.68584   0.17540
H    -1.81791  -1.69653   1.14278
H     0.38283  -1.57190   0.40874
H     1.36825   1.13652  -0.81089
