28
Generated by autodE on: 2022-06-21. E = -741.043403 Ha
C    -2.49426   2.85344  -0.04795
N    -2.26197   1.53795  -0.61341
C    -1.63247   0.58809   0.09564
O    -1.36017   0.70598   1.29244
C    -1.37933  -0.71664  -0.62727
C    -2.44138  -1.28604  -1.50756
N    -0.29307  -1.40838  -0.36890
C    -0.20888  -2.80472  -0.84330
C     0.86431  -0.86872   0.23233
C     1.64921  -1.70080   1.04585
N     2.30713  -2.38867   1.72888
C     1.29748   0.46398  -0.08648
O     0.75092   1.23530  -0.87267
O     2.43507   0.79707   0.57139
C     2.98507   2.08432   0.28190
H    -1.54238   3.37341   0.15195
H    -3.04706   2.77371   0.89891
H    -3.08413   3.44635  -0.75713
H    -2.35169   1.41988  -1.61785
H    -2.92384  -2.14966  -1.01846
H    -3.22214  -0.54639  -1.71261
H    -2.02286  -1.64230  -2.46159
H     0.65323  -3.28781  -0.37558
H    -0.07548  -2.80863  -1.93400
H    -1.12247  -3.34930  -0.58038
H     3.26562   2.16443  -0.77911
H     3.87809   2.17959   0.91148
H     2.26727   2.88163   0.52641
