42
Generated by autodE on: 2022-06-21. E = -1011.696129 Ha. Imaginary frequency = -353.1 cm-1
C    -2.27699   3.34533   0.11165
N    -2.24190   1.97797  -0.37242
C    -1.29695   1.11850   0.04610
O    -0.45180   1.45994   0.87726
C    -1.36555  -0.28103  -0.58436
C    -2.70711  -0.64923  -1.16177
N    -0.25169  -0.69866  -1.29529
C    -0.40388  -1.73317  -2.33166
C     1.01095  -0.52243  -0.76001
C     1.99960  -1.50842  -1.02594
N     2.82816  -2.31522  -1.17955
C     1.60765   0.82730  -0.54124
O     2.57027   1.03397   0.17214
O     1.05696   1.75218  -1.33410
C     1.49697   3.10335  -1.14344
C     0.29085  -1.46348   1.32118
C     1.09680  -0.67642   2.23819
O     2.25377  -0.97187   2.53631
C    -1.12658  -1.43391   1.22215
C    -1.96636  -0.67906   2.23961
C    -1.76144  -2.76266   0.84969
H    -1.38555   3.90703  -0.21077
H    -3.17122   3.83788  -0.28852
H    -2.31508   3.36978   1.21094
H    -2.91554   1.69687  -1.07469
H    -3.49779  -0.41708  -0.43700
H    -2.77457  -1.71458  -1.40222
H    -2.91800  -0.08890  -2.08933
H    -0.57513  -2.72830  -1.89671
H     0.50713  -1.75608  -2.93802
H    -1.23924  -1.47531  -2.99054
H     2.56900   3.19581  -1.36908
H     1.30879   3.41846  -0.10751
H     0.90915   3.71244  -1.83956
H     0.79577  -2.37123   0.98166
H     0.62126   0.22010   2.68347
H    -2.14907  -1.34043   3.10370
H    -2.95207  -0.42215   1.82253
H    -1.49925   0.23939   2.60522
H    -1.23098  -3.27109   0.03363
H    -1.72505  -3.42722   1.73048
H    -2.82007  -2.65698   0.57671
