48
Generated by autodE on: 2022-06-22. E = -1033.207252 Ha
C     2.95653  -1.93263  -1.96430
N     2.22477  -0.92645  -1.21665
C     2.85549   0.02448  -0.48777
C     2.23065   0.99600   0.24011
C     3.07711   1.92716   0.99409
N     2.43619   2.81802   1.79597
O     4.32504   1.93021   0.92825
C     0.72536   1.03502   0.30738
C     0.07944   0.32953  -0.89568
C     0.78328  -0.98188  -1.26328
C     0.10584  -2.05295  -0.31793
C     0.97115  -2.46480   0.88175
C    -0.16630  -3.26728  -1.12567
N    -0.39605  -4.22142  -1.74698
N    -1.13728  -1.39946   0.11728
C    -2.27253  -2.26135   0.38289
C    -1.37687  -0.15081  -0.63454
C    -2.12484  -0.40883  -1.96044
C    -2.13520   0.87620   0.21138
C    -2.64916   2.03633  -0.39151
C    -3.28164   3.02411   0.36823
C    -3.41906   2.87017   1.75107
C    -2.90986   1.72202   2.36308
C    -2.27131   0.73896   1.60074
H     2.67482  -1.90694  -3.03040
H     2.75064  -2.94765  -1.58499
H     4.03413  -1.74272  -1.87899
H     3.94641  -0.01172  -0.51520
H     2.99468   3.45248   2.35573
H     1.43345   2.80836   1.93010
H     0.36079   2.07313   0.32685
H     0.37178   0.57402   1.24447
H     0.10362   1.00659  -1.76036
H     0.50898  -1.23720  -2.29485
H     1.87259  -3.00614   0.56206
H     0.39033  -3.12052   1.54665
H     1.27122  -1.57060   1.44276
H    -3.09179  -1.67351   0.81878
H    -1.99249  -3.03423   1.11531
H    -2.66700  -2.77489  -0.51552
H    -3.17662  -0.66590  -1.76896
H    -1.67275  -1.24158  -2.51823
H    -2.10568   0.47548  -2.61137
H    -2.54541   2.18464  -1.46727
H    -3.66796   3.91946  -0.12514
H    -3.91685   3.63975   2.34591
H    -3.00576   1.58811   3.44355
H    -1.86389  -0.14429   2.09115
