28
Generated by autodE on: 2022-07-27. E = -575.422600 Ha
C     2.36295  -2.88661  -0.71657
C     1.12816  -2.04444  -0.89847
C     0.10515  -2.48290  -1.73622
N    -0.76906  -2.86769  -2.42639
N     0.91316  -0.89775  -0.14062
C     1.57905  -0.86490   1.17505
C     0.20936   0.15662  -0.58263
C    -0.01512   0.33256  -2.04600
C    -0.40023   1.10463   0.36371
C    -1.04608   0.65084   1.53455
C    -1.64672   1.54980   2.41558
C    -1.62360   2.92264   2.14883
C    -0.99950   3.38675   0.98538
C    -0.40230   2.49074   0.09950
H     3.29038  -2.29530  -0.80994
H     2.40048  -3.41034   0.25556
H     2.38720  -3.65767  -1.49977
H     2.64364  -1.08428   1.02856
H     1.49057   0.12954   1.61761
H     1.14884  -1.62128   1.84460
H    -0.17321   1.39411  -2.27755
H    -0.89760  -0.21618  -2.42283
H     0.85140  -0.04928  -2.61183
H    -1.09437  -0.41892   1.74447
H    -2.14553   1.17363   3.31199
H    -2.09430   3.62614   2.83936
H    -0.97478   4.45702   0.76702
H     0.08844   2.87218  -0.79762
