28
Generated by autodE on: 2022-06-22. E = -575.422359 Ha
C    -1.24315   0.94091   1.39815
C    -1.37243  -0.51723   1.09077
C    -1.80097  -1.38208   2.10101
N    -2.17662  -2.05268   2.99355
N    -1.11913  -1.02804  -0.17688
C    -1.84718  -2.25357  -0.56022
C    -0.37223  -0.42532  -1.11245
C    -0.58511  -0.80358  -2.55138
C     0.72077   0.49226  -0.76747
C     1.53058   0.26729   0.36890
C     2.64343   1.06593   0.62794
C     2.96808   2.12916  -0.22166
C     2.16869   2.37557  -1.34321
C     1.06761   1.56534  -1.61804
H    -0.22799   1.26016   1.70116
H    -1.93052   1.20297   2.21666
H    -1.50622   1.54060   0.51032
H    -2.17938  -2.77127   0.34426
H    -1.19520  -2.91906  -1.13589
H    -2.72818  -1.99028  -1.16143
H    -0.05703  -0.10851  -3.21324
H    -1.64999  -0.80488  -2.83169
H    -0.18937  -1.81158  -2.76716
H     1.29624  -0.55851   1.04292
H     3.26139   0.85627   1.50441
H     3.83334   2.76120  -0.00946
H     2.40391   3.20751  -2.01144
H     0.45633   1.77998  -2.49614
