20
Generated by autodE on: 2022-06-22. E = -457.715351 Ha
C    -3.12419   0.02519   0.57113
N    -1.82984  -0.02341  -0.08901
C    -1.74850  -0.46452  -1.41589
C    -0.57891  -0.64364  -2.04994
C     0.75862  -0.38727  -1.40044
C     0.57277   0.03905   0.04650
C     1.72854   0.31927   0.91377
N     2.95006   0.17164   0.34201
O     1.62562   0.67118   2.10657
C    -0.66751   0.18521   0.59179
H    -3.52567  -0.98629   0.75461
H    -3.84865   0.57786  -0.04598
H    -3.02252   0.54157   1.53404
H    -2.71012  -0.64973  -1.89794
H    -0.59735  -0.98375  -3.08787
H     1.31840   0.38259  -1.97100
H     1.39341  -1.29415  -1.46692
H     3.77455   0.35613   0.90279
H     3.07243  -0.10663  -0.62322
H    -0.77205   0.49156   1.63390
