48
Generated by autodE on: 2022-06-22. E = -1033.125891 Ha. Imaginary frequency = -348.0 cm-1
C     3.04933  -1.65702  -2.21700
N     2.38020  -0.64872  -1.41338
C     2.89082  -0.22322  -0.22948
C     2.30435   0.74517   0.53524
C     2.94579   1.08379   1.81010
N     2.37589   2.09228   2.52041
O     3.95480   0.49406   2.25273
C     1.07272   1.48497   0.05126
C     0.45249   0.84261  -1.18265
C     1.13471  -0.18883  -1.83939
C    -0.18963  -2.14576  -0.80544
C     0.83313  -3.05192  -0.16812
C    -0.74503  -2.66086  -1.99700
N    -1.11093  -3.17725  -2.98532
N    -0.87176  -1.22046  -0.01869
C    -0.39959  -1.14287   1.37037
C    -1.40693  -0.08003  -0.58365
C    -2.03517  -0.15009  -1.96106
C    -2.21809   0.81646   0.30896
C    -3.16552   0.27624   1.19896
C    -3.98359   1.10591   1.96863
C    -3.88078   2.49575   1.85730
C    -2.96099   3.04491   0.95941
C    -2.14352   2.21476   0.18863
H     3.40080  -1.22888  -3.17069
H     2.36109  -2.48361  -2.44753
H     3.91236  -2.05347  -1.66817
H     3.81385  -0.70496   0.09564
H     1.57458   2.61089   2.18526
H     2.79229   2.35783   3.40572
H     1.32799   2.53899  -0.17787
H     0.32908   1.55377   0.86349
H    -0.11021   1.51149  -1.83449
H     0.89070  -0.45797  -2.86625
H     1.20362  -3.76682  -0.91325
H     0.41997  -3.63619   0.67128
H     1.70013  -2.48950   0.21577
H    -0.91216  -0.34036   1.90053
H     0.68078  -0.93363   1.39750
H    -0.59346  -2.08939   1.88892
H    -2.36288   0.85808  -2.24567
H    -2.92946  -0.79603  -1.93812
H    -1.36174  -0.51850  -2.73919
H    -3.26609  -0.80752   1.28526
H    -4.71030   0.66171   2.65318
H    -4.51932   3.14610   2.45967
H    -2.87742   4.12925   0.85428
H    -1.44332   2.66448  -0.51545
