67
Generated by autodE on: 2022-06-15. E = -4204.573883 Ha
C   -15.50314  11.72013  -1.54363
N   -16.17887  10.46596  -1.80798
C   -17.48157  10.28339  -1.55240
O   -18.26978  11.18022  -1.23638
C   -18.00457   8.88758  -1.77819
N   -17.87903   8.36321  -2.94709
C   -18.61802   7.10561  -2.93382
C   -17.48628   6.00837  -2.88203
O   -16.65482   6.06419  -1.97468
N   -17.48425   5.09655  -3.84926
C   -16.56414   3.97812  -3.82525
C   -19.57296   7.08849  -4.15817
O   -19.67525   6.13140  -4.93356
N   -20.29387   8.20483  -4.30793
C   -21.34692   8.29858  -5.30166
C   -19.35054   7.07379  -1.58822
C   -18.85233   8.10016  -0.83892
C   -19.14103   8.52042   0.59650
C   -19.14916   7.33025   1.58493
C   -19.87380   7.39586   2.78483
C   -19.81317   6.35801   3.71786
C   -19.01230   5.23749   3.47777
C   -18.26470   5.17599   2.29948
C   -18.32683   6.21385   1.36735
C   -17.97955   9.36878   1.17498
C   -16.65049   8.96183   0.97421
C   -15.58709   9.66912   1.53855
C   -15.83260  10.79109   2.33530
C   -17.15224  11.19159   2.55985
C   -18.21466  10.48733   1.98558
C   -20.47023   9.34526   0.54495
C   -21.57326   8.88514  -0.41422
C   -22.24968   7.53207  -0.17643
C   -21.39544   6.25383  -0.16353
C   -20.44253   6.07733  -1.32787
F   -21.21046   5.99932  -2.47744
Br  -19.63746   4.21479  -1.15549
H   -16.19759  12.55288  -1.71049
H   -14.64401  11.82704  -2.21901
H   -15.14529  11.76630  -0.50099
H   -15.61488   9.63638  -1.96663
H   -18.27546   5.12913  -4.50082
H   -16.65612   3.41954  -4.76479
H   -15.52693   4.32727  -3.71623
H   -16.78526   3.29924  -2.98414
H   -20.20938   8.94070  -3.61363
H   -21.75443   9.31644  -5.28928
H   -22.15905   7.58437  -5.08769
H   -20.95521   8.08248  -6.30628
H   -20.50018   8.26031   3.00323
H   -20.39756   6.42834   4.63848
H   -18.96819   4.42318   4.20475
H   -17.63250   4.30913   2.09396
H   -17.74226   6.13404   0.45121
H   -16.43481   8.08526   0.36047
H   -14.56226   9.34006   1.35168
H   -15.00287  11.34563   2.77952
H   -17.36184  12.06336   3.18443
H   -19.23204  10.82546   2.17822
H   -20.88190   9.44272   1.55766
H   -20.18783  10.35631   0.22532
H   -22.36612   9.64880  -0.35684
H   -21.20457   8.93523  -1.45012
H   -23.02939   7.41638  -0.94595
H   -22.77416   7.55441   0.79340
H   -20.83414   6.16134   0.76665
H   -22.07514   5.39044  -0.20160
