27
Generated by autodE on: 2022-06-15. E = -757.116584 Ha
C     5.02546  -0.39914   0.53933
N     3.72098  -0.61985  -0.06050
C     2.82026   0.36396  -0.15702
O     2.99333   1.54038   0.16793
C     1.52415   0.00640  -0.76623
N     0.38445  -0.08011  -0.42873
C    -0.88665  -0.16385  -0.16045
C    -1.66867   1.09017  -0.01415
O    -2.90537   1.07103   0.13128
N    -0.98092   2.24959  -0.04412
C    -1.65445   3.52541   0.10174
C    -1.42771  -1.54688  -0.02530
O    -0.67838  -2.52932  -0.13680
N    -2.74614  -1.64477   0.21428
C    -3.39664  -2.93012   0.34663
H     5.49644   0.49624   0.10910
H     5.65826  -1.27037   0.33341
H     4.95274  -0.26178   1.63031
H     3.45123  -1.55722  -0.34774
H     0.03292   2.24099  -0.07525
H    -2.12130   3.62706   1.09525
H    -2.44356   3.64387  -0.65626
H    -0.91820   4.32809  -0.02551
H    -3.26874  -0.76714   0.25413
H    -3.33506  -3.51635  -0.58549
H    -4.45432  -2.76989   0.58965
H    -2.93752  -3.53041   1.14836
