40
Generated by autodE on: 2022-06-15. E = -3447.334439 Ha
F    -2.33883  -0.12959   2.92783
C    -2.14672  -0.29981   1.58250
Br   -2.88261  -2.13764   1.16124
C    -0.75460  -0.27068   1.19444
C     0.14730  -0.01686   0.42348
C     0.89119   0.52526  -0.71409
C     1.87477  -0.47638  -1.33424
C     1.89290  -1.82268  -0.95052
C     2.77213  -2.72460  -1.55956
C     3.64189  -2.29039  -2.56272
C     3.62737  -0.94638  -2.95253
C     2.75243  -0.04649  -2.34095
C     1.65444   1.78068  -0.25326
C     2.46815   1.68798   0.88715
C     3.21709   2.78110   1.32333
C     3.16394   3.99175   0.62276
C     2.35762   4.09282  -0.51243
C     1.60626   2.99465  -0.94862
C    -0.24984   0.81991  -1.75063
C    -1.46770   1.62064  -1.23956
C    -2.69488   0.82782  -0.70790
C    -2.92755   0.76387   0.81167
H     1.21435  -2.17174  -0.16941
H     2.77557  -3.77095  -1.24470
H     4.33011  -2.99369  -3.03743
H     4.30473  -0.59499  -3.73464
H     2.75628   1.00230  -2.64471
H     2.51694   0.74391   1.43558
H     3.84455   2.68853   2.21304
H     3.74801   4.85044   0.96201
H     2.30729   5.03246  -1.06775
H     0.98742   3.09890  -1.83962
H    -0.58831  -0.15446  -2.13443
H     0.21262   1.33767  -2.60304
H    -1.14736   2.35939  -0.48730
H    -1.82106   2.21393  -2.09665
H    -2.69395  -0.19452  -1.12146
H    -3.59490   1.30796  -1.12008
H    -3.99498   0.60903   1.02983
H    -2.63856   1.72238   1.27635
