49
Generated by autodE on: 2022-06-26. E = -1298.656578 Ha
C    -2.80140   2.91649  -2.22426
N    -1.65321   2.35236  -1.54199
C    -1.74250   1.84844  -0.30328
O    -2.78662   1.72155   0.34428
N    -0.51979   1.49175   0.29584
O     0.63252   1.57025  -0.50904
C     0.99314   0.21982  -0.93238
C     2.48856   0.08955  -0.94174
C     3.25223   0.30501   0.21544
C     4.64104   0.17080   0.17399
C     5.28062  -0.18339  -1.01962
C     4.52496  -0.39848  -2.17563
C     3.13498  -0.25806  -2.13570
C     0.19720  -0.71751   0.04878
O     0.94679  -1.68624   0.73628
C     1.44398  -2.80996   0.01283
C    -0.92400  -1.42400  -0.75187
O    -0.64070  -1.87922  -1.85155
C    -2.26746  -1.60508  -0.17284
C    -3.24306  -2.44027  -0.94449
C    -2.62922  -0.99277   0.98919
C    -4.00673  -1.13198   1.55119
C    -1.66837  -0.17953   1.77043
O    -1.84452   0.06195   2.94968
C    -0.35819   0.29241   1.09831
O     0.62369   0.47749   2.07526
C     0.66660   1.74611   2.72547
H    -2.98508   3.96302  -1.92859
H    -3.69921   2.32815  -1.99348
H    -2.62524   2.88394  -3.30695
H    -0.72359   2.46242  -1.93617
H     0.61196   0.07304  -1.94894
H     2.74946   0.56338   1.14676
H     5.22855   0.33930   1.07965
H     6.36762  -0.29086  -1.04756
H     5.01793  -0.67166  -3.11150
H     2.54093  -0.42453  -3.03779
H     1.92501  -2.51604  -0.93135
H     0.64777  -3.54105  -0.20157
H     2.19271  -3.27888   0.66552
H    -2.77843  -2.86510  -1.84125
H    -3.63078  -3.26089  -0.31980
H    -4.11373  -1.83544  -1.24748
H    -4.09705  -0.61959   2.51565
H    -4.74062  -0.70567   0.84754
H    -4.27262  -2.19306   1.68246
H     1.30112   1.60866   3.61150
H     1.12012   2.50823   2.07218
H    -0.32959   2.08145   3.04453
