23
Generated by autodE on: 2022-06-26. E = -609.135904 Ha
C    -4.58311   0.27056  -1.08703
N    -3.81522   0.38486   0.13618
C    -2.45535   0.18332   0.11854
O    -1.81447   0.18042  -0.96155
N    -1.93709   0.01026   1.36672
O    -0.54552  -0.29281   1.22250
C     0.16905   0.48109   0.49954
C     1.50730   0.10488   0.14763
C     2.31354   1.05703  -0.51250
C     3.62170   0.73367  -0.86124
C     4.12916  -0.53445  -0.55551
C     3.33132  -1.48694   0.09725
C     2.02323  -1.17688   0.44593
H    -5.60029   0.64648  -0.91071
H    -4.12290   0.87813  -1.87829
H    -4.65900  -0.76758  -1.46070
H    -4.28182   0.10541   0.99364
H    -0.20914   1.47622   0.25052
H     1.90191   2.04221  -0.74267
H     4.24900   1.46694  -1.37154
H     5.15550  -0.78756  -0.83109
H     3.73785  -2.47412   0.32554
H     1.38807  -1.91117   0.94365
