26
Generated by autodE on: 2022-06-26. E = -689.460859 Ha
C     3.01003   1.14484  -0.42320
O     2.25744   0.43590   0.56672
C     0.94203   0.21802   0.27126
C     0.44695  -1.00774  -0.06051
O     1.08913  -2.16679  -0.20180
C     2.50710  -2.29221  -0.05081
C    -1.03001  -1.17772  -0.30206
O    -1.45667  -2.28712  -0.59158
C    -1.92873   0.00014  -0.19703
C    -3.38696  -0.21210  -0.46341
C    -1.42397   1.21614   0.12807
C    -2.29112   2.42963   0.24375
C     0.03589   1.37890   0.40192
O     0.49306   2.46776   0.74525
H     4.03675   1.22079  -0.04127
H     2.60558   2.15469  -0.58683
H     3.01526   0.59147  -1.37703
H     2.72354  -3.35186  -0.23671
H     2.82160  -2.02054   0.96511
H     3.03850  -1.67436  -0.78849
H    -3.72295   0.41164  -1.30828
H    -3.59971  -1.26233  -0.69489
H    -3.99034   0.08824   0.40893
H    -1.70116   3.31521   0.50707
H    -3.06901   2.28079   1.01112
H    -2.81987   2.62167  -0.70447
