49
Generated by autodE on: 2022-06-26. E = -1298.599781 Ha. Imaginary frequency = -241.4 cm-1
C    -3.70724   2.97497  -0.03073
N    -2.40238   2.73547   0.55026
C    -1.36195   2.31258  -0.21805
O    -1.41683   2.31073  -1.45987
N    -0.26051   1.95571   0.54893
O     0.84301   1.62105  -0.23633
C     0.73165   0.53349  -0.97492
C     1.91406   0.06849  -1.66552
C     3.20523   0.47545  -1.27218
C     4.31946  -0.02231  -1.93972
C     4.15956  -0.93274  -2.99386
C     2.88115  -1.34608  -3.38321
C     1.75893  -0.85082  -2.72129
C     0.51611  -0.90934   0.70277
O     1.84186  -1.17510   0.93221
C     2.10556  -2.22881   1.86556
C    -0.24485  -1.88220  -0.09826
O     0.33615  -2.79573  -0.68179
C    -1.71446  -1.67033  -0.25092
C    -2.41720  -2.45465  -1.31256
C    -2.37510  -0.80292   0.56070
C    -3.85190  -0.58233   0.44520
C    -1.66671  -0.09133   1.65740
O    -2.28858   0.46380   2.55573
C    -0.17051  -0.09500   1.64386
O     0.56517   0.32482   2.65544
C     0.13700   1.31816   3.59829
H    -3.71978   3.89783  -0.63358
H    -4.02279   2.14467  -0.68195
H    -4.43923   3.08354   0.77936
H    -2.32854   2.61367   1.55450
H    -0.25360   0.30973  -1.38643
H     3.31912   1.17463  -0.44303
H     5.32058   0.29315  -1.63830
H     5.03854  -1.32194  -3.51291
H     2.76042  -2.05516  -4.20470
H     0.75614  -1.16397  -3.01714
H     1.64845  -2.01742   2.84471
H     1.73455  -3.19306   1.48537
H     3.19686  -2.27916   1.97785
H    -3.25914  -3.02552  -0.88876
H    -1.72968  -3.14969  -1.80878
H    -2.84599  -1.77649  -2.06950
H    -4.40228  -1.51623   0.64906
H    -4.19808   0.18420   1.14719
H    -4.11589  -0.27675  -0.57927
H     1.04926   1.61462   4.13101
H    -0.28890   2.17645   3.06296
H    -0.59471   0.90363   4.30163
