48
Generated by autodE on: 2022-10-22. E = -1202.443358 Ha
C    -0.53409   4.00499  -0.13933
O     0.61008   3.18854   0.06335
C     0.49030   1.96533   0.77437
O     1.76543   1.70076   1.29549
C     2.83793   1.58445   0.36426
C    -0.47098   2.10809   1.96988
C    -0.27491   1.16145   3.15385
C    -0.49627  -0.33185   2.91187
C     0.65162  -1.05365   2.17722
C     0.29304  -1.54857   0.74391
C    -0.88270  -2.42649   0.87410
N    -1.81087  -3.09649   1.01486
C     1.54286  -2.36424   0.25939
C     1.56774  -3.83346   0.53886
O     2.44881  -1.76900  -0.28148
C    -0.02969  -0.46105  -0.25317
C     0.03880   0.88088  -0.22040
N    -0.54062   1.37815  -1.50455
O    -2.01566   1.09591  -1.32632
C    -2.12408  -0.25866  -1.41946
O    -3.16931  -0.84675  -1.34182
C    -0.68977  -0.78322  -1.63215
C    -0.57815  -2.14984  -2.25390
N    -0.25723   0.35409  -2.46206
C     1.12071   0.37523  -2.92904
H    -0.78159   4.59457   0.75882
H    -0.28026   4.69897  -0.95346
H    -1.42087   3.42996  -0.44171
H     2.89218   2.45911  -0.30030
H     2.74866   0.66719  -0.23424
H     3.75816   1.52920   0.96154
H    -1.50239   2.03659   1.59260
H    -0.33187   3.13285   2.34490
H    -0.98954   1.48791   3.92674
H     0.72794   1.31711   3.58141
H    -1.45138  -0.47828   2.38025
H    -0.62684  -0.81625   3.89094
H     1.52895  -0.40506   2.07887
H     0.96125  -1.94066   2.74719
H     2.57568  -4.22925   0.36284
H     0.85355  -4.32985  -0.13916
H     1.23875  -4.04666   1.56704
H     0.47222  -2.45726  -2.34558
H    -1.02558  -2.12725  -3.25771
H    -1.11924  -2.89833  -1.66164
H     1.21466  -0.35560  -3.74292
H     1.33530   1.37431  -3.33163
H     1.85682   0.13467  -2.14555
