34
Generated by autodE on: 2022-10-22. E = -786.291754 Ha
C    -1.74109   2.17644  -2.68146
O    -2.33255   1.41430  -1.63737
C    -1.61671   0.26600  -1.25925
O    -1.42294  -0.60996  -2.35298
C    -2.60196  -1.16503  -2.92681
C    -0.26077   0.55313  -0.73727
C     0.66660   0.43775   0.03234
C     1.43229  -0.04894   1.18048
C     1.38570   0.95077   2.26006
N     1.35812   1.71932   3.12893
C     2.95635  -0.28898   0.86214
C     3.62535   0.73935   0.00681
O     3.50569  -1.26839   1.30905
C     0.74196  -1.37070   1.64768
C    -0.78636  -1.30536   1.82567
C    -1.69345  -1.57142   0.59068
C    -2.38612  -0.37005  -0.08101
H    -2.35300   3.08012  -2.80356
H    -0.70885   2.47168  -2.42079
H    -1.71990   1.62011  -3.63215
H    -3.00522  -1.98947  -2.31574
H    -2.31396  -1.56217  -3.91004
H    -3.38334  -0.40157  -3.06618
H     4.71224   0.58961   0.01608
H     3.36670   1.75517   0.34377
H     3.24759   0.63720  -1.02426
H     1.22013  -1.65880   2.59449
H     1.00673  -2.13892   0.90615
H    -1.02378  -2.07905   2.57128
H    -1.06713  -0.34938   2.30045
H    -2.49822  -2.24251   0.92607
H    -1.13513  -2.14230  -0.16991
H    -3.37284  -0.66738  -0.46586
H    -2.56468   0.43228   0.65037
