14
Generated by autodE on: 2022-10-22. E = -416.120151 Ha
C    -0.23454  -2.14247   0.28997
C    -0.12009  -0.67774   0.08894
C    -1.14465   0.28216  -0.12208
O    -2.36341   0.24664  -0.20512
O    -0.43891   1.49562  -0.24550
N     0.90176   1.30658  -0.12263
N     1.03158   0.02266   0.07095
C     2.36946  -0.52976   0.24524
H     0.17256  -2.45496   1.26545
H    -1.29726  -2.41899   0.25437
H     0.29701  -2.70648  -0.49375
H     2.42567  -1.02530   1.22284
H     3.08798   0.29490   0.19077
H     2.56084  -1.26005  -0.55138
