43
Generated by autodE on: 2022-06-20. E = -942.237009 Ha. Imaginary frequency = -357.6 cm-1
C    -2.89928   2.47725   2.24031
O    -2.52366   1.40303   1.38053
C    -1.24664   1.41978   0.91445
O    -0.48364   2.33624   1.21994
C    -0.95700   0.26392   0.07660
C    -2.09173  -0.44153  -0.58466
C    -2.17642  -1.84590  -0.59389
C    -3.22637  -2.50009  -1.24205
C    -4.21991  -1.76346  -1.89351
C    -4.14972  -0.36622  -1.89579
C    -3.09655   0.28510  -1.25202
C    -0.39330  -0.85568   2.18273
C     0.97810  -0.94686   2.01732
C     1.40179   0.35486   0.36350
C     2.80718   0.14478  -0.03130
C     3.71116   1.20608   0.17860
C     5.07004   1.06410  -0.10620
C     5.56037  -0.15063  -0.59562
C     4.68076  -1.22198  -0.78593
C     3.32167  -1.08074  -0.50275
N     0.32245   0.07921  -0.42990
C     0.49309  -0.74420  -1.63239
H    -2.27993   2.48997   3.15033
H    -3.94847   2.29918   2.50710
H    -2.80422   3.44777   1.73033
H    -1.40783  -2.43522  -0.09209
H    -3.26966  -3.59192  -1.23332
H    -5.04348  -2.27439  -2.39792
H    -4.91611   0.22034  -2.40838
H    -3.04579   1.37549  -1.26971
H    -1.06231  -1.64764   1.84724
H    -0.82086  -0.14240   2.89174
H     1.40765  -1.84512   1.56410
H     1.64736  -0.39730   2.68432
H     1.25300   1.22557   0.99144
H     3.33299   2.15552   0.56563
H     5.74887   1.90478   0.05599
H     6.62383  -0.26608  -0.81784
H     5.05795  -2.18092  -1.14934
H     2.66143  -1.93895  -0.62688
H     1.42050  -0.45085  -2.13545
H     0.53542  -1.81730  -1.39940
H    -0.34295  -0.56322  -2.31457
