41
Generated by autodE on: 2022-05-31. E = -3472.914482 Ha
C    -1.37170  -3.35852  -4.39166
O    -0.72889  -2.39830  -3.54070
C    -1.26843  -2.21611  -2.33102
O    -2.22810  -2.85097  -1.93320
C    -0.59366  -1.12639  -1.58213
N    -0.19163  -0.07325  -2.29522
N     0.24888   0.82654  -1.42367
C     0.86572   2.02542  -1.98530
C     0.12308   0.38233  -0.12574
C    -0.37094  -0.93421  -0.18180
C    -0.49379  -2.03310   0.88949
C    -0.01882  -3.37673   0.28660
C    -1.97207  -2.15609   1.31670
C     0.34648  -1.81865   2.17824
C     1.87277  -1.74017   2.08748
C     2.47722  -0.60780   1.25650
C     1.99865   0.81548   1.56565
C     0.55077   1.15482   1.10917
Br    0.47402   3.18641   0.89225
C    -0.48163   1.05428   2.14826
N    -1.31858   1.06069   2.95267
H    -0.80993  -3.35003  -5.33277
H    -1.33696  -4.35937  -3.93746
H    -2.41924  -3.07571  -4.57016
H     1.80574   2.25515  -1.47228
H     0.19193   2.88930  -1.93735
H     1.08027   1.79311  -3.03395
H    -0.72136  -3.77443  -0.45282
H     0.96777  -3.27931  -0.19036
H     0.06472  -4.12438   1.09023
H    -2.09646  -2.99927   2.01502
H    -2.61533  -2.33110   0.44430
H    -2.31229  -1.24075   1.82341
H    -0.02632  -0.96182   2.74435
H     0.10534  -2.68180   2.81958
H     2.24506  -1.64579   3.12212
H     2.27701  -2.69280   1.70867
H     3.56626  -0.60376   1.42510
H     2.34646  -0.80404   0.18151
H     2.09219   1.05114   2.63656
H     2.65837   1.50624   1.02323
