27
Generated by autodE on: 2022-05-31. E = -3056.677434 Ha
C    -2.95903  -2.82111  -0.72758
C    -1.60533  -2.25384  -1.18161
C    -0.65464  -3.40240  -1.56830
C    -0.98423  -1.41315  -0.15810
C    -0.40631  -0.49943   0.39487
C     0.20951   0.80928   0.40985
Br    1.85189   0.84871   1.60618
C    -0.68830   1.81714   0.97840
N    -1.41301   2.62434   1.39035
C     0.64119   1.17623  -1.03437
C    -0.47022   1.01256  -2.09336
C    -0.63190  -0.36891  -2.78862
C    -1.81618  -1.27125  -2.38172
H    -3.63755  -2.01714  -0.40485
H    -3.43289  -3.36027  -1.56244
H    -2.82967  -3.52516   0.10851
H     0.31330  -3.02234  -1.92634
H    -1.11273  -4.00188  -2.37017
H    -0.46761  -4.06076  -0.70658
H     1.49727   0.53324  -1.28521
H     1.00011   2.21576  -1.01695
H    -1.43626   1.34591  -1.67687
H    -0.22554   1.74449  -2.87793
H    -0.76563  -0.16335  -3.86188
H     0.31464  -0.93068  -2.71927
H    -2.68746  -0.63564  -2.15304
H    -2.10248  -1.89850  -3.24211
