41
Generated by autodE on: 2022-05-31. E = -3472.762217 Ha. Imaginary frequency = -288.8 cm-1
C    -2.22872  -3.39553  -4.30451
O    -1.51836  -2.35038  -3.61361
C    -2.09197  -1.86837  -2.51294
O    -3.14276  -2.25951  -2.04634
C    -1.25154  -0.84576  -1.87601
N    -1.17630   0.36019  -2.01429
N    -0.91879   1.44935  -1.48748
C     0.04580   2.29835  -2.18553
C    -0.10473   0.35510   0.48923
C    -0.24178  -0.85616   0.27222
C    -0.09653  -2.28820   0.63887
C     0.56617  -3.09753  -0.48946
C    -1.47622  -2.88680   0.97123
C     0.83815  -2.35543   1.88130
C     0.46839  -1.52083   3.11972
C     1.11213  -0.12476   3.26618
C     0.29945   1.10275   2.84404
C     0.29187   1.46331   1.34229
Br    2.19564   2.02974   0.80538
C    -0.49276   2.68493   1.15075
N    -1.12371   3.65540   1.07045
H    -2.36018  -4.26332  -3.64291
H    -3.21019  -3.03284  -4.64079
H    -1.60457  -3.66074  -5.16494
H     0.95462   1.73948  -2.46126
H    -0.41090   2.71072  -3.09992
H     0.30568   3.13302  -1.52614
H     1.52693  -2.64811  -0.78398
H    -0.06934  -3.15706  -1.38289
H     0.75919  -4.12386  -0.14060
H    -1.95951  -2.34794   1.79923
H    -2.14622  -2.84401   0.10272
H    -1.35750  -3.94098   1.26749
H     1.85810  -2.08720   1.55894
H     0.87715  -3.41900   2.16854
H    -0.62678  -1.43674   3.21771
H     0.79122  -2.10516   3.99534
H     1.32111   0.02960   4.33599
H     2.09584  -0.10687   2.76876
H    -0.75941   0.96350   3.12211
H     0.65508   1.99091   3.38727
