52
Generated by autodE on: 2022-06-02. E = -1457.466670 Ha
C    -3.10565  -1.19504   3.04847
N    -2.17309  -0.56906   2.13298
C    -2.49079  -0.21798   0.88484
O    -3.60118  -0.33636   0.35898
C    -1.34915   0.37110   0.04468
C    -1.83003   1.75759  -0.46307
O    -1.74990   2.19785  -1.58425
O    -2.31183   2.44192   0.57331
C    -2.68817   3.80587   0.32761
O    -0.20508   0.57627   0.85125
C     0.99818   0.47399   0.11202
C     1.43916   1.92054  -0.23752
O     0.71464   2.87516  -0.07167
O     2.67256   1.98700  -0.70696
C     3.15015   3.28686  -1.09833
C     2.08691  -0.10551   1.03708
O     3.19880  -0.39085   0.65459
O     1.67866  -0.21365   2.29429
C     2.63173  -0.73871   3.23604
C     0.68068  -0.41417  -1.17309
C     1.09585   0.25709  -2.47768
C     1.18554  -1.88028  -1.00351
C     0.78083  -2.73657  -2.22186
C    -0.75667  -2.89630  -2.05516
C    -1.04689  -2.11748  -0.75344
C     0.21756  -2.42569   0.06689
C    -0.88723  -0.61084  -1.06728
F    -1.54921  -0.31855  -2.24596
H    -4.12677  -1.04981   2.67532
H    -3.01802  -0.74099   4.04569
H    -2.91321  -2.27653   3.13759
H    -1.20372  -0.44126   2.41152
H    -1.81401   4.38011  -0.01072
H    -3.05390   4.19444   1.28462
H    -3.48037   3.85400  -0.43287
H     2.52680   3.68634  -1.91070
H     3.12769   3.97322  -0.24074
H     4.17880   3.13548  -1.44294
H     3.52300  -0.09684   3.27113
H     2.12172  -0.74235   4.20544
H     2.92107  -1.75951   2.94952
H     2.18990   0.29306  -2.56007
H     0.70235   1.28076  -2.54806
H     0.69923  -0.29604  -3.33649
H     2.25414  -1.93569  -0.77976
H     1.06854  -2.28897  -3.18139
H     1.29029  -3.70856  -2.15373
H    -1.32814  -2.50983  -2.90729
H    -1.03889  -3.94887  -1.91240
H    -2.01501  -2.36322  -0.30287
H     0.25890  -1.91896   1.03819
H     0.34303  -3.50441   0.23814
