20
Generated by autodE on: 2022-06-02. E = -411.475031 Ha
C     2.25907   0.61942  -0.82822
C     1.01904   0.03335  -0.24770
C     0.28629   0.43991   0.79836
F     0.53589   1.50030   1.59272
C    -1.02361  -0.30730   0.85756
C    -1.85928   0.19779  -0.36616
C    -1.03512  -0.31891  -1.58315
C     0.16596  -1.05386  -0.90316
C    -0.54004  -1.67187   0.32337
H     2.06883   1.00470  -1.84591
H     2.63858   1.45022  -0.21470
H     3.05820  -0.13594  -0.92238
H    -1.54561  -0.28174   1.82259
H    -1.97192   1.29145  -0.35350
H    -2.86652  -0.24493  -0.34483
H    -1.62196  -1.02231  -2.19344
H    -0.69146   0.49099  -2.24314
H     0.71517  -1.73773  -1.56447
H    -1.36672  -2.34869   0.05589
H     0.15374  -2.18028   1.00879
