32
Generated by autodE on: 2022-06-02. E = -1045.886096 Ha
C     2.92740   3.03932   1.13236
N     2.57858   1.64926   0.91964
C     1.39278   1.30055   0.39750
O     0.49141   2.11589   0.13861
C     1.20193  -0.13009   0.06509
O     0.02253  -0.56405  -0.31546
C    -1.18186  -0.10687  -0.13780
C    -1.48904   0.82859   0.97783
O    -0.96073   0.70927   2.06665
O    -2.43690   1.70205   0.68090
C    -2.82967   2.60341   1.73152
C    -2.24139  -0.83902  -0.85200
O    -3.42938  -0.64105  -0.66692
O    -1.74949  -1.72701  -1.71868
C    -2.70966  -2.50736  -2.44630
C     2.29665  -1.07235  -0.20159
O     3.46307  -0.84682   0.09593
O     1.88482  -2.20804  -0.76389
C     2.89377  -3.19346  -1.03285
H     2.09775   3.56582   1.62468
H     3.14605   3.55858   0.18382
H     3.81568   3.08881   1.77395
H     3.30092   0.92935   0.94225
H    -1.96708   3.20751   2.04654
H    -3.22349   2.04157   2.59009
H    -3.60908   3.24204   1.30172
H    -3.32938  -3.09645  -1.75480
H    -2.12689  -3.17119  -3.09480
H    -3.35540  -1.85372  -3.05043
H     3.63894  -2.79786  -1.73792
H     2.36727  -4.04664  -1.47520
H     3.39379  -3.49420  -0.10096
