32
Generated by autodE on: 2022-07-27. E = -1045.884189 Ha
C    -2.79187  -2.55682   2.45373
N    -1.84992  -1.71961   1.73798
C    -2.25884  -0.88120   0.77220
O    -3.43903  -0.71695   0.44224
C    -1.18470  -0.11954   0.07448
O     0.01637  -0.47133   0.34897
C     1.24336  -0.08497   0.00577
C     1.43043   1.24920  -0.55003
O     0.52678   2.07736  -0.58163
O     2.66821   1.49864  -0.97232
C     2.92762   2.83090  -1.44208
C     2.29489  -0.96087   0.52990
O     3.49115  -0.78048   0.38121
O     1.78881  -2.01473   1.19476
C     2.74058  -2.92966   1.75251
C    -1.52125   0.73791  -1.10664
O    -1.08731   0.46356  -2.20576
O    -2.37559   1.70134  -0.82550
C    -2.78096   2.54114  -1.92368
H    -2.25977  -3.08339   3.25449
H    -3.59439  -1.94760   2.89631
H    -3.25851  -3.29961   1.78605
H    -0.85428  -1.82450   1.91121
H     2.27976   3.06874  -2.29790
H     2.75834   3.56247  -0.63897
H     3.98009   2.83890  -1.74695
H     3.37068  -3.36214   0.96179
H     3.37937  -2.42304   2.49074
H     2.15140  -3.71556   2.23896
H    -1.90228   3.04509  -2.35000
H    -3.47625   3.27305  -1.49887
H    -3.27899   1.93998  -2.69709
