52
Generated by autodE on: 2022-06-02. E = -1457.364311 Ha. Imaginary frequency = -190.4 cm-1
C    -2.64674  -1.33516   3.41419
N    -1.83469  -0.36395   2.70908
C    -2.24811   0.16592   1.53828
O    -3.38278  -0.02102   1.08496
C    -1.22235   0.96629   0.80455
C    -1.51859   2.03388  -0.16781
O    -0.65984   2.61979  -0.80702
O    -2.82146   2.26050  -0.31992
C    -3.18904   3.18653  -1.35303
O    -0.00263   0.77775   1.26826
C     1.19411   1.00479   0.74884
C     1.57495   2.40684   0.41108
O     1.15538   3.34862   1.05573
O     2.47962   2.50151  -0.55249
C     2.96270   3.82149  -0.85030
C     2.25062   0.09216   1.21832
O     3.39720   0.13046   0.80199
O     1.81372  -0.80109   2.10995
C     2.74761  -1.80716   2.52563
C     0.54004  -0.51806  -1.33698
C     1.36591   0.24977  -2.31460
C     0.90829  -1.91443  -0.84354
C     0.53540  -2.86366  -2.03416
C    -1.01890  -2.80440  -2.06128
C    -1.35215  -1.86017  -0.85826
C    -0.23942  -2.25022   0.13045
C    -0.84073  -0.50989  -1.28870
F    -1.58795   0.24627  -2.12122
H    -3.66625  -0.95110   3.56178
H    -2.19517  -1.53144   4.39432
H    -2.71690  -2.28548   2.85775
H    -0.86031  -0.25981   2.97303
H    -2.76780   4.18110  -1.14793
H    -4.28407   3.22634  -1.34137
H    -2.82981   2.82941  -2.32879
H     2.13197   4.46141  -1.18000
H     3.44083   4.26397   0.03507
H     3.69309   3.69779  -1.65757
H     3.61842  -1.34715   3.01408
H     2.20574  -2.44265   3.23511
H     3.08082  -2.40003   1.66187
H     2.40983   0.33045  -1.98428
H     0.96550   1.25806  -2.47668
H     1.35963  -0.27684  -3.28641
H     1.93676  -2.03375  -0.48212
H     0.99558  -2.54340  -2.97887
H     0.89506  -3.87907  -1.81240
H    -1.41934  -2.40915  -3.00569
H    -1.46816  -3.79348  -1.89052
H    -2.39082  -1.88271  -0.51056
H    -0.22719  -1.65807   1.04771
H    -0.26780  -3.31798   0.39081
