44
Generated by autodE on: 2022-10-21. E = -1128.963001 Ha
C     3.68625  -2.48070   1.09703
O     2.59932  -1.75107   0.49842
C     2.37355  -0.52910   0.95834
O     3.01932   0.01998   1.82133
C     1.19208   0.10070   0.24189
N     1.31262   0.15025  -1.18355
C     0.16566   1.04825  -1.41088
C    -0.00186   1.54608  -2.82200
C     0.47548   2.14083  -0.36813
O     0.21296   3.31690  -0.36822
O     1.10810   1.51547   0.65577
C    -1.02083   0.23646  -0.73808
C    -2.18911   1.22281  -0.52777
C    -2.57675   1.78313   0.80837
O    -2.80662   1.54712  -1.53116
C    -1.54241  -0.99173  -1.54949
C    -2.69898  -1.62170  -0.73134
C    -1.96199  -2.28572   0.47124
C    -0.47381  -1.97941   0.18146
C    -0.46272  -2.06816  -1.35390
C    -0.26447  -0.46585   0.47570
O    -0.76000  -0.06933   1.72305
C    -0.13258  -0.61277   2.87569
H     4.63354  -1.94835   0.93363
H     3.50951  -2.60245   2.17482
H     3.70229  -3.45530   0.59752
H     2.18753   0.60615  -1.45804
H    -0.22856   0.71372  -3.50184
H    -0.81545   2.27987  -2.87606
H     0.92677   2.03272  -3.15705
H    -3.01449   0.97613   1.41566
H    -1.71217   2.15573   1.37051
H    -3.31926   2.57683   0.65221
H    -1.81211  -0.73349  -2.57940
H    -3.46234  -0.89686  -0.41709
H    -3.20868  -2.37446  -1.35001
H    -2.11319  -3.37435   0.48110
H    -2.29208  -1.89343   1.44073
H     0.23277  -2.62822   0.70977
H     0.49907  -1.84377  -1.81487
H    -0.81413  -3.05325  -1.69745
H    -0.83316  -0.48038   3.71208
H     0.08582  -1.68687   2.76664
H     0.79990  -0.07687   3.11325
