44
Generated by autodE on: 2022-10-21. E = -1128.923869 Ha. Imaginary frequency = -399.4 cm-1
C     3.79228  -2.21762   1.13503
O     2.82318  -1.43040   0.42206
C     2.36896  -0.33581   1.03251
O     2.71840   0.05105   2.12808
C     1.31565   0.30782   0.21369
N     1.45061   0.35804  -1.16821
C     0.58397   1.28344  -1.62146
C     0.22490   1.53665  -3.03128
C     0.42282   2.22720  -0.52078
O    -0.03952   3.34734  -0.48032
O     0.97262   1.60252   0.58807
C    -1.23355   0.02912  -0.55227
C    -2.21684   1.10357  -0.53146
C    -2.45310   1.93182   0.70902
O    -2.91636   1.31299  -1.53719
C    -1.46751  -1.13698  -1.51583
C    -2.63114  -1.93832  -0.85159
C    -1.95978  -2.51368   0.43304
C    -0.47435  -2.05039   0.29635
C    -0.31008  -2.11182  -1.22664
C    -0.50229  -0.53741   0.56123
O    -0.77557  -0.09087   1.82989
C    -0.33710  -0.87591   2.93628
H     4.04884  -3.05002   0.47072
H     3.35590  -2.59581   2.07053
H     4.68410  -1.61579   1.35838
H     1.78470  -0.42922  -1.71596
H     0.39509   0.64289  -3.64604
H    -0.83855   1.81686  -3.08420
H     0.81304   2.37495  -3.44068
H    -1.54274   2.15603   1.27279
H    -2.97440   2.85686   0.42791
H    -3.10501   1.34619   1.37997
H    -1.64599  -0.85694  -2.56016
H    -3.50096  -1.30337  -0.63590
H    -2.96150  -2.74436  -1.52450
H    -2.00278  -3.61201   0.45756
H    -2.42508  -2.13944   1.35473
H     0.24459  -2.61506   0.90016
H     0.67459  -1.83108  -1.60302
H    -0.52577  -3.11811  -1.61486
H    -0.38823  -0.22419   3.81865
H    -0.99769  -1.74346   3.09187
H     0.69467  -1.23023   2.81777
