43
Generated by autodE on: 2022-06-12. E = -1493.242549 Ha
C    -3.49173   3.25835  -1.42169
N    -3.26357   1.92630  -0.89348
C    -2.24578   1.65956  -0.06397
O    -1.42559   2.51053   0.29765
C    -2.14286   0.21561   0.44880
C    -2.60807   0.30955   1.92947
C    -4.07935   0.18559   2.19811
O    -1.79915   0.51341   2.81429
N    -2.97617  -0.73964  -0.29240
C    -2.40408  -2.04822   0.06875
C    -0.87683  -1.86239   0.19876
C    -0.11148  -2.08115  -1.13984
O    -0.45361  -0.89728  -1.87185
C     0.08650   0.03248  -0.91760
C     1.51329  -0.48885  -0.70773
C     2.61977   0.35115  -0.25936
C     3.96077  -0.08433  -0.30670
C     4.99261   0.74368   0.13386
C     4.71255   2.01944   0.63664
C     3.38789   2.46359   0.68918
C     2.35114   1.64324   0.24199
C     1.36204  -1.82259  -0.85902
Cl    2.46049  -3.11717  -0.54875
C    -0.69254  -0.32225   0.38629
H    -3.76583   3.96627  -0.62270
H    -2.58596   3.63841  -1.91709
H    -4.30716   3.21492  -2.15363
H    -3.94232   1.19208  -1.07014
H    -4.28942   0.47679   3.23531
H    -4.65972   0.80233   1.49668
H    -4.39415  -0.85781   2.03937
H    -2.76037  -0.59594  -1.28060
H    -2.81938  -2.37096   1.03622
H    -2.68214  -2.80227  -0.68052
H    -0.44813  -2.46841   1.00635
H    -0.35992  -2.99379  -1.69336
H    -0.00475   1.05921  -1.28172
H     4.19553  -1.07219  -0.70224
H     6.02535   0.39069   0.08220
H     5.52357   2.66432   0.98287
H     3.15776   3.45750   1.08018
H     1.32309   2.00542   0.29753
H    -0.12780  -0.03143   1.27627
