23
Generated by autodE on: 2022-06-12. E = -998.312661 Ha
Cl   -1.09692   2.24655  -0.85967
C    -1.16924   0.54203  -0.62338
C    -0.22800  -0.33751  -0.22564
C     1.17856  -0.20792   0.13214
C     1.96150   0.88954  -0.28792
C     3.30066   0.99196   0.08506
C     3.89169   0.00821   0.88670
C     3.12985  -1.08586   1.30738
C     1.79063  -1.19736   0.93079
C    -1.06143  -1.64339  -0.03492
C    -1.96092  -1.43768   1.20350
C    -2.87286  -0.54018   0.81828
C    -2.51040  -0.22171  -0.65183
O    -2.03015  -1.50049  -1.09010
H     1.51887   1.65990  -0.91869
H     3.89001   1.84686  -0.25513
H     4.94116   0.09319   1.17792
H     3.58086  -1.86038   1.93220
H     1.21055  -2.05703   1.27113
H    -0.50970  -2.58539  -0.11297
H    -1.80310  -1.90194   2.17628
H    -3.67053  -0.06158   1.38497
H    -3.29304   0.18760  -1.29927
