20
Generated by autodE on: 2022-06-12. E = -494.845975 Ha
C    -2.36646   1.79295  -0.19908
N    -1.13880   1.37749  -0.23598
C    -0.44515   0.20246  -0.00093
C    -1.01298  -1.04966   0.39803
C    -2.50494  -1.17837   0.59550
O    -0.29889  -2.06324   0.59234
C     0.99551   0.43846  -0.23311
O     1.38953   1.57623  -0.59023
N     1.84183  -0.58705  -0.05081
C     3.26642  -0.45199  -0.25817
H    -3.19350   1.14547   0.07793
H    -2.54410   2.83656  -0.46044
H    -0.42154   2.07849  -0.51230
H    -3.05519  -0.93003  -0.32674
H    -2.73034  -2.21436   0.87941
H    -2.86122  -0.50351   1.39112
H     1.40647  -1.46666   0.23794
H     3.74972  -1.41251  -0.03948
H     3.50295  -0.17088  -1.29790
H     3.70261   0.31665   0.40098
