43
Generated by autodE on: 2022-06-12. E = -1493.160830 Ha. Imaginary frequency = -311.5 cm-1
C    -2.03657   3.87231  -0.91728
N    -2.30731   2.76212  -0.03082
C    -2.69566   1.56521  -0.49789
O    -2.88067   1.35088  -1.71503
C    -2.87346   0.46256   0.48442
C    -2.88841   0.66394   1.91459
C    -3.39832  -0.41841   2.83742
O    -2.49983   1.73677   2.42775
N    -3.21641  -0.70210  -0.15880
C    -2.98040  -1.95433   0.21449
C    -0.75360  -1.85974   0.51813
C    -0.23053  -1.99291  -0.93329
O    -0.57883  -0.70693  -1.45657
C     0.11365   0.04980  -0.44870
C     1.55006  -0.54079  -0.56375
C     2.75874   0.19602  -0.21638
C     4.04860  -0.28237  -0.53427
C     5.18448   0.44204  -0.17613
C     5.06523   1.65659   0.50953
C     3.79457   2.14406   0.82919
C     2.65356   1.42681   0.46696
C     1.30151  -1.82964  -0.87924
Cl    2.35485  -3.18816  -0.99800
C    -0.49787  -0.54331   0.83134
H    -2.93012   4.15917  -1.49562
H    -1.23788   3.62715  -1.63689
H    -1.71583   4.73453  -0.31923
H    -2.18821   2.82231   0.98333
H    -4.29763  -0.91602   2.44573
H    -2.62377  -1.18578   2.99603
H    -3.62411   0.04238   3.80805
H    -3.24165  -0.52338  -1.17055
H    -3.14507  -2.72015  -0.54540
H    -3.07428  -2.24607   1.25366
H    -0.77603  -2.69434   1.21786
H    -0.61253  -2.81639  -1.54557
H     0.02242   1.12655  -0.61578
H     4.15897  -1.22294  -1.07311
H     6.17297   0.05591  -0.43637
H     5.95804   2.22027   0.78987
H     3.68875   3.09099   1.36381
H     1.67110   1.82287   0.73006
H    -0.38573  -0.09205   1.81478
