36
Generated by autodE on: 2022-10-20. E = -774.657337 Ha
C    -1.88891   2.53301   0.46595
O    -1.19904   1.58992  -0.34644
C    -0.60580   0.53545   0.34630
O     0.43407   1.05008   1.16977
N     1.64188   0.24320   0.96381
C     2.73941   1.08047   1.40015
C     1.61099  -0.14150  -0.46877
C     2.01962   0.99447  -1.42000
C     2.51074  -1.35622  -0.67654
C     0.09781  -0.44631  -0.65261
F    -0.25581  -0.17609  -1.96861
C    -0.46536  -1.81816  -0.23111
C    -1.93150  -1.89095  -0.71801
C    -2.66884  -0.86913   0.19989
C    -1.55373  -0.38022   1.14888
C    -0.67790  -1.64196   1.28596
H    -2.24398   3.32851  -0.20317
H    -1.22133   2.97443   1.22350
H    -2.75728   2.07907   0.97134
H     2.65933   1.23793   2.48589
H     2.77016   2.06633   0.90308
H     3.67941   0.54611   1.20186
H     1.40073   1.89042  -1.27029
H     3.07392   1.26118  -1.26252
H     1.90658   0.67186  -2.46269
H     2.36785  -1.75525  -1.69202
H     3.56891  -1.07281  -0.57154
H     2.29331  -2.15155   0.04890
H     0.15257  -2.66495  -0.55119
H    -2.02961  -1.65744  -1.78495
H    -2.30897  -2.91160  -0.56155
H    -3.11558  -0.04183  -0.36773
H    -3.47050  -1.35160   0.77704
H    -1.90063   0.07810   2.08341
H    -1.23018  -2.48708   1.72262
H     0.24660  -1.47887   1.84945
