15
Generated by autodE on: 2022-10-20. E = -287.903802 Ha
C    -1.36585   1.21810  -0.46690
C    -0.67930   0.00572   0.06965
C    -1.49744  -1.07296   0.69871
N     0.62411  -0.01944  -0.05662
C     1.49806  -1.11014   0.39563
O     1.27860   0.95708  -0.61446
H    -2.45216   1.14968  -0.32465
H    -1.14387   1.34328  -1.54036
H    -0.98825   2.12697   0.03194
H    -2.22724  -1.45520  -0.03574
H    -2.08644  -0.64731   1.52903
H    -0.92106  -1.91984   1.08451
H     2.20540  -0.68589   1.12103
H     0.94917  -1.93937   0.84815
H     2.05871  -1.46344  -0.48014
