21
Generated by autodE on: 2022-10-20. E = -486.709704 Ha
C     2.77918  -0.27599   0.68349
O     1.72421  -1.08133   0.16013
C     0.58775  -0.44490  -0.20206
C     0.20527   0.84725  -0.20904
F     0.89424   1.93389   0.20903
C    -1.27985   0.90967  -0.48892
C    -2.00025   0.32987   0.77318
C    -1.56443  -1.16632   0.75784
C    -0.66016  -1.25306  -0.51562
C    -1.40283  -0.28427  -1.45825
H     3.60882  -0.95620   0.91662
H     3.11428   0.46779  -0.05733
H     2.46179   0.24294   1.60214
H    -1.64781   1.88633  -0.82945
H    -1.69507   0.85800   1.68790
H    -3.09161   0.43136   0.67267
H    -2.43125  -1.83631   0.65507
H    -1.01336  -1.46485   1.66129
H    -0.46169  -2.27067  -0.87630
H    -2.44562  -0.58315  -1.64639
H    -0.87898  -0.12149  -2.41097
