36
Generated by autodE on: 2022-10-20. E = -774.587823 Ha. Imaginary frequency = -317.7 cm-1
C    -1.98385   2.52277   0.22754
O    -1.36433   1.53375  -0.59338
C    -0.87197   0.44952   0.03632
O     0.84529   1.50494   1.04407
N     1.83923   0.69047   0.77386
C     2.49622   0.03866   1.90517
C     1.92432   0.22156  -0.48816
C     1.81154   1.24157  -1.59649
C     2.84099  -0.93660  -0.76308
C    -0.15285  -0.52557  -0.68000
F    -0.22600  -0.51554  -2.05647
C    -0.48204  -1.85442  -0.02185
C    -1.97893  -2.14029  -0.35827
C    -2.73587  -1.04360   0.45167
C    -1.57934  -0.26477   1.16649
C    -0.60668  -1.42037   1.45093
H    -2.19958   3.38113  -0.42188
H    -1.30699   2.83212   1.03776
H    -2.92707   2.15028   0.65796
H     2.21525   0.60353   2.80065
H     3.58815   0.07626   1.77939
H     2.20125  -1.01341   2.03138
H     1.04842   1.99793  -1.38681
H     2.78970   1.74766  -1.68943
H     1.59040   0.76478  -2.55740
H     2.59051  -1.36096  -1.74595
H     3.89590  -0.61079  -0.80309
H     2.75542  -1.73442  -0.01349
H     0.20881  -2.67822  -0.24591
H    -2.16333  -2.07478  -1.43979
H    -2.26109  -3.15117  -0.02798
H    -3.33769  -0.37933  -0.18486
H    -3.40483  -1.48524   1.20538
H    -1.89467   0.34886   2.01849
H    -1.06542  -2.20079   2.07552
H     0.32766  -1.09812   1.91263
