18
Generated by autodE on: 2022-10-26. E = -472.698041 Ha
C    -1.22320  -1.63610  -0.48941
N    -0.60670  -1.62735   0.80941
N    -0.26750  -0.51215   1.29194
C     0.22758  -0.52353   2.68150
N    -0.39934   0.71017   0.78826
C     0.01974   0.99082  -0.47510
O    -0.34678   1.97706  -1.10247
O     0.97722   0.15023  -0.94393
C     1.47639   0.42532  -2.25569
H    -0.46157  -1.66060  -1.28437
H    -1.82709  -2.54883  -0.56364
H    -1.85312  -0.74528  -0.65657
H    -0.40319   0.15715   3.26676
H     1.25910  -0.14841   2.67423
H     0.17468  -1.54459   3.06978
H     1.95521   1.41484  -2.29180
H     0.66618   0.38681  -2.99895
H     2.21596  -0.35632  -2.46804
