18
Generated by autodE on: 2022-10-20. E = -472.704668 Ha
C    -2.42115   1.77377  -0.14531
N    -2.46201   0.34162   0.00114
N    -1.33369  -0.23266   0.00341
C    -1.39090  -1.70918   0.15563
N    -0.21788   0.44141  -0.19141
C     0.98304  -0.15876   0.08474
O     1.22597  -1.15936   0.74715
O     1.96316   0.59236  -0.46610
C     3.30260   0.16441  -0.21273
H    -3.44965   2.15055  -0.10088
H    -1.81182   2.24482   0.64456
H    -1.96010   2.06084  -1.10625
H    -0.74972  -2.17023  -0.60312
H    -1.03053  -1.97862   1.15296
H    -2.43634  -1.99686   0.02053
H     3.47699  -0.84448  -0.61611
H     3.95284   0.88708  -0.72087
H     3.51704   0.16206   0.86675
