17
Generated by autodE on: 2022-10-20. E = -881.716873 Ha
C     2.82197   0.38686  -0.29462
O     1.74152   1.14319   0.26038
C     0.54227   0.56280   0.34609
C    -0.00339  -0.62577   0.02500
Cl    0.61124  -2.02918  -0.78264
C    -1.51283  -0.45047   0.31620
C    -2.07853   0.55309  -0.71771
C    -1.53204   1.72677  -0.38692
C    -0.65176   1.41261   0.84502
O    -1.44192   0.39372   1.48152
H     3.70511   1.03651  -0.25269
H     2.61181   0.11425  -1.33951
H     3.00413  -0.52342   0.29645
H    -2.07691  -1.37224   0.49616
H    -2.73018   0.29539  -1.55193
H    -1.60717   2.69845  -0.87339
H    -0.39287   2.23757   1.51794
