35
Generated by autodE on: 2022-10-20. E = -1354.395037 Ha. Imaginary frequency = -327.3 cm-1
C     3.18912   0.09641  -3.11912
O     2.77993  -0.17331  -1.77620
C     1.87249   0.68560  -1.24461
O     1.51673   1.70726  -1.82638
N     1.47955   0.36582   0.01065
N     1.58882  -0.88080   0.50591
C     1.99482  -0.91202   1.91615
N     0.80356  -1.84121   0.13936
C     0.56195  -2.02134  -1.27644
C    -1.11654  -0.67324   0.62887
Cl   -1.58484  -1.46397   2.11939
C    -2.11897  -0.69139  -0.54116
C    -3.31479   0.19735  -0.12330
C    -2.84301   1.44885  -0.14004
C    -1.36605   1.31128  -0.57490
O    -1.44308   0.18837  -1.45572
C    -0.66743   0.66204   0.63856
O    -0.41335   1.32103   1.76945
C     0.08899   2.65447   1.64746
H     3.66493   1.08493  -3.19628
H     2.32992   0.05293  -3.80555
H     3.91221  -0.68695  -3.37747
H     1.20851  -0.46788   2.54194
H     2.91808  -0.32987   2.02090
H     2.16252  -1.95368   2.20898
H     1.47225  -2.45711  -1.71974
H    -0.25067  -2.75033  -1.37953
H     0.29715  -1.11219  -1.82790
H    -2.34029  -1.66429  -0.99138
H    -4.29971  -0.16920   0.16311
H    -3.33228   2.38343   0.13092
H    -0.87233   2.16640  -1.04136
H    -0.67952   3.32753   1.23719
H     0.97742   2.65925   0.99802
H     0.35724   2.97987   2.65994
