36
Generated by autodE on: 2022-06-17. E = -784.525155 Ha
C    -2.99410  -1.05320  -0.40330
C    -2.10322  -0.11946   0.44442
C    -2.92680   0.38137   1.63662
C    -1.63687   1.01277  -0.45190
C    -2.51203   2.10769  -0.79032
N    -3.24959   2.97104  -1.03262
N    -0.45779   0.95712  -0.94346
C     0.18346  -0.28375  -0.43864
C     0.09978  -1.25454  -1.54706
N     0.04936  -2.00289  -2.43210
C     1.66117  -0.06119  -0.12409
C     2.53770  -1.15185  -0.03917
C     3.87273  -0.95679   0.32222
C     4.34599   0.33020   0.59558
C     3.47598   1.42025   0.50312
C     2.13937   1.22649   0.14458
C    -0.69741  -0.74053   0.81594
C    -0.72388  -2.25365   1.02081
C    -0.13142  -0.08878   2.08483
H    -2.46791  -1.47016  -1.27183
H    -3.36059  -1.88329   0.21728
H    -3.86820  -0.49510  -0.77195
H    -3.11565  -0.44735   2.33501
H    -2.43090   1.19386   2.18338
H    -3.90223   0.75218   1.28705
H     2.18025  -2.16066  -0.25553
H     4.54575  -1.81485   0.38545
H     5.39085   0.48314   0.87541
H     3.83734   2.43016   0.71047
H     1.46443   2.07971   0.07655
H    -1.39521  -2.50082   1.85706
H    -1.06503  -2.80485   0.13547
H     0.28165  -2.61707   1.28098
H    -0.76524  -0.34078   2.94536
H     0.87710  -0.46951   2.29283
H    -0.07326   1.00619   2.00779
