18
Generated by autodE on: 2022-06-17. E = -235.968071 Ha
C    -1.56168  -1.02072   0.63619
C    -0.67607   0.03361   0.01676
C    -1.48295   1.17064  -0.56284
C     0.67607  -0.03358  -0.01673
C     1.48292  -1.17060   0.56292
C     1.56171   1.02066  -0.63629
H    -2.25906  -1.42782  -0.11802
H    -2.19504  -0.57500   1.42409
H    -1.01900  -1.86366   1.08025
H    -2.11584   1.62872   0.21832
H    -2.17937   0.79324  -1.33323
H    -0.88178   1.96777  -1.01628
H     2.17892  -0.79322   1.33370
H     2.11629  -1.62836  -0.21805
H     0.88173  -1.96797   1.01589
H     1.01909   1.86402  -1.07961
H     2.25980   1.42716   0.11758
H     2.19429   0.57496  -1.42482
