36
Generated by autodE on: 2022-06-17. E = -784.426922 Ha. Imaginary frequency = -321.1 cm-1
C    -3.45890  -0.56989   0.48344
C    -2.07805  -0.18505   0.97580
C    -2.03508   1.06194   1.83437
C    -1.51705   0.87638  -0.98233
C    -2.42848   1.83492  -1.43959
N    -3.28159   2.59757  -1.67348
N    -0.45240   0.45076  -1.40241
C     0.55899  -0.35525  -1.07265
C     0.59647  -1.62368  -1.70784
N     0.62177  -2.68101  -2.20026
C     1.71219   0.15546  -0.33413
C     2.81256  -0.68390  -0.06780
C     3.87546  -0.22473   0.70843
C     3.86667   1.07644   1.22288
C     2.78191   1.91869   0.95226
C     1.71224   1.46766   0.18096
C    -1.09192  -1.15744   1.10465
C    -1.32077  -2.55624   0.59757
C     0.04895  -0.99071   2.06966
H    -3.43302  -1.23936  -0.38715
H    -4.00658  -1.09820   1.28557
H    -4.05218   0.31710   0.21623
H    -2.36549   0.82558   2.86274
H    -1.02772   1.49404   1.90629
H    -2.71277   1.83688   1.44542
H     2.82695  -1.70244  -0.46062
H     4.71823  -0.88916   0.91211
H     4.70257   1.43394   1.82807
H     2.76900   2.93806   1.34456
H     0.87440   2.13571  -0.02478
H    -1.96554  -3.11795   1.30096
H    -1.82181  -2.58225  -0.38055
H    -0.37679  -3.11278   0.51014
H    -0.28178  -1.26910   3.08953
H     0.89443  -1.64560   1.81459
H     0.42321   0.03954   2.12774
