20
Generated by autodE on: 2022-05-28. E = -589.893238 Ha
C     3.01841   1.78178   0.61228
O     1.83395   1.02323   0.34957
C     2.01970  -0.27159   0.02059
O     3.12747  -0.79138  -0.05724
N     0.89340  -1.01115  -0.23353
O    -0.20652  -0.20736  -0.06822
C    -1.37456  -0.67890  -0.25401
C    -1.60788  -2.06931  -0.64996
C    -2.46918   0.32406  -0.01892
C    -2.06562   1.71107   0.37818
O    -3.62274  -0.04259  -0.16304
H     3.67310   1.80450  -0.27148
H     2.67970   2.79668   0.85357
H     3.57337   1.35919   1.46304
H    -1.16430  -2.74296   0.10482
H    -2.68024  -2.26007  -0.76014
H    -1.07088  -2.27583  -1.59267
H    -2.96327   2.32593   0.51586
H    -1.41654   2.15071  -0.39578
H    -1.47579   1.68206   1.30799
