34
Generated by autodE on: 2022-05-28. E = -898.425968 Ha. Imaginary frequency = -282.0 cm-1
C    -1.17292   3.37158  -0.23265
O    -0.39090   2.30516   0.30451
C     0.40704   1.64535  -0.56538
O     0.47778   1.92430  -1.75703
N     1.03868   0.65043   0.13019
O     1.83882  -0.01567  -0.76636
C     2.27682  -1.19766  -0.45340
C     3.00950  -1.86039  -1.57017
C     2.60144  -1.66559   0.96079
C     2.34854  -0.80410   2.15804
O     3.12508  -2.76454   1.05170
C     0.33335  -2.27118  -0.32408
C    -0.58660  -1.47433  -0.10843
C    -1.71212  -0.62529   0.06990
C    -2.17445  -0.30117   1.36316
C    -3.27141   0.54285   1.51750
C    -3.91927   1.07113   0.39439
C    -3.46503   0.75405  -0.89070
C    -2.36594  -0.08496  -1.05921
H    -0.52614   4.19990  -0.56133
H    -1.78140   3.02865  -1.08075
H    -1.82640   3.70883   0.58085
H     4.07355  -1.56986  -1.52780
H     2.58813  -1.55001  -2.53444
H     2.96268  -2.95064  -1.46371
H     1.26694  -0.71351   2.33095
H     2.72286   0.21643   1.99623
H     2.83603  -1.27144   3.02392
H     0.74721  -3.25285  -0.50926
H    -1.65909  -0.70969   2.23417
H    -3.62371   0.79369   2.52037
H    -4.77760   1.73452   0.52135
H    -3.96675   1.17017  -1.76688
H    -1.99608  -0.32417  -2.05737
