94
Generated by autodE on: 2022-07-07. E = -2077.439430 Ha
C     9.66734 -10.08310  -4.69244
N     8.75450 -11.20655  -4.72056
C     8.29564 -11.77478  -3.59272
O     8.69750 -11.42093  -2.47817
C     7.31717 -12.95749  -3.82409
C     6.31050 -13.15817  -2.69555
C     6.64843 -14.24557  -1.95072
C     6.09127 -14.78888  -0.59811
C     6.19286 -13.73279   0.52215
C     5.58007 -14.00194   1.76036
C     5.69557 -13.12103   2.83512
C     6.44558 -11.94583   2.70644
C     7.07735 -11.67724   1.49236
C     6.95176 -12.56270   0.41450
C     6.93863 -16.01116  -0.10644
C     6.69191 -17.30790  -0.58932
C     7.41581 -18.40988  -0.12471
C     8.39763 -18.24861   0.85350
C     8.65000 -16.96803   1.35180
C     7.93230 -15.87000   0.87689
C     4.61599 -15.35151  -0.71076
C     3.39096 -14.46971  -0.49166
C     3.10065 -13.42812  -1.55659
C     4.08832 -12.25305  -1.57272
C     5.11295 -12.18035  -2.74291
C     5.65463 -10.72732  -2.79244
C     5.92398 -10.07981  -4.00779
C     6.43946  -8.78057  -4.04130
C     6.70240  -8.09586  -2.85343
C     6.43380  -8.72434  -1.63395
C     5.91103 -10.01832  -1.60723
C     4.29102 -12.47756  -4.02476
C     4.42121 -13.67100  -4.74686
C     3.58527 -13.95701  -5.83216
C     2.59414 -13.05236  -6.21661
C     2.44612 -11.86036  -5.49823
C     3.28260 -11.58065  -4.41631
C     7.78620 -15.02316  -2.67298
C     7.24045 -16.31343  -3.33714
O     7.92195 -17.18264  -3.84730
O     5.91375 -16.29047  -3.47008
C     5.30880 -17.31543  -4.26488
C     9.08383 -15.22275  -1.87221
C     9.65287 -14.09397  -1.26268
C    10.84719 -14.18170  -0.54710
C    11.51337 -15.40592  -0.43407
C    10.96872 -16.53064  -1.05561
C     9.77000 -16.44113  -1.76902
N     8.01320 -14.22570  -3.89351
C     9.26963 -14.33916  -4.59684
H    10.57404 -10.33230  -4.12048
H     9.95420  -9.82833  -5.72021
H     9.19913  -9.20197  -4.22314
H     8.32676 -11.47202  -5.60119
H     6.81329 -12.75396  -4.78345
H     5.01839 -14.92688   1.89632
H     5.20144 -13.35626   3.78105
H     6.53878 -11.25381   3.54679
H     7.67283 -10.76923   1.36927
H     7.44630 -12.31920  -0.52154
H     5.91693 -17.48022  -1.33198
H     7.19869 -19.40133  -0.52974
H     8.96097 -19.10902   1.22229
H     9.42063 -16.81577   2.11105
H     8.16774 -14.88511   1.27413
H     4.52773 -15.83733  -1.68965
H     4.54227 -16.15508   0.03327
H     3.43229 -13.98307   0.49485
H     2.53339 -15.16302  -0.44426
H     3.04876 -13.91878  -2.53913
H     2.09163 -13.02433  -1.37522
H     3.51409 -11.31935  -1.63784
H     4.61741 -12.20623  -0.61522
H     5.73635 -10.59415  -4.94981
H     6.64186  -8.30767  -5.00518
H     7.10905  -7.08206  -2.87714
H     6.62946  -8.20478  -0.69261
H     5.71548 -10.47850  -0.64166
H     5.16646 -14.40577  -4.45161
H     3.71333 -14.89979  -6.37031
H     1.93944 -13.27262  -7.06315
H     1.67117 -11.14314  -5.78005
H     3.14444 -10.64807  -3.86653
H     4.23137 -17.11555  -4.24203
H     5.52166 -18.30757  -3.84125
H     5.68270 -17.26895  -5.29791
H     9.16342 -13.12886  -1.36131
H    11.25873 -13.28547  -0.07586
H    12.44705 -15.48039   0.12874
H    11.47192 -17.49761  -0.97840
H     9.36652 -17.33700  -2.22924
H     9.16290 -13.91644  -5.60706
H    10.11673 -13.83072  -4.09740
H     9.53170 -15.40025  -4.70712
