60
Generated by autodE on: 2022-07-07. E = -1236.782414 Ha
C    -0.13508   5.12467  10.10547
C     0.35556   4.44341   9.23221
C     1.13972   4.09040   8.04416
C     1.94463   2.80367   8.28869
C     3.29510   2.67747   7.93948
C     3.97393   1.47044   8.14747
C     3.31373   0.37524   8.70789
C     1.96397   0.49294   9.05987
C     1.28939   1.69619   8.85071
C     0.24151   3.88839   6.80701
C    -1.13698   4.13124   6.83628
C    -1.91698   3.96637   5.68540
C    -1.32752   3.55808   4.48752
C     0.05026   3.31299   4.44902
C     0.82503   3.47480   5.59839
C     2.05215   5.34603   7.82970
C     1.33492   6.71190   7.83674
C     1.17563   7.46605   9.18868
C    -0.21142   7.48968   9.86402
C    -0.50582   6.32238  10.86656
C     0.36560   6.49164  12.12705
C     1.43507   5.63607  12.41709
C     2.22232   5.83644  13.55740
C     1.95131   6.89803  14.42268
C     0.88390   7.75877  14.14020
C     0.09851   7.55492  13.00483
C    -1.98232   6.25699  11.29064
C    -2.86253   7.33602  11.14136
C    -4.18934   7.23751  11.57841
C    -4.65409   6.06055  12.16831
C    -3.78073   4.97726  12.32149
C    -2.45906   5.07803  11.88627
H     3.83221   3.51615   7.49688
H     5.02763   1.39133   7.86887
H     3.84579  -0.56493   8.87136
H     1.43557  -0.35600   9.50057
H     0.23511   1.78255   9.12538
H    -1.60738   4.45318   7.76640
H    -2.99150   4.16026   5.73060
H    -1.93535   3.42903   3.58886
H     0.52410   2.99041   3.51866
H     1.89710   3.27143   5.55662
H     2.56910   5.21924   6.86717
H     2.82820   5.33923   8.61105
H     1.92975   7.36478   7.17920
H     0.35328   6.62037   7.34197
H     1.93453   7.11119   9.90626
H     1.43177   8.51922   8.99474
H    -0.32561   8.43572  10.41335
H    -0.99293   7.47615   9.08823
H     1.65677   4.80494  11.74609
H     3.05158   5.15597  13.76596
H     2.56485   7.05518  15.31295
H     0.65939   8.59216  14.81041
H    -0.73671   8.22829  12.80136
H    -2.52377   8.26701  10.68721
H    -4.86138   8.09003  11.45304
H    -5.69018   5.98511  12.50671
H    -4.13174   4.04987  12.78068
H    -1.78034   4.23033  12.00953
