34
Generated by autodE on: 2022-07-07. E = -840.573391 Ha
C     5.65859  -0.53113   0.08113
N     4.30183  -0.03692   0.01616
C     3.20424  -0.83082   0.15283
O     3.31322  -2.05551   0.35281
C     1.96512  -0.04997   0.04254
N     0.70500  -0.48713   0.07404
C     0.44138  -1.94221   0.20490
C    -0.41397   0.30782  -0.01028
C    -0.32385   1.74353  -0.07697
O     0.69460   2.44121  -0.06478
O    -1.55551   2.31929  -0.15944
C    -1.58518   3.74430  -0.22063
C    -1.76237  -0.32857  -0.03911
C    -2.53583  -0.41491   1.12999
C    -3.80987  -0.98749   1.10127
C    -4.32927  -1.48152  -0.09983
C    -3.57090  -1.39512  -1.27163
C    -2.29817  -0.81902  -1.24112
H     6.24598   0.03300   0.82277
H     6.16681  -0.44774  -0.89427
H     5.63814  -1.58700   0.37448
H     4.16267   0.95167  -0.16445
H     2.06915   1.02392  -0.07341
H     1.38932  -2.45516   0.36677
H    -0.23821  -2.10392   1.04831
H    -0.03887  -2.30066  -0.71235
H    -1.13485   4.19002   0.67953
H    -2.64449   4.02281  -0.28373
H    -1.04837   4.11438  -1.10764
H    -2.12910  -0.02741   2.06708
H    -4.39915  -1.04838   2.01947
H    -5.32544  -1.92999  -0.12312
H    -3.97319  -1.77404  -2.21430
H    -1.70792  -0.74578  -2.15776
