19
Generated by autodE on: 2022-06-18. E = -664.755150 Ha
N     4.33207  -1.45698   0.23075
C     3.34025  -0.84553   0.13649
C     2.17354  -0.09193   0.02042
O     0.92428  -0.72608   0.11323
C     0.00298   0.17988  -0.02643
C    -1.40288  -0.12587   0.01545
C    -2.34239   0.91306  -0.14216
C    -3.70099   0.61608  -0.10207
C    -4.12464  -0.70419   0.09330
C    -3.19029  -1.73621   0.24985
C    -1.82871  -1.45561   0.21224
O     0.48973   1.36779  -0.20437
C     1.98569   1.27801  -0.18631
O     2.63897   2.27782  -0.33563
H    -1.99953   1.93744  -0.29333
H    -4.43473   1.41507  -0.22321
H    -5.19253  -0.93156   0.12391
H    -3.52829  -2.76297   0.40146
H    -1.09283  -2.25177   0.33240
