33
Generated by autodE on: 2022-06-18. E = -935.417655 Ha. Imaginary frequency = -463.5 cm-1
C    -0.85439  -1.44607  -1.90128
C    -0.89681  -1.32282  -0.39220
C    -0.31368  -2.50442   0.35274
C    -1.97632  -0.66501   0.24883
C    -3.09722  -0.01041  -0.43239
O    -4.13802   0.27851   0.14205
C    -0.89332   1.22763   1.09940
C    -1.60265   1.63702   2.24367
N    -2.23003   1.97420   3.16484
O     0.23135   0.47297   1.21168
C     0.57535   0.16592  -0.06295
C     1.89891  -0.38959  -0.32685
C     2.44242  -0.31526  -1.62080
C     3.68885  -0.88480  -1.87948
C     4.39470  -1.52756  -0.85723
C     3.85331  -1.59895   0.43159
C     2.60685  -1.03753   0.70076
O     0.10462   1.15293  -0.88387
C    -0.89610   1.85185  -0.20855
O    -1.56287   2.71295  -0.72387
H    -1.55062  -2.23913  -2.22055
H     0.15123  -1.74337  -2.23159
H    -1.12941  -0.52001  -2.42082
H    -0.20394  -2.29569   1.42656
H     0.66088  -2.80179  -0.05802
H    -0.99428  -3.36572   0.24307
H    -2.18841  -0.92206   1.29010
H    -2.96840   0.22211  -1.51124
H     1.89184   0.19165  -2.41374
H     4.11203  -0.82378  -2.88418
H     5.37058  -1.97247  -1.06408
H     4.40557  -2.09616   1.23164
H     2.18186  -1.09312   1.70348
