23
Generated by autodE on: 2022-06-19. E = -351.515970 Ha
C     1.13142  -0.21003  -2.89984
C     1.17622   0.88205  -2.10911
C     1.67466   2.20699  -2.63119
C     0.76785   0.88135  -0.69512
C    -0.00002  -0.04712  -0.07478
C    -0.35049   0.01401   1.32894
C    -1.11592  -0.86926   2.01911
C    -1.38782  -0.66966   3.48329
C    -1.74789  -2.09461   1.42251
H     1.42767  -0.15520  -3.95112
H     0.80696  -1.18469  -2.52467
H     0.90263   2.98824  -2.52373
H     1.96642   2.14760  -3.68955
H     2.54714   2.54945  -2.04823
H     1.11295   1.73829  -0.10340
H    -0.38640  -0.88646  -0.66136
H     0.05521   0.87073   1.88062
H    -2.47397  -0.59900   3.67331
H    -0.90577   0.23738   3.87644
H    -1.03221  -1.53649   4.06887
H    -2.84328  -2.06354   1.55960
H    -1.40003  -2.99934   1.95179
H    -1.54096  -2.22363   0.35241
