24
Generated by autodE on: 2022-07-27. E = -443.787630 Ha
C    -0.22375  -3.32430  -0.45080
N    -0.31745  -1.98613  -0.54964
C    -0.87076  -1.50811  -1.83560
C    -0.02967  -1.11307   0.45240
C     0.28738  -1.73613   1.77203
C     0.08430   0.32825   0.25531
C    -0.29547   1.21343   1.29890
C    -0.17636   2.59504   1.16778
C     0.32791   3.16065  -0.01067
C     0.72577   2.30964  -1.04700
C     0.61920   0.92441  -0.91618
H     0.21645  -3.78238   0.42842
H    -0.59044  -3.92323  -1.27997
H    -1.62521  -2.23047  -2.16866
H    -0.08071  -1.44318  -2.59414
H    -1.34404  -0.53123  -1.70664
H     1.21832  -2.33837   1.72731
H     0.42737  -0.98036   2.55340
H    -0.50830  -2.43867   2.09192
H    -0.71261   0.80325   2.22077
H    -0.49152   3.24006   1.99244
H     0.41836   4.24435  -0.11398
H     1.14647   2.72719  -1.96582
H     0.99243   0.29465  -1.72342
