24
Generated by autodE on: 2022-06-19. E = -443.787628 Ha
C    -3.26776   0.78964   0.09566
N    -2.07649   0.18330  -0.05548
C    -2.16285  -1.26738  -0.33060
C    -0.87583   0.82167  -0.05457
C    -0.94491   2.31247  -0.00004
C     0.40539   0.12558   0.00415
C     0.62287  -1.06640   0.74322
C     1.87402  -1.68301   0.78311
C     2.96849  -1.12910   0.11093
C     2.78629   0.06309  -0.60200
C     1.53671   0.67637  -0.65462
H    -4.16488   0.19062  -0.03560
H    -3.32150   1.84256   0.35095
H    -1.28490  -1.60159  -0.88966
H    -2.24651  -1.83241   0.60602
H    -3.06067  -1.44402  -0.93403
H    -1.39075   2.66629   0.95248
H    -1.59166   2.72022  -0.80286
H     0.04897   2.76712  -0.08140
H    -0.18998  -1.49921   1.32578
H     1.99790  -2.59921   1.36690
H     3.94800  -1.61112   0.14916
H     3.62738   0.51595  -1.13389
H     1.42210   1.59237  -1.23768
