47
Generated by autodE on: 2022-06-19. E = -795.311182 Ha. Imaginary frequency = -288.3 cm-1
C     3.16111   2.65485   0.36565
C     2.72249   1.59116  -0.35389
C     2.79962   1.60680  -1.86123
C     2.14079   0.43250   0.29920
C     1.64300  -0.67872  -0.32961
C     1.07584  -1.81254   0.32243
C     0.59534  -2.96545  -0.30497
C     0.85521  -3.20362  -1.77874
C     0.49846  -4.23387   0.51545
C    -1.65091  -2.62991  -0.45784
N    -1.74846  -1.27302  -0.49216
C    -1.82231  -0.69534  -1.84080
C    -1.55530  -0.51103   0.61571
C    -1.73860  -1.20619   1.93744
C    -1.38337   0.93886   0.58581
C    -1.87000   1.72261   1.66740
C    -1.66948   3.09854   1.72739
C    -0.96575   3.76182   0.71249
C    -0.47293   3.01634  -0.36012
C    -0.66591   1.63544  -0.42144
H     3.09968   2.66305   1.45856
H     3.58658   3.53715  -0.12029
H     3.39310   0.75925  -2.24236
H     3.25374   2.53810  -2.22863
H     1.79669   1.51314  -2.31006
H     2.08981   0.47327   1.39427
H     1.67868  -0.70408  -1.42297
H     1.07328  -1.79458   1.41744
H     1.90858  -3.50169  -1.93947
H     0.66784  -2.31482  -2.39636
H     0.22532  -4.01866  -2.16547
H     0.25700  -4.02141   1.56802
H     1.46522  -4.77206   0.49704
H    -0.26013  -4.92799   0.11930
H    -1.92910  -3.14565  -1.37537
H    -1.87839  -3.13334   0.47533
H    -0.82007  -0.56395  -2.26866
H    -2.38925  -1.38461  -2.47638
H    -2.33758   0.27014  -1.81386
H    -2.78768  -1.53201   2.08166
H    -1.11494  -2.10536   2.02310
H    -1.46648  -0.54983   2.77059
H    -2.43655   1.24426   2.46700
H    -2.07236   3.66181   2.57307
H    -0.80333   4.84094   0.76258
H     0.09543   3.50645  -1.15417
H    -0.22312   1.09751  -1.25118
