21
Generated by autodE on: 2022-05-28. E = -499.581905 Ha
C    -2.72198   0.70082   0.58984
C    -1.81582  -0.44831   0.22457
O    -2.22126  -1.61215   0.25449
C    -0.44510  -0.10225  -0.15584
C     0.63991  -0.90434  -0.28180
C     0.83511  -2.36225  -0.12613
C     1.81417   0.07229  -0.53173
C     2.05112   0.82525   0.79583
C     0.98898   1.62650   0.92394
C     0.11959   1.33526  -0.31953
O     1.14377   1.08537  -1.30021
H    -2.88532   1.34241  -0.29205
H    -2.25219   1.33338   1.36104
H    -3.68657   0.32096   0.95087
H     1.23954  -2.79223  -1.05927
H     1.59726  -2.54976   0.65146
H    -0.09528  -2.87843   0.13485
H     2.68862  -0.33940  -1.04781
H     2.88781   0.65586   1.47248
H     0.71761   2.30100   1.73544
H    -0.57697   2.11460  -0.64368
