34
Generated by autodE on: 2022-07-27. E = -674.977576 Ha
C     1.74973   2.33706   1.36881
C     1.29328   1.09125   0.66744
N    -0.04225   0.88644   0.65236
C    -0.79299  -0.24159   0.55730
C    -0.16063  -1.55178   0.87402
C    -2.19813  -0.08683   0.24745
C    -2.74047   1.15240  -0.19726
C    -4.10576   1.30883  -0.42830
C    -4.98919   0.23520  -0.26653
C    -4.47152  -1.00636   0.12640
C    -3.11124  -1.16947   0.37427
C     2.24173   0.22793  -0.00405
C     3.61430   0.26338   0.36138
C     4.56776  -0.48136  -0.32898
C     4.19969  -1.27968  -1.41974
C     2.85528  -1.31124  -1.81129
C     1.89126  -0.58260  -1.11780
H     2.57157   2.83303   0.82948
H     0.91468   3.05122   1.46529
H     2.11041   2.13513   2.39491
H    -0.58617   1.73836   0.81649
H    -0.88130  -2.22725   1.35507
H     0.25140  -2.08495  -0.00469
H     0.68597  -1.40084   1.56314
H    -2.08454   2.00217  -0.39891
H    -4.48089   2.27964  -0.76310
H    -6.05677   0.35755  -0.46189
H    -5.14002  -1.86370   0.24216
H    -2.74923  -2.15156   0.67945
H     3.92834   0.87314   1.21019
H     5.61280  -0.44030  -0.01051
H     4.94874  -1.86415  -1.95865
H     2.55222  -1.91008  -2.67431
H     0.85974  -0.59940  -1.47049
