40
Generated by autodE on: 2022-06-17. E = -753.593355 Ha. Imaginary frequency = -356.8 cm-1
C     1.59741   2.52701   0.24354
C     1.22144   1.06773   0.15021
C     2.29582   0.16286  -0.30725
C     3.52463   0.09572   0.38329
C     4.56952  -0.70298  -0.08112
C     4.42390  -1.45067  -1.25625
C     3.22253  -1.37322  -1.96814
C     2.17746  -0.57012  -1.50772
C     0.84852   0.47530   2.41651
C    -0.42382  -0.04638   2.43069
C    -0.86259  -0.25109   0.09697
C    -0.28646  -1.63283   0.00502
C    -2.31664  -0.06444  -0.04243
C    -2.93604   1.18787   0.19343
C    -4.31594   1.34680   0.09182
C    -5.13670   0.26054  -0.23890
C    -4.54720  -0.98567  -0.46628
C    -3.16294  -1.14709  -0.37196
N    -0.08601   0.83817  -0.17958
H     1.87444   2.94610  -0.74232
H     0.77263   3.12843   0.65705
H     2.46776   2.65649   0.90278
H     3.65233   0.66540   1.30592
H     5.50573  -0.74574   0.48145
H     5.24199  -2.07822  -1.61749
H     3.10053  -1.93294  -2.89915
H     1.25808  -0.49449  -2.08944
H     1.02353   1.52886   2.64455
H     1.72028  -0.17766   2.50188
H    -1.28924   0.59987   2.60082
H    -0.59879  -1.11619   2.56017
H    -0.92320  -2.34501   0.54519
H    -0.20308  -1.98288  -1.04068
H     0.71452  -1.67786   0.44636
H    -2.33978   2.05539   0.48828
H    -4.75778   2.32755   0.28544
H    -6.21920   0.38612  -0.31358
H    -5.16892  -1.84566  -0.72846
H    -2.73500  -2.12955  -0.57188
H    -0.62516   1.70019  -0.19760
