53
Generated by autodE on: 2022-06-25. E = -1023.369559 Ha
C    -4.02767   4.39821  -2.45387
O    -3.48433   3.65702  -1.35150
C    -2.58913   2.70754  -1.64593
O    -2.24992   2.45191  -2.78602
C    -2.07355   2.00314  -0.39586
C    -0.54841   2.17937  -0.27738
C    -0.02789   0.82638   0.25388
C    -0.21717   0.78277   1.77626
C     1.40632   0.60423  -0.14461
C     2.36885   0.02995   0.60439
C     3.72647  -0.18769   0.13107
C     4.73934  -0.78590   0.80330
C     4.62496  -1.33868   2.19667
C     6.09463  -0.94596   0.17236
C    -1.01820  -0.18262  -0.48822
C    -0.60160  -0.43466  -1.95157
C    -1.09392  -1.50609   0.27465
C    -2.10268  -1.75160   1.22004
C    -2.12497  -2.93320   1.96539
C    -1.12914  -3.89846   1.78851
C    -0.11580  -3.66720   0.85450
C    -0.10237  -2.48745   0.10393
N    -2.28800   0.55670  -0.40947
C    -3.43981   0.05331  -1.12497
H    -4.56042   3.72620  -3.14214
H    -4.72362   5.12437  -2.01821
H    -3.22700   4.91810  -2.99971
H    -2.59687   2.46236   0.45947
H    -0.11833   2.38262  -1.26751
H    -0.28035   3.01424   0.38436
H    -1.26598   0.96305   2.04820
H     0.39729   1.56686   2.24402
H     0.07607  -0.18200   2.20941
H     1.66921   0.92829  -1.15786
H     2.12656  -0.30598   1.61528
H     3.93486   0.17032  -0.88462
H     4.86387  -2.41698   2.20086
H     5.36551  -0.85924   2.86105
H     3.63082  -1.20896   2.64354
H     6.87178  -0.44876   0.78040
H     6.38140  -2.01192   0.12361
H     6.13106  -0.52999  -0.84531
H     0.38487  -0.90695  -2.03305
H    -0.57875   0.50575  -2.51671
H    -1.32969  -1.10224  -2.43592
H    -2.87243  -0.99707   1.37787
H    -2.92495  -3.09791   2.69182
H    -1.14330  -4.82203   2.37232
H     0.67251  -4.40935   0.70512
H     0.70237  -2.33196  -0.61372
H    -4.34156   0.59654  -0.79720
H    -3.37645   0.15265  -2.22618
H    -3.59440  -1.01092  -0.89491
