23
Generated by autodE on: 2022-06-25. E = -351.521383 Ha
C    -2.87621  -0.37883  -2.42551
C    -2.23976  -0.00918  -1.29233
C    -2.96462   0.71765  -0.18847
C    -0.82063  -0.31328  -1.11960
C    -0.07040   0.00190  -0.03392
C     1.33614  -0.32323   0.08640
C     2.15190  -0.04310   1.13418
C     3.59917  -0.44642   1.11110
C     1.71645   0.67324   2.38099
H    -2.34736  -0.90650  -3.22526
H    -3.93717  -0.16396  -2.58066
H    -2.49965   1.69669   0.01473
H    -4.02001   0.88339  -0.44686
H    -2.92426   0.14878   0.75533
H    -0.33952  -0.84219  -1.95120
H    -0.54229   0.52927   0.79945
H     1.77503  -0.85191  -0.76845
H     3.87105  -0.96682   0.18102
H     3.83496  -1.10824   1.96387
H     4.25353   0.43705   1.22141
H     2.31370   1.59151   2.52189
H     1.90835   0.04524   3.26889
H     0.65496   0.95247   2.38268
