30
Generated by autodE on: 2022-07-27. E = -671.797938 Ha
C    -1.98842   4.21406  -1.71685
O    -2.30735   3.16117  -0.81593
C    -1.34308   2.18345  -0.65913
O    -0.30091   2.21816  -1.33335
C    -1.71101   1.25589   0.33656
N    -0.90132   0.18360   0.69553
C    -0.80608  -0.05057   2.14844
C    -0.28742  -0.60650  -0.18011
C    -0.71417  -0.61068  -1.60226
C     0.83038  -1.47235   0.24246
C     1.89295  -0.95454   1.00934
C     2.96477  -1.76812   1.37761
C     2.99505  -3.11164   0.99039
C     1.94910  -3.63462   0.22215
C     0.88128  -2.82175  -0.15808
H    -1.82304   3.83680  -2.73867
H    -2.85051   4.89430  -1.71422
H    -1.08800   4.76395  -1.39789
H    -2.53438   1.48029   1.01125
H    -0.47704  -1.07293   2.35711
H    -0.11973   0.67225   2.60826
H    -1.80847   0.10079   2.57077
H    -1.79559  -0.40165  -1.67147
H    -0.47306  -1.57240  -2.07293
H    -0.21048   0.19212  -2.16865
H     1.88771   0.09739   1.29942
H     3.78468  -1.34778   1.96457
H     3.83407  -3.74804   1.28097
H     1.96464  -4.68339  -0.08310
H     0.06734  -3.24179  -0.75205
