30
Generated by autodE on: 2022-06-25. E = -671.793316 Ha
C     3.66091  -0.29860   2.71398
O     2.52374   0.12376   1.97388
C     2.36057  -0.45323   0.72442
O     3.19525  -1.28179   0.32046
C     1.19409   0.05190   0.11505
N     0.71535  -0.29458  -1.14424
C     1.68405  -0.76844  -2.15513
C    -0.53837  -0.10322  -1.53361
C    -0.90073  -0.24517  -2.98083
C    -1.59019   0.28562  -0.57093
C    -2.46808   1.34007  -0.88272
C    -3.50958   1.68055  -0.01580
C    -3.70440   0.96007   1.16503
C    -2.84718  -0.10319   1.47686
C    -1.79558  -0.43305   0.62451
H     4.59951  -0.06974   2.18390
H     3.63377   0.25472   3.66223
H     3.63333  -1.38063   2.92159
H     0.54849   0.69199   0.70712
H     1.31850  -1.69242  -2.61877
H     1.79976   0.00127  -2.92983
H     2.63869  -0.96001  -1.66478
H    -0.68694  -1.26084  -3.35236
H    -0.33433   0.45432  -3.61936
H    -1.97037  -0.05666  -3.12381
H    -2.32703   1.90371  -1.80738
H    -4.17271   2.51120  -0.26831
H    -4.52263   1.22125   1.84009
H    -3.00157  -0.68033   2.39158
H    -1.13243  -1.26158   0.87910
