53
Generated by autodE on: 2022-06-25. E = -1023.299885 Ha. Imaginary frequency = -456.0 cm-1
C    -3.52524   4.10916  -3.24364
O    -3.13485   3.47787  -2.02171
C    -2.83027   2.15961  -2.09030
O    -2.88027   1.53447  -3.14111
C    -2.46917   1.65972  -0.75857
C    -0.88480   2.71736  -0.10913
C    -0.12280   1.97321   0.82342
C    -0.63527   1.83716   2.23566
C     1.06280   1.28205   0.45389
C     1.80082   0.42703   1.24592
C     2.89834  -0.35439   0.73466
C     3.60139  -1.33921   1.36087
C     3.36805  -1.75727   2.78745
C     4.68823  -2.09533   0.64675
C    -1.08652  -0.30593  -1.04403
C    -0.40532   0.25578  -2.25444
C    -0.52835  -1.53533  -0.48386
C    -0.46183  -1.76791   0.91065
C     0.25429  -2.84843   1.42483
C     0.93684  -3.71833   0.57202
C     0.88011  -3.50911  -0.81304
C     0.16961  -2.43145  -1.33088
N    -2.19595   0.28733  -0.57314
C    -3.05527  -0.34873   0.43780
H    -4.42750   3.63586  -3.65940
H    -3.73411   5.15617  -2.99260
H    -2.71645   4.05635  -3.98780
H    -3.20219   1.99839  -0.02353
H    -0.39912   2.97226  -1.05486
H    -1.50743   3.52967   0.27752
H    -1.58876   2.36851   2.37232
H     0.08579   2.24471   2.96812
H    -0.79134   0.78360   2.52431
H     1.39887   1.41444  -0.58081
H     1.49680   0.27327   2.28413
H     3.16365  -0.15229  -0.31230
H     3.20908  -2.84819   2.85737
H     4.25346  -1.53795   3.41409
H     2.50251  -1.26214   3.24813
H     5.65829  -2.00680   1.17226
H     4.46399  -3.17797   0.60737
H     4.82797  -1.74084  -0.38620
H     0.64921  -0.03921  -2.27394
H    -0.46393   1.34580  -2.29756
H    -0.89216  -0.11885  -3.17108
H    -0.93339  -1.07939   1.60621
H     0.30575  -2.98896   2.50665
H     1.51007  -4.55373   0.98029
H     1.40194  -4.18774  -1.49163
H     0.14489  -2.28240  -2.41100
H    -2.82393   0.02220   1.44528
H    -4.09684  -0.09811   0.20012
H    -2.93965  -1.43586   0.40828
