9
Generated by autodE on: 2022-05-28. E = -172.071446 Ha
C     1.78366   0.18802   0.35525
N     0.59300  -0.07549  -0.03169
C    -0.50947  -0.38853  -0.46356
C    -1.80639   0.16621   0.02665
H     2.23805  -0.40444   1.15564
H     2.34719   0.99071  -0.13078
H    -2.44803  -0.66437   0.36277
H    -1.69927   0.90146   0.84428
H    -2.33677   0.63438  -0.81851
