52
Generated by autodE on: 2022-06-03. E = -1457.465861 Ha
C    -3.29592  -0.76365  -2.64287
N    -2.15837  -0.82664  -1.74611
C    -2.23774  -0.38407  -0.48501
O    -3.27474   0.02984   0.03309
C    -0.91959  -0.48173   0.32875
C    -1.11589  -1.63950   1.33842
O    -0.37882  -2.60003   1.37816
O    -2.17646  -1.48382   2.11248
C    -2.41789  -2.50483   3.09616
O     0.11167  -0.88697  -0.56364
C     1.36893  -0.36678  -0.19367
C     2.25768  -0.17685  -1.42325
O     3.43964   0.06749  -1.30802
O     1.60213  -0.26002  -2.56667
C     2.36081  -0.01912  -3.76701
C     2.07036  -1.41491   0.71634
O     2.24750  -1.34825   1.90759
O     2.40237  -2.46184  -0.03585
C     2.94034  -3.60557   0.64760
C     1.06038   1.00018   0.48705
F     1.96275   1.21962   1.50990
C     1.04039   2.22799  -0.45189
C     0.91425   3.48859   0.43215
C    -0.56128   3.42835   0.91828
C    -1.08864   2.12050   0.29315
C    -0.36466   2.14459  -1.06922
C    -0.43869   0.88135   0.98693
C    -0.53549   0.87857   2.50888
H    -3.05007  -1.29966  -3.56746
H    -4.17719  -1.23170  -2.18043
H    -3.55438   0.27855  -2.89290
H    -1.23994  -1.07257  -2.10310
H    -3.32696  -2.20015   3.62611
H    -2.56580  -3.47729   2.60643
H    -1.56934  -2.56563   3.79223
H     2.76972   1.00081  -3.75447
H     1.65409  -0.13936  -4.59509
H     3.17941  -0.74738  -3.84879
H     2.20075  -3.99469   1.36158
H     3.86348  -3.33473   1.17893
H     3.15022  -4.34887  -0.12947
H     1.89304   2.26248  -1.14052
H     1.64156   3.49274   1.25291
H     1.10079   4.37930  -0.18397
H    -0.65975   3.45998   2.01045
H    -1.14432   4.26995   0.51714
H    -2.17982   2.06219   0.27109
H    -0.52422   1.26276  -1.69852
H    -0.60825   3.03953  -1.65960
H    -0.04533  -0.00503   2.94108
H    -0.03599   1.75887   2.92899
H    -1.58644   0.88788   2.82544
