20
Generated by autodE on: 2022-06-03. E = -411.475033 Ha
C     2.43904   0.46117  -0.11330
C     1.01610   0.04574  -0.25757
C     0.27254  -0.75421   0.51936
F     0.67573  -1.39491   1.63506
C    -1.18297  -0.67956   0.12726
C    -1.66519   0.75053   0.54354
C    -0.83842   1.67966  -0.39478
C     0.01032   0.66532  -1.22906
C    -1.00690  -0.48486  -1.39339
H     3.01217   0.26884  -1.03666
H     2.93210  -0.06720   0.71638
H     2.51055   1.54620   0.08137
H    -1.81512  -1.50607   0.47611
H    -2.74564   0.85311   0.36157
H    -1.48378   0.94232   1.61088
H    -0.19844   2.38473   0.15561
H    -1.49464   2.26764  -1.05452
H     0.44866   1.08343  -2.14542
H    -0.58186  -1.36754  -1.89323
H    -1.93516  -0.17731  -1.90009
