52
Generated by autodE on: 2022-06-03. E = -1457.364927 Ha. Imaginary frequency = -197.6 cm-1
C    -3.36105   0.38995  -2.49863
N    -2.30741  -0.37585  -1.86382
C    -2.34746  -0.69791  -0.55885
O    -3.32988  -0.51788   0.17214
C    -1.09889  -1.29380   0.00937
C    -1.27750  -2.44468   0.95909
O    -1.02673  -3.57584   0.59304
O    -1.84817  -2.13269   2.10699
C    -2.13253  -3.22348   2.99929
O    -0.08424  -1.31582  -0.82364
C     1.23204  -1.31445  -0.63133
C     1.98395  -0.84333  -1.80448
O     3.17197  -0.57254  -1.81580
O     1.19144  -0.69721  -2.87950
C     1.78742  -0.08881  -4.03202
C     1.81319  -1.87038   0.58941
O     1.14688  -2.20290   1.56033
O     3.14550  -1.92691   0.57043
C     3.78281  -2.32953   1.79079
C     1.07252   0.91463   0.79204
F     2.02606   0.56288   1.67494
C     1.36437   1.97617  -0.23245
C     1.15623   3.32160   0.54375
C    -0.37721   3.33570   0.80640
C    -0.85771   1.97798   0.19026
C     0.06025   1.91493  -1.04754
C    -0.27269   0.90129   1.10723
C    -0.80506   0.62665   2.47732
H    -3.25414   1.46958  -2.29654
H    -3.32087   0.23008  -3.58365
H    -4.34042   0.06354  -2.12453
H    -1.42978  -0.50101  -2.35938
H    -1.20123  -3.74128   3.26885
H    -2.58967  -2.77156   3.88641
H    -2.82773  -3.93193   2.52734
H     2.12480   0.93090  -3.79489
H     1.00145  -0.05894  -4.79529
H     2.64067  -0.68379  -4.38757
H     4.85956  -2.29707   1.58909
H     3.52631  -1.63504   2.60351
H     3.47790  -3.34854   2.06922
H     2.31911   1.87868  -0.76214
H     1.75303   3.35039   1.46648
H     1.47094   4.16339  -0.08995
H    -0.63011   3.42060   1.87199
H    -0.86652   4.16689   0.27813
H    -1.94044   1.91742   0.02709
H    -0.04486   1.00659  -1.64381
H    -0.06117   2.78854  -1.70359
H    -0.28376  -0.21401   2.95077
H    -1.88032   0.40934   2.45472
H    -0.65189   1.51978   3.10945
