52
Generated by autodE on: 2022-06-10. E = -1892.764153 Ha
C    -8.34426  -5.50338   5.70688
N    -7.49578  -4.69646   6.56679
C    -6.38640  -4.02315   6.23832
O    -5.76583  -3.28983   7.00891
C    -5.95667  -4.05416   4.78121
N    -6.60957  -3.23555   4.03226
C    -6.04233  -3.34690   2.69895
C    -5.64736  -2.01446   2.23847
N    -5.32077  -0.95301   1.90595
C    -7.25477  -3.98610   1.86436
C    -8.09265  -3.03987   1.07552
O    -7.45762  -5.16518   1.99300
C    -4.86116  -4.29790   2.79615
C    -4.81841  -4.74768   4.08520
C    -3.88346  -5.78319   4.73223
C    -4.67776  -7.10915   4.93386
F    -4.94612  -7.69599   3.76342
F    -3.97863  -7.98259   5.67412
F    -5.85190  -6.91658   5.55095
C    -3.37729  -5.31131   6.13430
F    -2.25762  -5.95293   6.49632
F    -3.09886  -4.00232   6.11945
F    -4.26520  -5.54113   7.11319
C    -2.63157  -6.15483   3.89407
C    -1.54876  -5.09340   3.66852
C    -1.96686  -3.73678   3.10553
C    -2.59881  -3.73419   1.71945
C    -3.96967  -4.48133   1.56941
C    -4.62282  -3.90692   0.37444
N    -5.08327  -3.49838  -0.60807
C    -3.79525  -5.95683   1.08233
O    -2.78500  -6.37519   0.57105
O    -4.92679  -6.62015   1.21031
C    -4.96245  -7.97697   0.73009
H    -8.48933  -6.50200   6.14334
H    -9.33008  -5.02872   5.58234
H    -7.89451  -5.62304   4.71597
H    -7.79655  -4.56581   7.53144
H    -8.96512  -3.56831   0.67220
H    -8.40840  -2.20495   1.72114
H    -7.49653  -2.61130   0.25526
H    -2.15737  -7.00584   4.39837
H    -2.97914  -6.57086   2.94976
H    -0.81828  -5.55374   2.98379
H    -1.01089  -4.92060   4.61202
H    -2.61988  -3.20628   3.81355
H    -1.05910  -3.11772   3.02700
H    -2.77237  -2.68959   1.42752
H    -1.92430  -4.17722   0.97351
H    -4.19785  -8.57795   1.24018
H    -5.96566  -8.34661   0.96667
H    -4.78934  -7.99191  -0.35487
