43
Generated by autodE on: 2022-06-21. E = -1202.911622 Ha. Imaginary frequency = -407.9 cm-1
C     3.01312  -3.27358   1.44816
O     2.81776  -2.06901   0.69527
C     2.07005  -1.11344   1.26280
O     1.56530  -1.20080   2.37021
C     1.90256   0.01619   0.34536
N     1.27268   1.10452   0.77550
C     0.27393   1.75064   0.54405
C    -0.32682   3.04213   0.97661
C    -0.01368   4.22602   0.12500
O    -1.05794   3.02697   1.94828
C    -0.82553   0.72259  -0.92512
O    -1.14547   1.79745  -1.72473
C    -2.07933   1.50090  -2.77037
C    -1.86724   0.33329   0.07795
O    -2.82063   1.07923   0.27861
C    -1.70332  -0.94716   0.80972
C    -2.56522  -1.17642   2.01276
C    -0.85246  -1.89421   0.33587
C    -0.74690  -3.24068   0.98043
C     0.00293  -1.64427  -0.86829
O     0.62455  -2.56163  -1.40805
C     0.05037  -0.27670  -1.41100
O     0.75726  -0.17219  -2.55318
C     1.29257   1.08060  -2.99285
H     3.52287  -3.05370   2.39747
H     3.63971  -3.91984   0.82295
H     2.05129  -3.76308   1.65300
H     2.58480   0.12466  -0.50017
H     1.07801   4.36445   0.06586
H    -0.49935   5.12114   0.53502
H    -0.37268   4.02164  -0.89663
H    -1.68590   0.71983  -3.44039
H    -2.21949   2.43144  -3.33545
H    -3.04524   1.17644  -2.35418
H    -1.94182  -1.43590   2.88377
H    -3.15611  -0.28357   2.25061
H    -3.25671  -2.02075   1.85371
H    -1.72386  -3.75187   0.97677
H    -0.01714  -3.87214   0.46132
H    -0.44656  -3.13798   2.03510
H     2.15922   0.83116  -3.61968
H     1.62261   1.69773  -2.14478
H     0.56180   1.64255  -3.59035
