75
Generated by autodE on: 2022-06-15. E = -1818.858894 Ha
C   -19.81830  -8.37005   9.84227
N   -19.57352  -8.73556   8.46251
C   -18.42298  -9.30591   8.06680
O   -17.55585  -9.67422   8.86399
C   -18.29547  -9.55849   6.53707
C   -16.86872 -10.05138   6.22867
C   -19.28688 -10.72110   6.26798
C   -19.12420 -11.44790   4.93533
C   -19.39464 -10.55522   3.72517
C   -20.74704  -9.85116   3.88560
C   -20.76634  -8.31885   4.27789
C   -20.96856  -7.57888   2.93175
C   -19.99226  -7.72606   1.92941
C   -20.13255  -7.10295   0.69036
C   -21.25983  -6.32023   0.41996
C   -22.24237  -6.17813   1.40093
C   -22.09861  -6.80292   2.64445
C   -21.95743  -8.08874   5.23421
C   -23.19735  -8.69347   4.95825
C   -24.28712  -8.53145   5.81500
C   -24.16617  -7.76034   6.97612
C   -22.94673  -7.14289   7.25647
C   -21.85912  -7.30151   6.38950
C   -19.48500  -7.77506   4.92996
C   -18.56297  -8.24904   5.80536
C   -17.54352  -7.06673   5.99177
C   -16.68126  -6.95786   7.25042
O   -17.20790  -6.66695   8.32562
N   -15.36472  -7.14096   7.09977
C   -14.48226  -7.17565   8.25047
C   -16.84515  -7.04756   4.59778
O   -15.73466  -7.40354   4.27905
O   -17.75160  -6.55574   3.74401
C   -18.98174  -6.34046   4.60161
C   -19.79944  -5.24672   3.92239
O   -19.46872  -4.68775   2.90414
O   -20.82959  -4.91223   4.68360
C   -21.63942  -3.80991   4.24306
N   -18.44050  -5.90668   5.85795
C   -17.80226  -4.58745   5.87485
H   -19.10864  -7.59675  10.17936
H   -19.71751  -9.24160  10.50662
H   -20.83928  -7.97651   9.92675
H   -20.22611  -8.41015   7.75609
H   -16.10071  -9.39467   6.64538
H   -16.71179 -10.11932   5.14459
H   -16.72129 -11.04750   6.66734
H   -20.31716 -10.35652   6.38486
H   -19.13152 -11.44928   7.07986
H   -18.12714 -11.90716   4.86399
H   -19.84721 -12.28159   4.92607
H   -18.57387  -9.83489   3.59410
H   -19.40541 -11.17283   2.81388
H   -21.32309  -9.93543   2.95645
H   -21.32904 -10.40166   4.63363
H   -19.10061  -8.32209   2.12279
H   -19.35356  -7.22468  -0.06597
H   -21.37049  -5.82656  -0.54824
H   -23.12908  -5.57017   1.20629
H   -22.87018  -6.65860   3.39919
H   -23.32174  -9.29442   4.05666
H   -25.23697  -9.01503   5.57423
H   -25.01640  -7.64077   7.65156
H   -22.83084  -6.53019   8.15371
H   -20.92737  -6.78995   6.62132
H   -15.01543  -7.39851   6.17767
H   -14.49757  -6.21627   8.78961
H   -13.46020  -7.37686   7.90856
H   -14.79300  -7.96735   8.95108
H   -22.03459  -4.00582   3.23768
H   -21.04167  -2.88759   4.23508
H   -22.45632  -3.73298   4.96869
H   -17.02664  -4.45320   5.10069
H   -17.35240  -4.43102   6.86291
H   -18.57511  -3.81923   5.73897
