39
Generated by autodE on: 2022-05-30. E = -1456.761245 Ha
C     0.23301   1.42203   4.49492
O     0.55757   0.88200   3.20729
C     0.20337   1.60927   2.14003
O    -0.35592   2.68537   2.22308
C     0.56905   0.93411   0.87990
C     0.28447   1.34848  -0.36536
Cl   -0.48670   2.80801  -0.83131
C     0.73957   0.34058  -1.41577
C     1.68462   0.94817  -2.45114
C    -0.45731  -0.36343  -2.07230
C    -1.33441   0.33540  -2.91722
C    -2.42219  -0.31466  -3.50513
C    -2.64491  -1.67470  -3.26826
C    -1.76480  -2.38045  -2.44463
C    -0.67810  -1.73015  -1.85241
O     1.49314  -0.58664  -0.62411
C     1.27274  -0.40783   0.78733
C     2.62776  -0.49261   1.47886
C     0.31566  -1.52455   1.25857
O    -0.82734  -1.34122   1.61921
O     0.88378  -2.72362   1.16960
C     0.05316  -3.85728   1.47267
H     0.60186   0.69522   5.22749
H    -0.85496   1.54612   4.59536
H     0.72649   2.39385   4.63978
H     1.16401   1.67904  -3.08444
H     2.52332   1.44630  -1.94337
H     2.07545   0.14536  -3.09284
H    -1.17706   1.39479  -3.12078
H    -3.09696   0.24675  -4.15572
H    -3.49564  -2.18170  -3.72955
H    -1.91801  -3.44661  -2.26084
H     0.01511  -2.29538  -1.23229
H     2.51953  -0.49797   2.57028
H     3.12912  -1.41828   1.16475
H     3.24234   0.36799   1.17853
H    -0.80704  -3.88767   0.78846
H     0.68554  -4.74084   1.33149
H    -0.30272  -3.80226   2.51104
