29
Generated by autodE on: 2022-05-30. E = -691.648361 Ha
C     3.29974   2.01066   0.44598
O     2.28340   1.04777   0.17608
C     2.70716  -0.14777  -0.33086
O     3.90754  -0.36294  -0.53643
C     1.66030  -1.08882  -0.58865
C     1.93951  -2.44147  -1.14240
O     0.43417  -0.63491  -0.29116
C    -0.79286  -1.04184  -0.32547
C    -1.22046  -2.38961  -0.79844
C    -1.75739  -0.06034   0.15210
C    -1.34090   1.21478   0.60519
C    -2.27134   2.14314   1.06042
C    -3.63767   1.83066   1.07803
C    -4.06251   0.57492   0.63330
C    -3.13778  -0.36315   0.17489
H     3.84657   2.28142  -0.47048
H     2.78455   2.89403   0.84383
H     4.01895   1.63395   1.18958
H     3.02441  -2.52832  -1.28130
H     1.45878  -2.60943  -2.12192
H     1.61866  -3.25429  -0.46794
H    -0.38861  -3.00832  -1.13615
H    -1.93899  -2.28698  -1.62826
H    -1.74577  -2.92298   0.01133
H    -0.28010   1.46466   0.59523
H    -1.93035   3.12184   1.40628
H    -4.36477   2.56256   1.43689
H    -5.12511   0.32146   0.64303
H    -3.49345  -1.33542  -0.16661
