39
Generated by autodE on: 2022-05-30. E = -1456.608884 Ha. Imaginary frequency = -271.4 cm-1
C     1.86861   1.47261   4.31151
O     1.45010   1.69942   2.95704
C     0.28536   1.14057   2.59150
O    -0.40614   0.47140   3.34360
C    -0.05201   1.44170   1.22940
C    -0.46196   1.78736   0.11936
Cl   -1.37865   2.73693  -0.90277
C     0.82620   0.38079  -1.52161
C     1.54364   1.49906  -2.21698
C    -0.14285  -0.42222  -2.26678
C    -1.00272   0.19534  -3.20114
C    -1.85487  -0.56929  -3.99542
C    -1.84375  -1.96564  -3.90402
C    -0.96688  -2.59169  -3.01253
C    -0.13274  -1.83212  -2.19468
O     1.52459  -0.09378  -0.50815
C     1.29936  -0.75700   0.62361
C     2.52365  -0.89699   1.46619
C     0.06076  -1.45486   0.92373
O    -1.00370  -1.37043   0.32281
O     0.19519  -2.19266   2.05230
C    -1.00857  -2.75105   2.58449
H     1.95530   0.39622   4.51628
H     1.15211   1.92128   5.01482
H     2.84710   1.95693   4.40752
H     0.83366   2.22947  -2.62795
H     2.21261   2.01497  -1.51643
H     2.13340   1.11051  -3.06618
H    -1.01531   1.27963  -3.30133
H    -2.52664  -0.07111  -4.69809
H    -2.50769  -2.56311  -4.53294
H    -0.93262  -3.68174  -2.95014
H     0.56368  -2.33924  -1.52796
H     2.26944  -0.92337   2.53304
H     3.06557  -1.83256   1.23726
H     3.20037  -0.05283   1.27582
H    -1.73610  -1.95701   2.80725
H    -1.45528  -3.46570   1.87749
H    -0.72070  -3.26724   3.50820
