36
Generated by autodE on: 2022-06-17. E = -804.622443 Ha
C    -3.97673   1.25162  -0.42788
C    -2.79641   0.50669  -0.97524
O    -2.82693  -0.09261  -2.03502
C    -1.54305   0.47149  -0.09117
C    -1.77546  -0.73927   0.86880
C    -1.36804  -2.09350   0.37062
O    -2.30610  -0.56440   1.94854
C    -1.27052   1.74963   0.73739
C     0.22252   1.60238   1.07409
N     0.64212   0.48681   0.21958
C     1.88977  -0.08920   0.20511
C     2.20760  -1.13118  -0.69864
C     3.46670  -1.72882  -0.66754
C     4.44487  -1.31264   0.24390
C     4.13736  -0.27412   1.12956
C     2.88448   0.34015   1.11507
N    -0.28989   0.22837  -0.81447
C    -0.05196   1.09166  -1.98026
H    -4.14276   0.98968   0.62802
H    -4.86935   1.03098  -1.02684
H    -3.76894   2.33365  -0.46068
H    -1.79879  -2.86631   1.02057
H    -1.68785  -2.23362  -0.67178
H    -0.27000  -2.17448   0.38091
H    -1.90324   1.79675   1.62958
H    -1.45802   2.64181   0.12690
H     0.78768   2.52745   0.86567
H     0.38575   1.33751   2.12977
H     1.45598  -1.46219  -1.41375
H     3.68576  -2.53507  -1.37288
H     5.42952  -1.78449   0.25890
H     4.88722   0.07349   1.84529
H     2.67442   1.15263   1.81090
H    -0.73076   0.80106  -2.79042
H     0.97866   0.92491  -2.32257
H    -0.18228   2.16855  -1.76805
