36
Generated by autodE on: 2022-06-17. E = -804.552660 Ha. Imaginary frequency = -347.7 cm-1
C    -4.06927   0.76301  -0.44795
C    -2.69346   0.74312  -1.06767
O    -2.52931   1.13352  -2.22083
C    -1.57622   0.25121  -0.22735
C    -1.86588  -0.68484   0.92198
C    -1.37486  -2.11172   0.80028
O    -2.58356  -0.36769   1.86018
C    -1.17169   2.16089   0.95495
C     0.14227   1.91484   1.32263
N     0.52905   0.05865   0.36751
C     1.84204  -0.37405   0.17489
C     2.18167  -1.33947  -0.79840
C     3.48809  -1.82044  -0.88626
C     4.47974  -1.35712  -0.01527
C     4.14496  -0.40748   0.95693
C     2.84251   0.07978   1.05857
N    -0.28799   0.15069  -0.67680
C     0.17211   0.80918  -1.90769
H    -4.38880  -0.25553  -0.17756
H    -4.77154   1.18635  -1.17732
H    -4.08049   1.35953   0.47511
H    -2.25209  -2.72282   0.52545
H    -0.59702  -2.25918   0.04415
H    -1.02256  -2.46313   1.78082
H    -1.98568   1.96413   1.65255
H    -1.38741   2.83789   0.12456
H     0.96148   2.42241   0.80756
H     0.36869   1.53404   2.31986
H     1.41118  -1.72259  -1.46929
H     3.72996  -2.57079  -1.64306
H     5.50153  -1.73531  -0.08988
H     4.90811  -0.03822   1.64643
H     2.59179   0.81841   1.81988
H    -0.27075   0.33513  -2.78818
H     1.26229   0.73792  -1.95386
H    -0.12499   1.86822  -1.87990
