47
Generated by autodE on: 2022-06-01. E = -3534.602446 Ha
C     4.38968   2.30736  -0.81260
N     3.48732   1.72378   0.16085
C     2.20425   1.45842  -0.14353
O     1.74023   1.75066  -1.25326
C     1.31297   0.79414   0.94533
C     1.95045   0.91100   2.33383
N    -0.00614   1.44637   0.94469
C    -0.03491   2.89734   1.00021
C    -0.82785   0.87361  -0.09958
C    -2.32638   1.06160   0.10101
O    -3.11899   1.04105  -0.81932
O    -2.69159   1.22980   1.37294
C    -4.09617   1.36996   1.62791
C    -0.42798  -0.63018  -0.15274
Br   -0.50176  -1.17726  -2.06873
C    -1.30133  -1.56692   0.71560
C    -0.86544  -3.03874   0.55462
C     0.48676  -3.09256   1.31770
C     0.69775  -1.62810   1.75574
C    -0.74822  -1.24857   2.12176
C     1.00730  -0.70869   0.52128
C     2.13765  -1.27604  -0.33533
H     4.00102   3.26727  -1.18622
H     5.36317   2.47957  -0.33730
H     4.53057   1.64126  -1.67977
H     3.85555   1.46477   1.06721
H     1.24075   0.59345   3.10589
H     2.23811   1.94911   2.55156
H     2.84844   0.28115   2.41964
H    -1.05449   3.24015   1.23098
H     0.62052   3.25782   1.80545
H     0.28136   3.37788   0.05369
H    -0.61272   1.32297  -1.08142
H    -4.19332   1.52122   2.70910
H    -4.63357   0.46073   1.32144
H    -4.50180   2.23489   1.08392
H    -2.37635  -1.41338   0.55692
H    -1.61757  -3.69241   1.01989
H    -0.77818  -3.33248  -0.49884
H     1.30842  -3.50582   0.72040
H     0.40307  -3.71623   2.22029
H     1.44616  -1.53393   2.54929
H    -0.87873  -0.20593   2.42097
H    -1.17891  -1.91063   2.88825
H     1.91491  -2.29068  -0.68226
H     3.06487  -1.31487   0.25698
H     2.31637  -0.66823  -1.22910
