47
Generated by autodE on: 2022-06-01. E = -3534.525830 Ha. Imaginary frequency = -284.2 cm-1
C     4.41182   1.74540  -1.08271
N     3.48913   1.71075   0.03244
C     2.14676   1.67726  -0.17207
O     1.69357   1.85072  -1.31866
C     1.30746   1.47320   1.03536
C     1.96518   1.56176   2.38454
N    -0.02997   1.80209   0.95929
C    -0.65061   2.49846   2.10247
C    -0.78119   1.35276  -0.08129
C    -2.23234   1.33341  -0.06726
O    -2.97048   1.32741   0.91419
O    -2.71201   1.20895  -1.32355
C    -4.10626   0.93012  -1.45086
C    -0.27470  -0.94903   0.03564
Br   -0.52846  -1.39073  -1.82706
C    -1.23437  -1.57945   1.03570
C    -0.84204  -3.08450   1.13973
C     0.55332  -3.03166   1.82755
C     0.79603  -1.49834   2.01485
C    -0.63571  -1.04625   2.34987
C     1.00596  -0.93555   0.60651
C     2.27499  -1.22346  -0.13490
H     4.19786   2.59718  -1.74506
H     5.43330   1.84930  -0.69535
H     4.35793   0.82450  -1.68950
H     3.86160   1.49192   0.94695
H     2.33795   2.57344   2.62633
H     1.28440   1.24738   3.18395
H     2.82191   0.87346   2.42612
H     0.05760   3.24443   2.47911
H    -0.92379   1.82219   2.92294
H    -1.55126   3.01359   1.76184
H    -0.28531   1.27724  -1.03860
H    -4.30181   0.83850  -2.52621
H    -4.36480  -0.01171  -0.94307
H    -4.71323   1.74450  -1.02769
H    -2.29995  -1.39018   0.85682
H    -1.57729  -3.62260   1.75716
H    -0.81749  -3.56416   0.15118
H     1.34469  -3.50950   1.23327
H     0.53339  -3.52487   2.81136
H     1.58558  -1.25605   2.73801
H    -0.74946   0.02992   2.47646
H    -1.04741  -1.55679   3.23361
H     3.16231  -0.93293   0.44486
H     2.35364  -2.30614  -0.34092
H     2.30025  -0.71148  -1.10523
