56
Generated by autodE on: 2022-06-04. E = -1370.353087 Ha
C    11.09410  -1.44834  -3.36383
N    11.77688  -2.01578  -2.22267
C    11.59868  -1.40886  -0.93200
C    12.52052  -0.25581  -0.77325
N    13.25425   0.64023  -0.70399
C    11.88180  -2.53354   0.04922
C    12.10816  -3.70160  -0.58081
C    12.34175  -5.12220  -0.03700
C    13.44897  -5.83360  -0.83671
C    10.99444  -5.88265  -0.13595
C    10.85054  -7.06449  -0.87484
C     9.62514  -7.73861  -0.92244
C     8.52067  -7.25129  -0.22141
C     8.65345  -6.07682   0.52583
C     9.87354  -5.40140   0.56169
C    12.76235  -5.18985   1.46159
C    14.12034  -4.60674   1.86760
C    14.37713  -3.13285   1.54979
C    13.36464  -2.13072   2.10572
C    11.95665  -2.14839   1.51121
F    11.09983  -2.90980   2.27848
F    11.43138  -0.87425   1.63335
C    12.01661  -3.45437  -2.11659
C    13.34220  -3.67071  -2.76286
N    14.37543  -3.70949  -3.28983
C    10.93000  -4.29156  -2.80117
C    11.21006  -5.19070  -3.83316
C    10.17966  -5.93138  -4.42252
C     8.86342  -5.76832  -3.98829
C     8.57781  -4.85420  -2.96646
C     9.60493  -4.11875  -2.37871
H    11.33160  -0.37528  -3.43012
H     9.99457  -1.55932  -3.31947
H    11.45434  -1.92487  -4.28643
H    10.57344  -1.01725  -0.77567
H    13.65060  -6.81333  -0.38077
H    13.18664  -6.00982  -1.88539
H    14.37928  -5.25330  -0.81398
H    11.68797  -7.47065  -1.43953
H     9.53857  -8.65085  -1.51772
H     7.56413  -7.77764  -0.26127
H     7.79864  -5.67583   1.07601
H     9.94629  -4.47465   1.12964
H    12.77675  -6.26363   1.70561
H    11.97562  -4.76569   2.08840
H    14.21285  -4.75141   2.95792
H    14.93202  -5.19937   1.41674
H    15.35744  -2.85965   1.97165
H    14.47202  -2.98481   0.46237
H    13.74257  -1.11542   1.91543
H    13.24843  -2.23739   3.19643
H    12.23550  -5.32508  -4.18127
H    10.41187  -6.63725  -5.22304
H     8.05857  -6.34961  -4.44382
H     7.55070  -4.72187  -2.62001
H     9.38227  -3.41533  -1.57507
