33
Generated by autodE on: 2022-06-04. E = -781.215937 Ha
C    -0.89580  -0.85999   2.23216
C    -0.34481   0.04495   1.10661
C    -1.14031   1.35076   1.03874
C    -1.85210   1.72505  -0.10861
C    -2.56786   2.92643  -0.14898
C    -2.58098   3.77488   0.96038
C    -1.87273   3.41111   2.11093
C    -1.16104   2.21026   2.14959
C    -0.35135  -0.70027  -0.15097
C    -0.02621  -1.39285  -1.09284
C     1.00212  -2.03782  -1.90853
F     0.57757  -3.22737  -2.44601
F     1.29936  -1.23836  -2.99268
C     2.25878  -2.26635  -1.07773
C     2.75621  -1.04153  -0.28719
C     2.17753  -0.80194   1.13620
C     1.17943   0.35803   1.33660
H    -1.95079  -1.10801   2.04493
H    -0.32434  -1.79713   2.29574
H    -0.82383  -0.34304   3.19955
H    -1.84851   1.07088  -0.98297
H    -3.11722   3.19711  -1.05404
H    -3.13933   4.71353   0.93072
H    -1.87477   4.06600   2.98573
H    -0.61595   1.94243   3.05693
H     3.03049  -2.60386  -1.78822
H     2.04693  -3.10558  -0.39725
H     3.84306  -1.17473  -0.18016
H     2.63236  -0.13678  -0.90586
H     1.75180  -1.74045   1.52835
H     3.03153  -0.57739   1.79361
H     1.26664   0.73215   2.36830
H     1.45680   1.19219   0.67283
