23
Generated by autodE on: 2022-06-04. E = -589.040040 Ha
C     1.07305   0.59972   1.66448
N     1.31408   0.11635   0.28679
C     2.59358  -0.11625  -0.06903
C     3.66698   0.14196   0.78995
N     4.59845   0.33221   1.47459
C     0.26230  -0.03449  -0.55912
C     0.55241  -0.24490  -1.92660
N     0.77064  -0.40842  -3.06305
C    -1.15330  -0.04600  -0.14952
C    -1.59993  -0.73640   0.99564
C    -2.95506  -0.75382   1.32649
C    -3.89105  -0.10459   0.51503
C    -3.46166   0.56135  -0.63796
C    -2.10749   0.59136  -0.96864
H     0.09477   1.08087   1.72031
H     1.12631  -0.24181   2.36603
H     1.85127   1.33076   1.91051
H     2.79608  -0.52320  -1.05960
H    -0.88930  -1.28088   1.61840
H    -3.28285  -1.29310   2.21819
H    -4.95170  -0.12510   0.77520
H    -4.18543   1.06689  -1.28129
H    -1.77794   1.12043  -1.86560
