23
Generated by autodE on: 2022-07-27. E = -589.038462 Ha
C    -1.59621   1.91119   0.26859
N    -0.17358   1.54176   0.44945
C     0.55810   2.44038   1.14028
C     1.80994   2.15419   1.69719
N     2.83721   1.94617   2.21943
C     0.29827   0.39251  -0.10224
C     1.68136   0.30215  -0.38212
N     2.80493   0.20261  -0.68883
C    -0.55284  -0.75639  -0.44903
C    -0.24933  -1.52471  -1.59214
C    -1.02085  -2.63613  -1.92680
C    -2.10956  -3.00528  -1.12896
C    -2.41035  -2.26010   0.01572
C    -1.63633  -1.15238   0.36171
H    -1.63506   2.99098   0.08204
H    -2.16033   1.68399   1.18117
H    -2.01467   1.37358  -0.58584
H     0.11668   3.42155   1.30891
H     0.59400  -1.23889  -2.22436
H    -0.77398  -3.21453  -2.82001
H    -2.71500  -3.87510  -1.39345
H    -3.24657  -2.55164   0.65535
H    -1.86303  -0.60699   1.27836
