56
Generated by autodE on: 2022-06-04. E = -1370.261122 Ha. Imaginary frequency = -257.3 cm-1
C    10.12983  -1.62550  -2.66474
N    11.56717  -1.94700  -2.62971
C    12.28960  -1.07768  -1.87168
C    13.70078  -0.92703  -1.91467
N    14.84217  -0.69137  -1.88228
C    12.27136  -2.42293  -0.04724
C    12.34583  -3.61788  -0.36867
C    12.44201  -5.06636  -0.06653
C    13.29248  -5.80276  -1.11818
C    11.03012  -5.66861   0.04849
C    10.80054  -7.01836  -0.25879
C     9.52479  -7.57733  -0.13947
C     8.44924  -6.79819   0.29472
C     8.66701  -5.45568   0.61707
C     9.94327  -4.90045   0.49581
C    13.19199  -5.22129   1.30166
C    12.62832  -4.56209   2.56641
C    12.94543  -3.07656   2.84365
C    11.90926  -2.03315   2.40198
C    12.12741  -1.42981   1.02721
F    11.06864  -0.58088   0.75823
F    13.23702  -0.60770   1.05419
C    12.00032  -3.19807  -2.95434
C    13.39282  -3.38358  -3.19574
N    14.50385  -3.60945  -3.46811
C    11.11883  -4.26927  -3.48211
C    11.53688  -5.02826  -4.59338
C    10.76690  -6.09304  -5.06157
C     9.56420  -6.42413  -4.42995
C     9.13968  -5.68012  -3.32472
C     9.90899  -4.61834  -2.85198
H    10.02894  -0.54421  -2.80505
H     9.66022  -1.91296  -1.71372
H     9.64884  -2.14455  -3.49743
H    11.76442  -0.16413  -1.59397
H    13.52982  -6.81988  -0.77802
H    14.24175  -5.27341  -1.27127
H    12.77214  -5.87416  -2.08137
H    11.61748  -7.64962  -0.60742
H     9.37214  -8.62836  -0.39666
H     7.45044  -7.23261   0.38010
H     7.83773  -4.83071   0.95726
H    10.08768  -3.84546   0.72811
H    14.22871  -4.87866   1.14681
H    13.24484  -6.30769   1.47830
H    11.54014  -4.72718   2.63199
H    13.05684  -5.13408   3.40483
H    13.04198  -2.96774   3.93444
H    13.93564  -2.81418   2.43381
H    11.90595  -1.17789   3.09612
H    10.89660  -2.46324   2.41306
H    12.47539  -4.78400  -5.09402
H    11.10969  -6.66597  -5.92608
H     8.96477  -7.26218  -4.79262
H     8.21306  -5.93865  -2.80813
H     9.58345  -4.08729  -1.96240
