22
Generated by autodE on: 2022-06-08. E = -2999.170016 Ha
C     2.71543   1.67783  -1.17087
C     1.98305   0.56396  -0.46412
O     2.55237  -0.16465   0.34321
C     0.55768   0.39709  -0.80038
C    -0.39696  -0.29664  -0.13046
Br   -0.24477  -1.28838   1.45776
C    -1.74874   0.00242  -0.73889
C    -2.06061   1.48456  -0.34356
C    -0.99871   2.29044  -1.14315
C    -0.20104   1.17096  -1.88329
C    -1.33226   0.17679  -2.21391
H     2.18293   2.63440  -1.04667
H     3.73652   1.76086  -0.77629
H     2.75517   1.47301  -2.25342
H    -2.54254  -0.71506  -0.50204
H    -1.99492   1.63592   0.74315
H    -3.08360   1.73658  -0.65856
H    -0.34547   2.89742  -0.50077
H    -1.47254   2.96174  -1.87450
H     0.41284   1.52373  -2.71952
H    -2.12897   0.61380  -2.83445
H    -0.96853  -0.75518  -2.67043
