46
Generated by autodE on: 2022-06-08. E = -3799.617957 Ha. Imaginary frequency = -387.7 cm-1
C    -4.66418   1.33908  -1.06626
O    -3.22911   1.36756  -1.11311
C    -2.59237   1.33208   0.05509
O    -3.13197   1.31311   1.14607
C    -1.14447   1.24460  -0.13510
O    -0.35969   1.40347   0.98326
C     0.89831   1.25908   0.55981
C     2.02611   1.42920   1.45749
C     3.29659   1.72859   0.93467
C     4.38703   1.83033   1.79616
C     4.21800   1.63306   3.17118
C     2.95206   1.33502   3.68940
C     1.85382   1.22822   2.83887
O     0.97488   1.64445  -0.73028
C    -0.33364   1.66487  -1.26423
O    -0.54344   1.94429  -2.41180
C     0.63479  -0.96116   0.20820
C     1.87589  -1.08787  -0.58954
C     3.09345  -1.62959   0.12115
O     1.93715  -0.73063  -1.76126
C     0.48049  -1.65614   1.57168
C     0.21028  -3.16070   1.25300
C    -1.22298  -3.13429   0.65086
C    -1.59843  -1.62035   0.69875
C    -0.92638  -1.22502   2.02770
C    -0.69469  -0.94017  -0.33030
Br   -1.13317  -1.31776  -2.15775
H    -5.04812   2.21611  -0.52610
H    -4.99766   1.35809  -2.10972
H    -5.01048   0.42043  -0.57124
H     3.42194   1.86952  -0.13947
H     5.37450   2.06350   1.39286
H     5.07608   1.71143   3.84238
H     2.82136   1.18219   4.76257
H     0.86618   0.98920   3.23446
H     3.26671  -1.10415   1.07137
H     3.97012  -1.52310  -0.53061
H     2.94868  -2.69376   0.36540
H     1.30466  -1.47864   2.27143
H     0.24593  -3.74702   2.18292
H     0.94995  -3.58580   0.56177
H    -1.93682  -3.69035   1.27515
H    -1.27459  -3.54433  -0.36611
H    -2.66843  -1.41535   0.57928
H    -1.29384  -1.84213   2.86025
H    -1.02680  -0.17262   2.29748
