46
Generated by autodE on: 2022-06-19. E = -960.741328 Ha
C    -5.33442   2.14120   0.03745
C    -4.26437   1.44980   0.47915
C    -4.25163   0.78291   1.82960
C    -3.06789   1.34298  -0.36365
C    -1.94267   0.68457  -0.03143
C    -0.73070   0.62319  -0.90024
C     0.56274   1.24203  -0.29900
C     0.78611   0.97677   1.18093
C     0.09210   1.75942   2.11813
C     0.24536   1.54268   3.48899
C     1.10685   0.54037   3.94855
C     1.81540  -0.23298   3.02525
C     1.65617  -0.01663   1.65226
N     1.57685   0.70444  -1.20654
N     1.16858  -0.65394  -1.44417
C     2.04270  -1.61155  -1.78828
O     1.75482  -2.76463  -2.10992
O     3.32212  -1.15911  -1.72330
C     4.34204  -2.10255  -2.05937
C    -0.30017  -0.81844  -1.33700
C    -0.64361  -1.89534  -0.30123
C    -0.92379  -1.16398  -2.69100
H    -5.33028   2.62316  -0.94503
H    -6.23898   2.24300   0.64364
H    -4.09169  -0.30396   1.73345
H    -3.42628   1.16681   2.45231
H    -5.19721   0.94765   2.36511
H    -3.11427   1.85577  -1.33167
H    -1.88263   0.17324   0.93104
H    -0.93044   1.18991  -1.82056
H     0.51813   2.33099  -0.43992
H    -0.57547   2.54888   1.76444
H    -0.30476   2.16233   4.20146
H     1.23061   0.36916   5.02052
H     2.49769  -1.01282   3.37210
H     2.21830  -0.63452   0.95042
H     2.49589   0.67008  -0.76347
H     4.22185  -2.45911  -3.09304
H     4.32294  -2.96295  -1.37420
H     5.29344  -1.56633  -1.95809
H    -0.27346  -1.63235   0.69824
H    -0.19889  -2.85412  -0.59778
H    -1.73372  -2.02593  -0.24530
H    -0.63834  -2.17570  -3.01090
H    -2.02076  -1.11969  -2.60983
H    -0.60330  -0.44593  -3.46053
