46
Generated by autodE on: 2022-06-19. E = -960.690450 Ha. Imaginary frequency = -381.6 cm-1
C    -3.40758   1.34875   3.14877
C    -2.89806   0.43421   2.29213
C    -2.80171  -1.02031   2.67622
C    -2.37801   0.85213   0.99573
C    -1.74081   0.04843   0.10556
C    -1.09071   0.51986  -1.09724
C     0.93728   1.00276  -0.33284
C     0.77218   1.37278   1.06349
C     0.42760   2.70471   1.36059
C     0.13540   3.09258   2.66805
C     0.18011   2.15459   3.70468
C     0.52025   0.82617   3.42206
C     0.80223   0.43413   2.11478
N     1.53181  -0.14710  -0.71990
N     1.29504  -0.45990  -2.01962
C     1.86528  -1.60847  -2.47927
O     1.67369  -2.05382  -3.60733
O     2.66870  -2.23331  -1.58356
C     3.29738  -3.44029  -2.02402
C    -0.74785  -0.34669  -2.18682
C    -1.09096  -1.81410  -2.08017
C    -0.82381   0.23947  -3.57260
H    -3.45902   2.40819   2.87972
H    -3.77875   1.06213   4.13662
H    -3.31490  -1.66327   1.94218
H    -1.74971  -1.34977   2.70380
H    -3.24469  -1.20186   3.66571
H    -2.47143   1.91886   0.76270
H    -1.63413  -1.01241   0.34606
H    -1.28236   1.56417  -1.36209
H     1.01584   1.81224  -1.05932
H     0.37862   3.43375   0.54815
H    -0.13473   4.12983   2.87887
H    -0.05326   2.45491   4.72853
H     0.54658   0.08584   4.22476
H     1.02964  -0.61517   1.91519
H     1.53058  -0.92733  -0.05657
H     2.54600  -4.20498  -2.27064
H     3.92668  -3.25297  -2.90655
H     3.91854  -3.78160  -1.18690
H    -0.72408  -2.25627  -1.14233
H    -2.18696  -1.94292  -2.10145
H    -0.67017  -2.38312  -2.91912
H    -1.87476   0.24333  -3.91318
H    -0.46049   1.27774  -3.58600
H    -0.23803  -0.35077  -4.29051
