34
Generated by autodE on: 2022-07-26. E = -674.951111 Ha
C     2.58648  -2.00013  -2.48365
C     1.96478  -1.03853  -1.53750
N     0.89498  -1.30345  -0.80877
C     0.40376  -2.69735  -0.80830
C     0.13464  -0.31656  -0.16458
C    -0.39347  -0.61883   1.15491
C    -1.57434  -0.00044   1.64969
C    -2.08814  -0.30784   2.90585
C    -1.45826  -1.25239   3.73082
C    -0.29324  -1.87322   3.26849
C     0.23624  -1.55688   2.01664
C     0.02183   1.00464  -0.78449
C    -0.06759   1.17144  -2.19357
C    -0.24909   2.42264  -2.77145
C    -0.34761   3.57611  -1.97611
C    -0.25326   3.43947  -0.58886
C    -0.06469   2.18405  -0.00497
H     2.87585  -2.94754  -1.99744
H     3.48649  -1.55225  -2.92525
H     1.89953  -2.26733  -3.30983
H     2.33735  -0.01548  -1.47738
H     0.13352  -2.96933  -1.83857
H    -0.48422  -2.77328  -0.17763
H     1.17920  -3.38634  -0.45008
H    -2.10104   0.72022   1.02165
H    -3.00361   0.18592   3.24371
H    -1.86714  -1.49385   4.71456
H     0.22415  -2.60248   3.89827
H     1.16859  -2.03097   1.70355
H     0.00134   0.29567  -2.84354
H    -0.32464   2.50283  -3.85948
H    -0.48973   4.55775  -2.43366
H    -0.31283   4.32273   0.05326
H     0.02281   2.11220   1.08044
