34
Generated by autodE on: 2022-05-30. E = -674.955708 Ha
C    -2.22348   2.17478   0.77961
C    -1.65084   2.22842  -0.57670
N    -0.63427   1.48141  -0.98468
C    -0.07486   1.83374  -2.31216
C    -0.12298   0.37522  -0.30005
C    -1.03097  -0.56983   0.33445
C    -2.35985  -0.77238  -0.12465
C    -3.19535  -1.73155   0.44703
C    -2.75633  -2.52434   1.51365
C    -1.45652  -2.32823   1.99957
C    -0.61673  -1.37368   1.43062
C     1.32869   0.21570  -0.29393
C     1.95355  -1.05774  -0.29548
C     3.34014  -1.18731  -0.31369
C     4.16648  -0.05473  -0.34186
C     3.57324   1.21185  -0.34445
C     2.18463   1.34600  -0.30990
H    -2.99304   1.38238   0.88727
H    -2.69973   3.13637   1.02208
H    -1.44215   1.93700   1.52182
H    -2.07095   2.90560  -1.32351
H     0.32576   2.85548  -2.30573
H    -0.88483   1.76934  -3.05219
H     0.71089   1.12487  -2.58385
H    -2.73516  -0.18075  -0.96246
H    -4.20594  -1.86102   0.04975
H    -3.41517  -3.27025   1.96378
H    -1.09455  -2.92053   2.84467
H     0.38196  -1.23309   1.84666
H     1.33508  -1.95669  -0.30384
H     3.78421  -2.18649  -0.32213
H     5.25361  -0.16054  -0.35993
H     4.19856   2.10876  -0.35690
H     1.74857   2.34659  -0.27853
