32
Generated by autodE on: 2022-06-11. E = -966.680285 Ha
C    -1.12269  -2.20860   3.52653
O    -0.98092  -1.59641   2.23216
C    -0.72771  -0.29181   2.20653
O    -0.59898   0.40506   3.18464
C    -0.63089   0.20880   0.75280
C    -2.04369   0.06329   0.15955
O    -3.03101   0.40471   0.77371
O    -2.04797  -0.42051  -1.07198
C    -3.32821  -0.53698  -1.72142
C     0.39109  -0.49871  -0.00385
C     1.31644  -0.71428  -0.75448
C     2.36200  -0.26077  -1.67416
F     3.56841  -0.21654  -1.01360
F     2.54960  -1.12625  -2.71930
C     2.00606   1.12388  -2.20349
C     1.63703   2.17063  -1.13487
C     0.15512   2.27538  -0.67557
C    -0.22123   1.71789   0.71154
H    -0.19785  -2.08549   4.10732
H    -1.96457  -1.75515   4.06848
H    -1.31701  -3.26994   3.33659
H    -3.12215  -0.95559  -2.71255
H    -3.98260  -1.20806  -1.14800
H    -3.79652   0.45302  -1.81123
H     1.17952   0.99181  -2.91863
H     2.88769   1.45767  -2.77392
H     1.90869   3.14459  -1.56784
H     2.29676   2.04609  -0.25988
H    -0.50905   1.85433  -1.44856
H    -0.08955   3.34722  -0.63509
H     0.61972   1.84107   1.40905
H    -1.06845   2.28122   1.12894
