20
Generated by autodE on: 2022-05-30. E = -552.814571 Ha
C    -2.30430  -3.01160   0.08296
C    -1.51714  -1.80513   0.03203
N    -0.86279  -0.85170  -0.00804
C    -0.19340   0.33161  -0.08219
C    -1.01736   1.47650  -0.40513
C    -0.36956   2.83717  -0.50585
O    -2.23690   1.34534  -0.59655
C     1.23148   0.31028   0.16031
O     1.98428   1.27779   0.13273
O     1.68367  -0.94064   0.43432
C     3.08426  -1.06822   0.68765
H    -2.97578  -3.05098  -0.78902
H    -1.61989  -3.87430   0.04542
H    -2.89329  -3.05122   1.01223
H    -1.14654   3.57376  -0.75079
H     0.12166   3.11112   0.43968
H     0.41152   2.84540  -1.28059
H     3.38300  -0.47052   1.56198
H     3.67361  -0.74755  -0.18460
H     3.26086  -2.13254   0.88575
