16
Generated by autodE on: 2022-05-30. E = -644.713703 Ha
F     1.63908   0.87669  -1.18586
C     1.48434  -0.15057  -0.31861
F     2.31368   0.10328   0.71722
F     1.93893  -1.25840  -0.92758
C     0.07529  -0.27314   0.11352
C    -0.79738  -1.26190  -0.09086
C    -2.13199  -0.71179   0.46453
C    -2.58404   0.41507  -0.49438
C    -1.70939   1.40527  -0.29731
C    -0.73872   0.86647   0.77853
O    -1.63929   0.07310   1.56900
H    -0.65794  -2.21692  -0.59514
H    -2.88200  -1.44550   0.77712
H    -3.40764   0.33949  -1.20334
H    -1.61724   2.36902  -0.79640
H    -0.17970   1.59304   1.37730
