36
Generated by autodE on: 2022-05-30. E = -1197.522618 Ha. Imaginary frequency = -349.8 cm-1
C    -3.45119   2.41080  -1.56161
O    -2.99826   1.07499  -1.32765
C    -2.78542   0.72899  -0.03826
O    -3.00624   1.49448   0.88773
C    -2.25647  -0.62987   0.08086
C    -2.07716  -1.31373   1.35848
C    -1.75986  -2.78995   1.29738
O    -2.14843  -0.72447   2.43990
N    -2.05826  -1.31925  -1.05940
C    -1.37371  -1.44997  -2.02896
C    -1.24646  -2.03681  -3.35693
C     0.36666  -0.05154  -1.61915
C     1.46608  -1.10612  -1.32817
C     2.74369  -0.33481  -0.92864
C     2.46236   0.17788   0.27223
C     3.23923   1.12603   1.10082
F     4.45085   1.39319   0.58549
F     3.43207   0.66434   2.35518
F     2.58824   2.30551   1.22848
C     1.01253  -0.27184   0.58513
O     1.03528  -1.56730  -0.03536
C     0.11538   0.50342  -0.39291
H    -2.71256   3.14223  -1.20077
H    -3.57093   2.50410  -2.64767
H    -4.41327   2.59261  -1.06019
H    -1.70230  -3.18698   2.31901
H    -0.79491  -2.93861   0.78933
H    -2.52445  -3.33711   0.72461
H    -1.99614  -2.82968  -3.50143
H    -0.23277  -2.43469  -3.50659
H    -1.41178  -1.23758  -4.09770
H     0.21855   0.42163  -2.59012
H     1.58540  -1.92926  -2.03991
H     3.63057  -0.20177  -1.54646
H     0.71339  -0.31408   1.63730
H    -0.33910   1.46338  -0.15964
