44
Generated by autodE on: 2022-06-22. E = -1274.482778 Ha
C     2.91312   4.18629  -0.62178
O     1.95082   3.19950  -0.21029
C     2.09337   1.98394  -0.71804
O     2.97046   1.65042  -1.48942
C     1.03259   1.02687  -0.26444
N    -0.14515   1.40932   0.05145
C    -0.95467   0.21700   0.34229
C    -1.82620   0.51673   1.56893
O    -1.61964   0.08329   2.67952
O    -2.81215   1.34780   1.25496
C    -3.69463   1.74965   2.31821
C    -1.85296  -0.10406  -0.85476
O    -1.75750   0.40446  -1.94895
O    -2.72640  -1.05115  -0.53532
C    -3.55223  -1.56407  -1.59371
C     0.10256  -0.91989   0.61747
N    -0.27605  -2.28836   0.46776
C    -1.08463  -2.90235   1.50497
C    -0.10971  -2.90402  -0.75423
C     0.56205  -2.37246  -1.79846
C     1.16281  -0.99797  -1.75471
C     1.28094  -0.46373  -0.29767
C     2.60006  -0.80435   0.39108
N     3.10695  -2.01818   0.13997
O     3.11946   0.00617   1.16651
H     2.85994   4.33818  -1.70918
H     2.64340   5.10709  -0.09292
H     3.92743   3.86682  -0.34334
H    -4.19438   0.86949   2.74655
H    -4.42842   2.42212   1.86060
H    -3.12917   2.27347   3.10161
H    -4.19027  -2.32618  -1.13316
H    -4.16336  -0.75959  -2.02561
H    -2.91898  -2.01297  -2.37239
H     0.40247  -0.75380   1.66253
H    -1.07637  -3.99296   1.37259
H    -0.66515  -2.67154   2.49552
H    -2.13219  -2.55642   1.48587
H    -0.53439  -3.90865  -0.81448
H     0.67247  -2.96415  -2.70865
H     2.16270  -0.98388  -2.21399
H     0.55910  -0.29000  -2.34547
H     2.63283  -2.67190  -0.47770
H     3.95767  -2.30976   0.61228
