25
Generated by autodE on: 2022-06-16. E = -515.240116 Ha
C     0.16513   1.83504  -0.82687
N    -0.19115   0.76249   0.08323
C    -1.58098   0.23179   0.07844
C    -2.01802  -0.28072  -1.30389
C    -2.55747   1.29999   0.56648
C    -1.44119  -0.91885   1.08677
C    -0.07257  -1.53482   0.79119
C     0.75157  -0.34356   0.18066
C     1.33083  -0.75028  -1.13073
N     1.74185  -1.02102  -2.18129
C     1.88256   0.04596   1.05504
N     2.74360   0.36722   1.76218
H     1.17044   2.21025  -0.57949
H    -0.53819   2.66939  -0.70386
H     0.16658   1.53648  -1.89257
H    -2.01497   0.53318  -2.04458
H    -3.04173  -0.68083  -1.24884
H    -1.36358  -1.08244  -1.67820
H    -2.22948   1.72378   1.52745
H    -2.66045   2.11894  -0.16174
H    -3.55365   0.85309   0.70523
H    -2.25106  -1.65478   0.99020
H    -1.46439  -0.51036   2.10754
H    -0.13807  -2.33596   0.04499
H     0.42798  -1.94066   1.67818
