19
Generated by autodE on: 2022-06-16. E = -436.562496 Ha
C    -2.81323   0.67692  -0.58609
C    -1.56884  -0.06633  -0.23431
C    -1.69598  -1.43991   0.31643
N    -0.38983   0.48198  -0.41440
C    -0.24759   1.77701  -1.10298
C     0.80831  -0.07842   0.13008
C     0.83160  -0.51943   1.45848
N     0.83925  -0.88541   2.57323
C     1.98028  -0.07874  -0.63830
N     2.96683  -0.07970  -1.27326
H    -2.73516   1.75439  -0.39042
H    -3.65938   0.26426  -0.02159
H    -3.03431   0.53999  -1.66006
H    -2.62989  -1.89015  -0.04715
H    -1.74675  -1.41669   1.41951
H    -0.83324  -2.06342   0.04030
H     0.75887   1.83197  -1.53207
H    -0.98228   1.86718  -1.90940
H    -0.37285   2.59582  -0.38010
