19
Generated by autodE on: 2022-07-27. E = -436.562510 Ha
C    -1.92088  -1.12615  -0.29208
C    -1.56000   0.23975   0.16661
C    -2.65852   1.21822   0.41137
N    -0.30642   0.57655   0.36059
C     0.05498   1.87210   0.96280
C     0.78360  -0.23405  -0.08794
C     0.76732  -0.77077  -1.38061
N     0.74118  -1.21401  -2.46666
C     1.90883  -0.39086   0.73251
N     2.85580  -0.52446   1.41209
H    -1.92493  -1.18057  -1.39520
H    -2.93507  -1.36843   0.05417
H    -1.19984  -1.87319   0.07042
H    -2.95884   1.17419   1.47391
H    -2.37199   2.25203   0.17981
H    -3.53602   0.94027  -0.18730
H     1.03069   1.76527   1.44973
H    -0.68451   2.16880   1.71294
H     0.12958   2.63696   0.17662
