56
Generated by autodE on: 2022-06-24. E = -1246.132656 Ha
C    -2.54016  -0.41089  -2.37527
C    -1.06127  -0.52229  -2.11040
O    -0.25621  -0.30605  -3.00363
C    -0.60750  -0.84514  -0.65690
C    -1.13728  -2.22329  -0.27190
C    -1.59464  -2.51290   1.02012
C    -2.00064  -3.80763   1.35760
C    -1.95342  -4.83270   0.40858
C    -1.49407  -4.55377  -0.88256
C    -1.08998  -3.25931  -1.21771
C     0.93817  -0.78035  -0.54228
C     1.48516  -1.52238   0.68529
C     2.86536  -1.03620   1.05092
C     3.79968  -1.84151   1.84214
N     3.35150  -3.05484   2.26256
O     4.95489  -1.46596   2.13894
C     3.25695   0.22479   0.69668
N     2.51650   1.09248  -0.02873
C     2.93613   2.47045  -0.21230
C     1.17985   0.73207  -0.45885
C     0.02504   1.24298   0.44054
C    -0.40685   2.66185   0.12044
C    -0.86877   3.01282  -1.15873
C    -1.26214   4.32320  -1.43853
C    -1.19914   5.30607  -0.44356
C    -0.74525   4.96604   0.83361
C    -0.35748   3.65089   1.11082
N    -1.01852   0.23672   0.23873
C    -2.38386   0.56379   0.56558
H    -3.14167  -1.04926  -1.71734
H    -2.73618  -0.65113  -3.42925
H    -2.84478   0.63516  -2.20534
H    -1.62365  -1.72417   1.77146
H    -2.35414  -4.01508   2.37059
H    -2.27215  -5.84370   0.67310
H    -1.44746  -5.34699  -1.63256
H    -0.72439  -3.05833  -2.22791
H     1.39932  -1.18456  -1.45165
H     0.79654  -1.39692   1.53812
H     1.49293  -2.59947   0.46030
H     3.95903  -3.61760   2.84723
H     2.40218  -3.36768   2.10642
H     4.24427   0.58526   0.99369
H     2.65219   2.81774  -1.21739
H     2.47101   3.14851   0.52334
H     4.02776   2.54209  -0.11005
H     1.04045   1.15651  -1.46137
H     0.36274   1.23171   1.49459
H    -0.92000   2.25856  -1.94659
H    -1.61888   4.57996  -2.43901
H    -1.50547   6.33146  -0.66407
H    -0.69462   5.72498   1.61826
H    -0.00675   3.38416   2.11137
H    -2.43388   0.96930   1.59092
H    -2.84513   1.31600  -0.10290
H    -3.01134  -0.33584   0.53504
