36
Generated by autodE on: 2022-07-27. E = -788.364208 Ha
C    -1.41398  -1.33184  -2.15581
C    -1.34059  -0.30468  -1.03700
O    -1.87464   0.81389  -1.24948
C    -0.65291  -0.63141   0.16512
C    -0.13542  -1.96823   0.51793
C     1.14194  -2.09358   1.10597
C     1.65618  -3.34070   1.46304
C     0.91233  -4.50306   1.23094
C    -0.35654  -4.39873   0.65137
C    -0.87828  -3.14889   0.31149
N    -0.61600   0.33422   1.19153
C    -0.94899  -0.12812   2.55697
C    -0.39626   1.62834   1.04348
C     0.24706   2.36030  -0.02357
C     0.88469   1.79780  -1.15362
C     1.57213   2.61102  -2.05167
C     1.60491   3.99953  -1.87737
C     0.96379   4.57470  -0.77417
C     0.30310   3.76455   0.14492
H    -2.40205  -1.82094  -2.16435
H    -0.64442  -2.11155  -2.09914
H    -1.31154  -0.78794  -3.10721
H     1.74096  -1.19515   1.27388
H     2.64935  -3.40707   1.91449
H     1.31611  -5.48088   1.50387
H    -0.95406  -5.29730   0.47763
H    -1.88502  -3.08301  -0.10380
H    -1.25870   0.73181   3.16217
H    -0.07201  -0.59424   3.02332
H    -1.76145  -0.86246   2.50435
H    -0.66899   2.22872   1.91362
H     0.86745   0.72138  -1.31062
H     2.07351   2.15733  -2.90968
H     2.12605   4.63083  -2.60082
H     0.98632   5.65675  -0.62715
H    -0.17701   4.21271   1.01829
