20
Generated by autodE on: 2022-06-24. E = -457.715330 Ha
C    -2.98634  -0.94401   0.52896
N    -1.81712  -0.21911   0.05884
C    -1.97771   1.04062  -0.53157
C    -0.93866   1.80883  -0.89571
C     0.49974   1.39453  -0.70587
C     0.57500   0.03715  -0.02570
C     1.86876  -0.58659   0.29668
N     2.97340   0.12047  -0.04997
O     1.97694  -1.69677   0.85622
C    -0.55021  -0.65701   0.30483
H    -2.69213  -1.95997   0.82109
H    -3.74059  -1.01542  -0.26949
H    -3.44908  -0.44792   1.39923
H    -3.01408   1.35063  -0.67730
H    -1.14537   2.77692  -1.35767
H     1.04281   2.16266  -0.11815
H     1.02295   1.37667  -1.68431
H     2.92493   1.01825  -0.51427
H     3.88592  -0.27536   0.14710
H    -0.46564  -1.62895   0.79354
