56
Generated by autodE on: 2022-06-24. E = -1246.045600 Ha. Imaginary frequency = -388.0 cm-1
C    -1.35234  -1.03629  -2.80724
C    -1.71525  -0.09016  -1.68071
O    -2.40843   0.89938  -1.93799
C    -1.20737  -0.35153  -0.32479
C    -1.37753  -1.73616   0.18682
C    -0.57822  -2.26290   1.22233
C    -0.72051  -3.58076   1.65553
C    -1.67674  -4.41733   1.07299
C    -2.50018  -3.90997   0.06280
C    -2.35739  -2.58984  -0.36657
C     1.13638  -0.00425  -1.06233
C     1.71150  -1.37966  -0.81527
C     2.33454  -1.48627   0.55705
C     2.73013  -2.77933   1.12414
N     2.65334  -3.85123   0.29301
O     3.11746  -2.92519   2.30364
C     2.50016  -0.37536   1.33018
N     2.16529   0.88598   0.95278
C     2.28254   1.97887   1.90219
C     1.44765   1.09729  -0.25490
C    -0.49379   1.89735   0.32106
C    -0.70759   2.92296  -0.73852
C    -0.45818   2.79217  -2.11872
C    -0.63226   3.87089  -2.98751
C    -1.05666   5.11335  -2.50744
C    -1.28727   5.27235  -1.13813
C    -1.10096   4.19536  -0.27000
N    -1.14758   0.70682   0.57071
C    -1.36240   0.47754   2.01352
H    -2.26839  -1.39827  -3.29818
H    -0.73817  -1.88904  -2.49680
H    -0.79667  -0.45060  -3.55825
H     0.18524  -1.64425   1.68172
H    -0.06676  -3.95331   2.44784
H    -1.78606  -5.45153   1.40789
H    -3.26890  -4.54191  -0.38852
H    -3.03653  -2.21351  -1.13261
H     0.91415   0.21832  -2.10426
H     0.94312  -2.16172  -0.94745
H     2.46485  -1.59032  -1.60312
H     2.29201  -3.78341  -0.64964
H     2.84534  -4.77167   0.67223
H     2.93899  -0.47008   2.32525
H     3.19155   1.85343   2.50640
H     1.41448   2.03058   2.58277
H     2.35349   2.93208   1.36002
H     1.66363   2.05910  -0.72143
H    -0.35123   2.42230   1.26754
H    -0.10572   1.85205  -2.53136
H    -0.42898   3.73635  -4.05270
H    -1.19384   5.95275  -3.19323
H    -1.60878   6.23830  -0.74111
H    -1.27377   4.33353   0.80034
H    -1.81790   1.37752   2.44408
H    -0.42087   0.27153   2.54279
H    -2.04958  -0.35959   2.16417
