42
Generated by autodE on: 2022-06-02. E = -1679.402637 Ha
C    -1.61798   3.18426   3.67698
O    -0.98957   2.11297   2.94856
C    -1.32855   1.98045   1.67945
O    -2.11737   2.68746   1.08370
C    -0.64227   0.83421   0.99238
N     0.06441  -0.02402   1.61261
C     0.52284  -1.06110   0.67156
C    -0.24659  -2.26617   1.04325
N    -0.83749  -3.19266   1.41181
C     2.01346  -1.35417   0.81598
C     2.86921  -0.39269   1.36329
C     4.24474  -0.63407   1.41516
C     4.76909  -1.83087   0.91947
C     3.91230  -2.79147   0.37230
C     2.53720  -2.55624   0.32160
C     0.13807  -0.54427  -0.78367
Cl   -0.56912  -1.86052  -1.78480
C     1.31028   0.15710  -1.56179
C     0.78498   0.53383  -2.93771
C    -0.02309   1.58009  -2.73470
C     0.01184   1.83319  -1.23861
O     1.34346   1.41975  -0.89014
C    -0.79440   0.69091  -0.50577
C    -2.26393   0.49432  -0.83769
O    -2.97907  -0.22444  -0.17119
O    -2.66030   1.17343  -1.90077
C    -4.03982   1.03440  -2.28551
H    -1.37648   4.14989   3.21087
H    -2.70766   3.04170   3.69124
H    -1.21032   3.13438   4.69235
H     2.46345   0.54475   1.74291
H     4.90816   0.11926   1.84571
H     5.84460  -2.01720   0.96142
H     4.31425  -3.73030  -0.01476
H     1.87532  -3.30963  -0.11058
H     2.26742  -0.36671  -1.50569
H     0.99507  -0.00650  -3.85903
H    -0.64131   2.12149  -3.44722
H    -0.21046   2.84129  -0.87687
H    -4.69283   1.38547  -1.47435
H    -4.26282  -0.01679  -2.51496
H    -4.16532   1.65780  -3.17747
