23
Generated by autodE on: 2022-06-02. E = -684.168667 Ha
C    -4.98163   0.56198   0.76598
O    -3.84845   0.14319  -0.02182
C    -2.72166   0.81715   0.15770
O    -2.55276   1.76476   0.89848
C    -1.65768   0.34991  -0.72852
N    -0.67721  -0.33494  -0.63413
C     0.47937  -0.92609  -0.58594
C     0.54558  -2.28038  -1.02487
N     0.62072  -3.38778  -1.37838
C     1.67351  -0.21290  -0.09918
C     2.94472  -0.80617  -0.20611
C     4.07608  -0.12572   0.24473
C     3.95731   1.14994   0.80545
C     2.69388   1.74153   0.91738
C     1.55659   1.06801   0.47391
H    -4.76708   0.43632   1.83648
H    -5.80886  -0.08890   0.46298
H    -5.22118   1.61333   0.55391
H     3.04881  -1.79923  -0.64827
H     5.05759  -0.59645   0.15433
H     4.84483   1.67972   1.15837
H     2.59076   2.73428   1.36121
H     0.57487   1.53261   0.58609
