42
Generated by autodE on: 2022-06-02. E = -1679.304279 Ha. Imaginary frequency = -302.8 cm-1
C    -1.75673   3.87776   2.43361
O    -0.97444   2.73375   2.02944
C    -1.62500   1.58680   1.91985
O    -2.79893   1.39119   2.15401
C    -0.78178   0.54728   1.32624
N    -0.14692  -0.43608   1.59843
C     0.53356  -1.48307   1.13277
C    -0.20579  -2.69387   1.00860
N    -0.80126  -3.68526   0.87110
C     2.00003  -1.50233   1.12048
C     2.74044  -0.41236   1.61318
C     4.13154  -0.41958   1.53213
C     4.80265  -1.50778   0.96231
C     4.07041  -2.59645   0.47669
C     2.67835  -2.59999   0.55724
C    -0.01977  -0.57048  -1.32808
Cl   -0.58383  -2.02468  -2.06069
C     1.37922  -0.02328  -1.67905
C     1.20367   0.75521  -3.00231
C     0.49702   1.84080  -2.66806
C     0.24685   1.70771  -1.15304
O     1.45805   1.05393  -0.73864
C    -0.76058   0.54079  -0.96365
C    -2.21877   0.69810  -1.02109
O    -3.03543  -0.20378  -1.02646
O    -2.55416   2.00140  -1.01898
C    -3.95344   2.30936  -0.96072
H    -2.55693   4.05371   1.70061
H    -1.05809   4.72075   2.45295
H    -2.18797   3.70989   3.42973
H     2.22388   0.43799   2.06045
H     4.69728   0.43068   1.91960
H     5.89314  -1.50877   0.90107
H     4.58587  -3.45008   0.03107
H     2.11189  -3.44715   0.16519
H     2.21630  -0.72319  -1.59250
H     1.54550   0.41595  -3.97927
H     0.10375   2.63749  -3.29823
H     0.05174   2.61735  -0.57871
H    -4.02002   3.40318  -0.93705
H    -4.39902   1.88158  -0.05180
H    -4.47286   1.91652  -1.84661
