19
Generated by autodE on: 2022-06-17. E = -664.755162 Ha
N     4.02949  -1.97683  -0.88670
C     3.15287  -1.26217  -0.59216
C     2.12711  -0.38985  -0.23237
O     0.79145  -0.81255  -0.32344
C     0.03246   0.16781   0.06633
C    -1.40361   0.07703   0.09213
C    -2.15953   1.18093   0.53560
C    -3.54779   1.09232   0.55653
C    -4.18158  -0.08446   0.13914
C    -3.42935  -1.18099  -0.30173
C    -2.04087  -1.10840  -0.32809
O     0.70762   1.21735   0.41573
C     2.16831   0.92459   0.24197
O     2.97708   1.77389   0.51201
H    -1.65349   2.09196   0.85757
H    -4.14054   1.94257   0.89864
H    -5.27177  -0.14811   0.15699
H    -3.93109  -2.09439  -0.62627
H    -1.44513  -1.95553  -0.67049
