44
Generated by autodE on: 2022-10-25. E = -3462.633353 Ha
C    -3.66711   1.10115  -1.57974
O    -2.79233   0.32027  -2.38681
C    -1.86544  -0.44338  -1.74497
Br   -2.88986  -2.07940  -0.83739
C    -1.12583   0.16138  -0.65327
C    -0.13616   0.33973   0.02574
C     1.24835   0.30385   0.50062
C     1.93593   1.62630   0.11377
C     3.16710   1.67676  -0.55041
C     3.76824   2.90797  -0.84045
C     3.14685   4.10244  -0.47212
C     1.91532   4.06044   0.19205
C     1.31831   2.83308   0.48000
C     1.36456   0.08078   2.01479
C     2.60960   0.22795   2.64415
C     2.74903  -0.02304   4.01086
C     1.64348  -0.42090   4.77070
C     0.40029  -0.56882   4.15039
C     0.26301  -0.32126   2.78055
C     1.83109  -0.95390  -0.23443
C     1.56468  -1.05733  -1.75210
C     0.30178  -1.83993  -2.21284
C    -0.89395  -1.04550  -2.76380
H    -3.09840   1.77295  -0.91599
H    -4.31194   0.44687  -0.97090
H    -4.28330   1.69414  -2.26697
H     3.67559   0.75946  -0.84628
H     4.72922   2.92707  -1.36009
H     3.61715   5.06172  -0.70066
H     1.41804   4.98779   0.48646
H     0.35869   2.80709   1.00243
H     3.47664   0.54650   2.06213
H     3.72581   0.09724   4.48572
H     1.75131  -0.61231   5.84095
H    -0.47100  -0.87744   4.73326
H    -0.71084  -0.44457   2.30188
H     1.40975  -1.83746   0.26853
H     2.91193  -0.97733  -0.03334
H     2.43743  -1.57375  -2.18047
H     1.56967  -0.05336  -2.20656
H     0.61229  -2.50661  -3.03159
H    -0.04612  -2.50664  -1.40724
H    -0.52988  -0.18520  -3.35202
H    -1.48812  -1.67012  -3.44689
