33
Generated by autodE on: 2022-06-11. E = -3528.362701 Ha
C    -3.10352   0.10056  -3.53498
C    -2.50221   0.64796  -2.27620
O    -3.16957   1.07304  -1.35517
C    -0.94364   0.68383  -2.18059
C    -0.51968   1.92764  -3.01258
C    -0.37997   3.22050  -2.27141
O    -0.34778   1.81736  -4.20952
C    -0.55039   0.74453  -0.78009
C    -0.15261   0.36296   0.29882
C     0.38589  -0.58465   1.24782
Br    2.35657  -0.22231   1.47127
C    -0.23766  -0.44089   2.64655
F    -1.56469  -0.64460   2.57466
F     0.25977  -1.33312   3.51029
F    -0.05059   0.78103   3.15824
C     0.18571  -2.00635   0.67755
C     0.57769  -2.20653  -0.79808
C    -0.46923  -1.88259  -1.90177
C    -0.27098  -0.60530  -2.74401
H    -2.56741   0.45997  -4.42458
H    -4.16539   0.37388  -3.58117
H    -3.01472  -0.99840  -3.52277
H    -0.25141   4.05163  -2.97622
H    -1.26128   3.38238  -1.63060
H     0.49354   3.15993  -1.60143
H    -0.88326  -2.24366   0.80609
H     0.74757  -2.70295   1.31619
H     0.82023  -3.27570  -0.88822
H     1.52116  -1.67507  -1.00483
H    -0.44218  -2.71813  -2.61729
H    -1.48523  -1.90040  -1.47204
H    -0.65222  -0.76390  -3.76047
H     0.80425  -0.39353  -2.84923
