23
Generated by autodE on: 2022-06-11. E = -741.439329 Ha
C     0.20011   3.78998   0.05534
O     0.26217   2.35889   0.03466
C    -0.91501   1.70727   0.02837
O    -1.99283   2.27422   0.03988
C    -0.72293   0.25468   0.00588
N     0.51378  -0.21427  -0.00283
C     1.61284  -0.61281  -0.01020
C     2.95954  -1.15513  -0.02292
C     4.06028  -0.14242   0.00682
O     3.09671  -2.36776  -0.05268
C    -1.83438  -0.70009  -0.00880
O    -3.01612  -0.40489  -0.00424
O    -1.38992  -1.96974  -0.02833
C    -2.38769  -2.99740  -0.04423
H     1.24008   4.13654   0.05785
H    -0.31855   4.14284   0.95879
H    -0.32271   4.16853  -0.83525
H     3.98907   0.45476   0.93083
H     5.02711  -0.66089  -0.03665
H     3.95717   0.55106  -0.84350
H    -3.01968  -2.93902   0.85405
H    -3.02004  -2.91079  -0.93997
H    -1.84090  -3.94743  -0.05922
