44
Generated by autodE on: 2022-05-31. E = -1315.392181 Ha
C     0.78459   3.40017  -1.21798
O     0.64073   2.00487  -0.90883
C     0.08290   1.69991   0.26101
O    -0.27056   2.52455   1.07670
C    -0.05922   0.19787   0.44685
C     0.94831  -0.62848  -0.34524
C     2.40317  -0.53040  -0.10369
C     2.93844   0.39656   0.80806
C     4.31748   0.47217   1.01804
C     5.18155  -0.37682   0.32263
C     4.65916  -1.30428  -0.58769
C     3.28481  -1.37936  -0.79952
N     0.44310  -1.45915  -1.17638
C    -1.00904  -1.29266  -1.30153
C    -1.72221  -2.64693  -1.35287
C    -1.21074  -0.59824  -2.66442
C    -1.42093  -0.41598  -0.04833
C    -2.55709   0.57121  -0.36571
F    -3.05946   1.20327   0.70519
F    -3.59340  -0.08787  -0.92929
F    -2.19766   1.54704  -1.22522
C    -1.85919  -1.16882   1.29297
C    -0.88069  -2.27501   1.65915
C     0.21124  -1.65334   2.11909
C    -0.10723  -0.17489   2.00108
O    -1.50938  -0.15504   2.24351
H     1.41967   3.89240  -0.46810
H     1.25671   3.44150  -2.20573
H    -0.20227   3.88371  -1.24358
H     2.29261   1.07431   1.36680
H     4.71533   1.19943   1.72907
H     6.25981  -0.31739   0.48785
H     5.32949  -1.97106  -1.13497
H     2.87255  -2.09796  -1.50808
H    -2.81134  -2.49991  -1.36567
H    -1.46573  -3.29262  -0.50613
H    -1.43607  -3.17617  -2.27346
H    -0.74244  -1.23023  -3.43213
H    -2.27354  -0.49022  -2.91642
H    -0.72888   0.38627  -2.69211
H    -2.92513  -1.41472   1.33468
H    -1.05290  -3.34171   1.53288
H     1.16538  -2.07685   2.42897
H     0.42337   0.52917   2.64738
