22
Generated by autodE on: 2022-05-31. E = -442.579614 Ha
C    -3.23012   1.64177  -0.25217
C    -2.67126   0.27870   0.05128
C    -3.45119  -0.63229   0.95905
N    -1.57328  -0.10427  -0.46801
C    -0.55514  -0.51723  -1.05542
C     0.78031  -0.31586  -0.44960
C     1.89993  -0.85447  -1.10763
C     3.18316  -0.69426  -0.57921
C     3.36169   0.01311   0.61352
C     2.25511   0.55913   1.27849
C     0.97506   0.39499   0.75268
H    -3.36251   2.21807   0.67931
H    -2.57333   2.20632  -0.92785
H    -4.22740   1.54919  -0.71673
H    -3.59312  -0.16053   1.94627
H    -4.45742  -0.81380   0.54255
H    -2.94349  -1.59662   1.09689
H     1.74582  -1.40165  -2.04065
H     4.04532  -1.11940  -1.09828
H     4.36467   0.14193   1.02766
H     2.39687   1.11261   2.21002
H     0.11066   0.81922   1.27035
