44
Generated by autodE on: 2022-05-31. E = -1315.288177 Ha. Imaginary frequency = -130.4 cm-1
C     2.16200   2.96224   0.73536
O     1.21017   1.99281   1.18657
C     0.29459   1.58110   0.28861
O     0.19449   2.09542  -0.81448
C    -0.47892   0.43682   0.79315
C     1.03833  -0.78489  -0.40877
C     2.47537  -0.58299  -0.39242
C     3.16160  -0.43882   0.82793
C     4.52390  -0.14236   0.83193
C     5.20655   0.04589  -0.37491
C     4.52709  -0.08028  -1.59234
C     3.17093  -0.40176  -1.60604
N     0.28865  -1.35826  -1.18816
C    -0.85531  -1.60683  -1.74476
C    -1.51563  -2.94352  -1.56976
C    -1.26618  -0.76260  -2.91910
C    -1.74339  -0.00853   0.43644
C    -2.82642   0.62279  -0.33856
F    -3.63641   1.38337   0.46324
F    -3.66898  -0.30070  -0.88319
F    -2.44344   1.43453  -1.33462
C    -2.19010  -0.87178   1.65167
C    -1.31562  -2.12600   1.67992
C    -0.09950  -1.69055   2.03033
C    -0.26388  -0.17832   2.21518
O    -1.60603  -0.10890   2.73331
H     2.85308   3.11922   1.57168
H     2.70954   2.58433  -0.14062
H     1.66321   3.90696   0.47437
H     2.62309  -0.55663   1.76816
H     5.05339  -0.04194   1.78178
H     6.26990   0.29603  -0.36726
H     5.05858   0.06947  -2.53487
H     2.63314  -0.49865  -2.55123
H    -2.57818  -2.80122  -1.32237
H    -1.03623  -3.53825  -0.78378
H    -1.47397  -3.50446  -2.52027
H    -0.84704   0.24832  -2.85378
H    -2.36085  -0.70543  -2.98101
H    -0.90740  -1.24021  -3.84856
H    -3.26978  -1.00274   1.77752
H    -1.63610  -3.12233   1.38245
H     0.84059  -2.23514   2.10549
H     0.45397   0.34572   2.85087
