31
Generated by autodE on: 2022-10-20. E = -3357.751478 Ha
C     4.45184   0.41552  -0.29300
O     3.39643  -0.48642  -0.65926
C     2.84450  -1.20071   0.32610
O     3.21271  -1.14680   1.48249
C     1.67246  -2.00858  -0.16715
N     1.27502  -3.04011   0.78766
C    -0.11321  -3.34040   0.41632
C    -0.77230  -2.02659  -0.04667
C    -1.39374  -1.18831   1.10868
O    -0.23536  -0.60843   1.72609
C     0.23024   0.07178   0.54857
C    -1.02281   0.82947   0.11566
Br   -0.89205   2.39805  -0.92357
C    -2.05276   0.02869   0.46274
O    -3.37570   0.00620   0.28919
C    -3.99485   1.03239  -0.49079
C     0.42823  -1.10933  -0.44952
H     5.29901  -0.13748   0.13744
H     4.08855   1.15417   0.43618
H     4.75724   0.91581  -1.21916
H     1.96232  -2.47488  -1.12176
H     1.25740  -2.58345   1.70167
H    -0.64357  -3.81066   1.25610
H    -0.11649  -4.05589  -0.42139
H    -1.50340  -2.18781  -0.84918
H    -2.01108  -1.73861   1.82844
H     1.10874   0.69025   0.76661
H    -5.06777   0.80337  -0.50038
H    -3.83530   2.02120  -0.03559
H    -3.60837   1.02783  -1.52073
H     0.41389  -0.75769  -1.48741
