14
Generated by autodE on: 2022-10-26. E = -361.974388 Ha
C    -2.22008  -2.23372   0.29477
N    -1.35197  -1.26632   0.42023
C    -0.49182  -0.70408  -0.47248
C     0.32440   0.34908   0.01201
O     0.31716   0.79511   1.16911
O     1.15626   0.85376  -0.94509
C     2.01483   1.91710  -0.53898
H    -2.80800  -2.51711   1.16594
H    -2.33489  -2.72979  -0.67006
H    -1.28094  -0.82911   1.34869
H    -0.46675  -1.07593  -1.49408
H     2.68961   1.59938   0.27120
H     1.43690   2.78975  -0.19657
H     2.60418   2.19000  -1.42365
