14
Generated by autodE on: 2022-10-20. E = -361.972576 Ha
C     2.75427   1.22371  -0.25278
N     1.52315   0.79509  -0.16280
C     1.02924  -0.45191   0.07942
C    -0.37033  -0.67204   0.13081
O    -0.92558  -1.75550   0.33783
O    -1.10105   0.47425  -0.07872
C    -2.51951   0.34345  -0.04793
H     2.92072   2.27973  -0.45737
H     3.57754   0.51978  -0.12262
H     0.78837   1.49976  -0.29367
H     1.73121  -1.26945   0.23045
H    -2.92497   1.34593  -0.23504
H    -2.86552  -0.01841   0.93282
H    -2.87324  -0.34970  -0.82704
