17
Generated by autodE on: 2022-10-20. E = -2995.673362 Ha
C     2.65328   0.75503   0.67344
O     1.57030   0.64395   1.60079
C     0.40206   0.16365   1.17281
C    -0.12998  -0.27222   0.01434
Br    0.49440  -0.33917  -1.76110
C    -1.62031  -0.52909   0.35089
C    -2.28466   0.84313   0.61660
C    -1.74897   1.26340   1.76644
C    -0.77708   0.13412   2.17739
O    -1.49031  -1.01838   1.69883
H     3.50918   1.13346   1.24604
H     2.40820   1.46195  -0.13303
H     2.90252  -0.22762   0.24543
H    -2.14801  -1.23393  -0.30110
H    -2.98531   1.34206  -0.05219
H    -1.88366   2.20197   2.30254
H    -0.49201   0.05496   3.23228
