58
Generated by autodE on: 2022-06-30. E = -1880.169467 Ha
C    -6.27403 -10.46228  -1.37899
N    -5.75044  -9.11216  -1.29303
C    -5.36506  -8.59100  -0.12768
O    -5.49036  -9.12326   0.96897
N    -4.73860  -7.30360  -0.25115
N    -4.11006  -7.05209  -1.41559
C    -3.43575  -5.93079  -1.24445
C    -2.65428  -5.46007  -2.42113
C    -3.09630  -4.38490  -3.20521
C    -2.38352  -4.00282  -4.34430
C    -1.22709  -4.69485  -4.71612
C    -0.79425  -5.78300  -3.95184
C    -1.50707  -6.16719  -2.81463
C    -3.61393  -5.42932   0.09840
C    -4.52313  -6.32703   0.70085
C    -5.29507  -6.36275   2.03045
C    -6.71172  -7.05601   1.78595
C    -7.34573  -7.86401   2.88170
O    -7.31241  -6.80054   0.76119
C    -5.87429  -4.95177   2.37515
C    -6.12484  -4.58364   3.81444
O    -6.21680  -4.21765   1.47057
C    -4.50755  -7.08294   3.15889
C    -3.31047  -6.39731   3.82845
C    -2.28095  -5.78705   2.88235
C    -2.76669  -4.44652   2.29913
C    -2.76248  -4.33742   0.75875
C    -3.21454  -2.89029   0.40317
F    -4.27005  -2.49729   1.12240
F    -2.23083  -2.00331   0.65905
F    -3.54597  -2.75200  -0.88601
C    -1.26375  -4.46975   0.30186
F    -0.42334  -3.94186   1.20581
F    -1.01035  -3.84169  -0.85755
F    -0.90245  -5.75306   0.15147
H    -5.47614 -11.21695  -1.28236
H    -7.01082 -10.63211  -0.58230
H    -6.76490 -10.58861  -2.35149
H    -5.48741  -8.60980  -2.13680
H    -4.00571  -3.85249  -2.92749
H    -2.73764  -3.16330  -4.94725
H    -0.66861  -4.39222  -5.60517
H     0.10199  -6.33616  -4.24257
H    -1.16817  -7.01436  -2.21596
H    -7.53106  -7.22438   3.75906
H    -6.70690  -8.69417   3.20377
H    -8.30381  -8.24900   2.51030
H    -6.98075  -3.89703   3.85518
H    -6.29556  -5.45248   4.46079
H    -5.24391  -4.04987   4.20563
H    -4.17279  -8.03311   2.72070
H    -5.21124  -7.34848   3.95615
H    -2.82302  -7.16869   4.44579
H    -3.65282  -5.62289   4.53291
H    -2.04647  -6.51093   2.08889
H    -1.33917  -5.61685   3.42396
H    -2.16915  -3.61862   2.69942
H    -3.78266  -4.23054   2.62875
