36
Generated by autodE on: 2022-06-30. E = -1291.969192 Ha
C     2.89651  -0.77446   1.87163
C     2.15793   0.38921   2.45639
O     2.16112   0.65427   3.64025
C     1.37792   1.31419   1.46151
C     2.37412   2.43518   1.06596
C     2.61632   3.52438   2.06557
O     2.92452   2.39394  -0.01733
C     0.92572   0.56180   0.29913
C     0.19230  -0.08232  -0.41429
C    -1.03141  -0.75039  -0.84562
C    -0.74467  -2.25358  -1.08098
F     0.09022  -2.45419  -2.10958
F    -0.17010  -2.79020   0.00718
F    -1.86541  -2.94401  -1.32554
C    -1.56062  -0.09849  -2.14531
F    -0.64927  -0.12505  -3.12715
F    -1.87823   1.18671  -1.93474
F    -2.66217  -0.71475  -2.59639
C    -2.07710  -0.60093   0.31542
C    -2.06207   0.72495   1.10309
C    -1.06485   0.86437   2.28846
C     0.09200   1.87519   2.14235
H     3.46793  -0.45433   0.98617
H     3.55841  -1.21877   2.62557
H     2.16757  -1.52526   1.52546
H     3.49146   4.11446   1.76512
H     1.73183   4.18142   2.10098
H     2.75112   3.11213   3.07572
H    -1.89966  -1.42838   1.01697
H    -3.07371  -0.76604  -0.11862
H    -3.07744   0.81819   1.51699
H    -1.94898   1.57474   0.41497
H    -0.66419  -0.12459   2.56775
H    -1.64462   1.19924   3.16192
H     0.38796   2.23501   3.13637
H    -0.25061   2.74848   1.56639
