22
Generated by autodE on: 2022-07-27. E = -588.078578 Ha
C    -1.83890  -3.44064   3.46334
N    -0.79322  -3.19542   2.49481
C    -0.75306  -2.05484   1.76659
O    -1.64059  -1.19080   1.81298
N     0.38824  -1.98125   0.96388
N     0.43650  -0.91855   0.26647
C     0.52866   0.03795  -0.39146
C     0.63884   1.20866  -1.18818
C    -0.34141   2.21724  -1.07421
C    -0.23472   3.36609  -1.85460
C     0.83512   3.52046  -2.74373
C     1.80618   2.51872  -2.85506
C     1.71719   1.36145  -2.08438
H    -1.74845  -4.47020   3.83218
H    -1.78040  -2.75488   4.32684
H    -2.83320  -3.32016   3.00691
H     0.01056  -3.81179   2.45748
H    -1.17057   2.08673  -0.37704
H    -0.99256   4.14757  -1.76746
H     0.91209   4.42421  -3.35207
H     2.64039   2.63911  -3.54943
H     2.46903   0.57491  -2.16557
