77
Generated by autodE on: 2022-07-02. E = -1860.985577 Ha
C    17.66305   9.14960  15.49230
C    16.55650   8.48867  16.26923
O    15.49882   8.21477  15.72683
C    16.82611   8.01825  17.74859
C    18.09333   8.65596  18.32424
C    15.49294   8.12196  18.54291
C    14.80777   6.95672  18.41816
C    15.71639   5.92035  17.73209
C    15.84579   4.53961  18.36019
C    15.59615   3.39675  17.59124
C    15.76021   2.11817  18.13017
C    16.18475   1.96710  19.45358
C    16.46740   3.10251  20.22156
C    16.31139   4.37698  19.67162
N    17.02202   6.56201  17.69629
C    17.91112   6.00364  16.69372
C    13.32492   6.56682  18.67479
C    13.05249   6.13906  20.12442
C    14.03142   6.16170  21.12089
C    13.74469   5.78498  22.43852
C    12.45761   5.37711  22.78751
C    11.46076   5.35499  21.80429
C    11.75615   5.73249  20.49492
C    12.97187   5.39401  17.70672
C    12.93618   5.64426  16.32191
C    12.58580   4.64736  15.41155
C    12.24860   3.36637  15.86429
C    12.29005   3.10027  17.23233
C    12.65826   4.10063  18.13914
C    12.30633   7.71113  18.24151
C    11.70258   8.65726  19.27759
C    12.54057   9.84356  19.72572
C    13.94365   9.50629  20.24127
C    15.17302   9.44088  19.26357
C    16.32181   9.77869  20.27313
C    16.65768   8.73346  21.30336
O    16.84202  10.87659  20.28791
C    15.05006  10.60219  18.25113
F    14.14094  10.32435  17.29380
F    14.66696  11.75147  18.82948
F    16.19648  10.87206  17.59345
H    17.31732   9.34460  14.46884
H    18.54989   8.49865  15.46329
H    17.97249  10.09028  15.96873
H    18.06807   9.74831  18.32776
H    18.27606   8.29135  19.34079
H    18.95923   8.35433  17.72032
H    15.33674   5.76341  16.70689
H    15.25229   3.51451  16.56138
H    15.55010   1.23871  17.51666
H    16.30680   0.96928  19.88216
H    16.81627   2.99495  21.25158
H    16.56538   5.25475  20.26504
H    17.51153   6.06402  15.65999
H    18.89094   6.49897  16.72079
H    18.07456   4.93880  16.91562
H    15.03425   6.49394  20.87518
H    14.53772   5.81550  23.18964
H    12.22781   5.08218  23.81409
H    10.44486   5.04395  22.05965
H    10.96330   5.70612  19.74566
H    13.20563   6.63176  15.94505
H    12.57414   4.87373  14.34255
H    11.96554   2.58508  15.15492
H    12.05349   2.10113  17.60602
H    12.71847   3.84672  19.19555
H    11.45594   7.18710  17.78776
H    12.77239   8.28681  17.43078
H    11.38484   8.08686  20.16132
H    10.77284   9.05421  18.83674
H    12.01382  10.32611  20.56471
H    12.57317  10.60214  18.93488
H    13.91559   8.56827  20.80495
H    14.20010  10.28570  20.97308
H    17.60163   9.00620  21.79152
H    16.72512   7.72973  20.86754
H    15.86137   8.70975  22.06343
