48
Generated by autodE on: 2022-07-02. E = -1264.377379 Ha
C    -0.59902  -1.54284  -3.24362
C    -1.96192  -1.11694  -2.79217
O    -2.97168  -1.32584  -3.43347
C    -2.03894  -0.32749  -1.45591
C    -3.32443  -0.71717  -0.70308
F    -3.40246  -2.05240  -0.54883
F    -4.43843  -0.31741  -1.32820
F    -3.35814  -0.18049   0.53159
C    -0.88602  -0.53260  -0.58487
C     0.05499  -0.25228   0.12296
C     1.07302   0.55635   0.80257
C     1.37317   0.08764   2.23204
C     2.44450   0.65544   2.93814
C     2.70427   0.28141   4.25818
C     1.89848  -0.67090   4.89235
C     0.83093  -1.24173   4.19500
C     0.56985  -0.86305   2.87381
C     2.36189   0.51386  -0.04001
C     3.08216   1.66435  -0.38329
C     4.26910   1.56726  -1.12012
C     4.75074   0.32085  -1.52424
C     4.03680  -0.83448  -1.18522
C     2.85464  -0.73535  -0.45112
C     0.40803   1.97385   0.86869
C    -0.19760   2.51419  -0.44464
C    -1.69481   2.21091  -0.73489
C    -2.03359   1.19587  -1.84529
H    -0.25175  -2.35898  -2.58822
H     0.12708  -0.72302  -3.13784
H    -0.64262  -1.89495  -4.28195
H     3.08495   1.39269   2.44985
H     3.54307   0.73347   4.79305
H     2.10416  -0.96699   5.92372
H     0.19548  -1.98778   4.67852
H    -0.26952  -1.31035   2.33719
H     2.72950   2.64971  -0.07938
H     4.81621   2.47696  -1.37920
H     5.67567   0.24777  -2.10110
H     4.40214  -1.81665  -1.49483
H     2.30290  -1.64129  -0.18820
H    -0.37968   1.91817   1.63565
H     1.15943   2.67626   1.25756
H    -0.09377   3.60938  -0.40036
H     0.41907   2.19867  -1.30189
H    -2.15894   3.15286  -1.06610
H    -2.21398   1.94113   0.19718
H    -1.30699   1.31210  -2.66454
H    -3.02285   1.41606  -2.27173
