29
Generated by autodE on: 2022-07-27. E = -596.529525 Ha
C     1.15895   4.03977  -1.40335
C     0.65549   2.63359  -1.09300
O    -0.35232   2.23749  -1.74919
C     1.33888   1.87588  -0.10417
C     2.53389   2.43401   0.62399
N     0.90961   0.58782   0.26227
C     1.71592  -0.09360   1.29601
C    -0.11595  -0.05674  -0.28684
C    -0.73594  -1.30174   0.13513
C    -1.37599  -2.05554  -0.87850
C    -2.04562  -3.24045  -0.58385
C    -2.11859  -3.69757   0.73726
C    -1.52470  -2.94712   1.75764
C    -0.84420  -1.76457   1.46816
H     0.52385   4.45647  -2.19650
H     2.20368   4.03957  -1.75231
H     1.10633   4.70378  -0.52573
H     2.68187   3.48492   0.35910
H     2.42096   2.39975   1.72019
H     3.47801   1.91307   0.38215
H     1.49455   0.31114   2.29174
H     2.77707   0.05544   1.07763
H     1.50827  -1.16461   1.27547
H    -0.53831   0.44882  -1.15189
H    -1.32900  -1.69822  -1.90994
H    -2.51768  -3.80959  -1.38812
H    -2.64676  -4.62449   0.97178
H    -1.60095  -3.28020   2.79542
H    -0.42952  -1.18228   2.29013
