77
Generated by autodE on: 2022-07-02. E = -1860.905991 Ha. Imaginary frequency = -246.4 cm-1
C    17.85964   9.18884  15.78040
C    17.07884   8.02774  16.36506
O    16.28018   7.43357  15.62265
C    17.39457   7.64217  17.74950
C    18.55465   8.34852  18.40829
C    15.07412   8.32789  18.54158
C    14.52440   7.20085  18.59562
C    15.97554   5.73845  17.80578
C    15.73838   4.29279  18.03574
C    15.57504   3.49856  16.88348
C    15.32626   2.13031  16.97791
C    15.21923   1.52278  18.23288
C    15.37749   2.29692  19.38637
C    15.64053   3.66461  19.29043
N    17.12295   6.36210  18.19115
C    17.88450   5.84140  19.33020
C    13.23643   6.48257  18.90719
C    13.29732   5.88074  20.31997
C    14.41017   6.07068  21.15059
C    14.43086   5.58776  22.46286
C    13.32624   4.90873  22.98030
C    12.19500   4.73847  22.17551
C    12.17849   5.22827  20.86783
C    12.91803   5.47327  17.78093
C    12.99117   5.93541  16.45506
C    12.65948   5.10912  15.38040
C    12.23728   3.79519  15.60805
C    12.16814   3.32259  16.91956
C    12.50855   4.15164  17.99305
C    12.02666   7.49020  18.87769
C    11.90345   8.51660  20.01246
C    12.41645   9.93711  19.76413
C    13.92441  10.17522  19.88042
C    14.90437   9.79495  18.71757
C    16.25357  10.45164  19.12057
C    16.80519  10.07375  20.46863
O    16.80685  11.27028  18.41138
C    14.40642  10.40902  17.39344
F    13.28130   9.80529  16.95291
F    14.11474  11.71490  17.53329
F    15.28574  10.30477  16.38641
H    17.47776   9.38940  14.77139
H    18.93002   8.93237  15.71839
H    17.77252  10.09705  16.38930
H    18.54193   9.41823  18.18673
H    18.54369   8.24062  19.49695
H    19.52281   7.95807  18.04451
H    15.63705   6.07207  16.83272
H    15.63379   3.97311  15.90185
H    15.20050   1.53870  16.06818
H    15.01098   0.45312  18.31169
H    15.29086   1.83534  20.37297
H    15.74205   4.24778  20.20173
H    18.94716   6.07062  19.20938
H    17.52430   6.27581  20.27535
H    17.77575   4.75535  19.37227
H    15.27795   6.60548  20.76622
H    15.31829   5.74711  23.08031
H    13.33879   4.52793  24.00425
H    11.31279   4.22856  22.57023
H    11.27114   5.10909  20.27531
H    13.32907   6.95499  16.25943
H    12.73398   5.49424  14.36033
H    11.97711   3.14439  14.76988
H    11.86445   2.29166  17.11612
H    12.47948   3.73873  18.99882
H    11.12491   6.86073  18.88314
H    12.03217   7.99857  17.90484
H    12.36131   8.12588  20.93530
H    10.82876   8.60891  20.23827
H    11.97513  10.57122  20.55087
H    12.01580  10.32885  18.81799
H    14.28319   9.64509  20.77285
H    14.07975  11.24964  20.06820
H    17.87880  10.29208  20.50001
H    16.61015   9.02314  20.72046
H    16.30755  10.69933  21.22729
