32
Generated by autodE on: 2022-05-29. E = -1485.327210 Ha
C     2.50307   2.64656  -1.52840
O     2.09035   1.47862  -0.80337
C     1.21661   1.66661   0.18262
O     0.79518   2.76056   0.52065
C     0.79763   0.42236   0.84010
C     1.23481  -0.85008   0.74826
Cl    2.42340  -1.55826  -0.25046
C     0.37529  -1.66499   1.70902
O     0.07721  -0.69979   2.71703
C    -0.36202   0.34299   1.82715
C    -1.58101  -0.37309   1.14649
C    -1.93801  -0.07247  -0.32131
C    -1.69126   1.33246  -0.83389
O    -1.04673   1.59582  -1.82434
O    -2.31205   2.21732  -0.06444
C    -2.21802   3.60169  -0.45106
O    -1.14076  -0.96079  -1.10691
N    -1.16494  -2.17143  -0.33707
C    -0.52165  -3.17511  -0.91887
N    -0.03025  -4.10584  -1.42591
C    -1.05218  -1.82850   1.08323
H     2.96673   3.37938  -0.85295
H     3.23044   2.29716  -2.26990
H     1.63646   3.10211  -2.02932
H     0.82136  -2.57788   2.11485
H    -0.60429   1.26458   2.36281
H    -2.46119  -0.27770   1.78965
H    -3.00898  -0.29350  -0.47418
H    -2.80691   4.15699   0.28719
H    -1.16952   3.92523  -0.42883
H    -2.63487   3.74139  -1.45823
H    -1.63690  -2.54423   1.67102
