13
Generated by autodE on: 2022-05-29. E = -490.081788 Ha
C    -3.02632   0.96427  -0.50726
O    -1.66065   0.56531  -0.28444
C    -1.45181  -0.72030  -0.04883
O    -2.29698  -1.59035  -0.00405
C    -0.02314  -1.04784   0.17115
O     0.82658  -0.11463   0.11281
N     2.15755  -0.39331   0.31272
C     2.83088   0.74302   0.20448
N     3.55438   1.66496   0.13706
H    -3.63510   0.73465   0.37880
H    -3.43352   0.44050  -1.38382
H    -2.99601   2.04466  -0.68447
H     0.29453  -2.07560   0.37817
