32
Generated by autodE on: 2022-05-29. E = -1485.224833 Ha. Imaginary frequency = -182.1 cm-1
C     2.57669   2.12265  -1.82339
O     2.12363   1.10971  -0.91448
C     1.34099   1.51303   0.08648
O     1.03237   2.67857   0.28016
C     0.88581   0.42286   0.95072
C     1.16266  -0.89468   1.01235
Cl    2.18128  -1.87512   0.06347
C     0.32959  -1.44625   2.18783
O     0.36955  -0.30590   3.06259
C    -0.13491   0.63081   2.08063
C    -1.45486  -0.07966   1.68647
C    -1.98104  -0.05619  -0.63628
C    -1.73055   1.34837  -1.05533
O    -0.88252   1.66269  -1.86328
O    -2.55272   2.17805  -0.42819
C    -2.38487   3.58132  -0.70512
O    -1.15945  -0.90914  -1.14387
N    -1.36804  -2.20955  -0.72606
C    -0.52747  -3.01066  -1.36482
N     0.11565  -3.84880  -1.87565
C    -1.15722  -1.40809   1.77847
H     1.71778   2.60110  -2.31519
H     3.16729   2.88347  -1.29294
H     3.19926   1.60580  -2.56268
H     0.69624  -2.36467   2.65547
H    -0.22021   1.64753   2.47250
H    -2.43119   0.39718   1.73998
H    -2.95763  -0.39483  -0.28834
H    -3.13882   4.09687  -0.10081
H    -1.37304   3.89703  -0.41537
H    -2.54608   3.77805  -1.77427
H    -1.81876  -2.26840   1.76523
