23
Generated by autodE on: 2022-10-21. E = -646.324301 Ha
C     3.38964  -0.83153  -0.27037
O     2.32334   0.02739   0.15026
C     1.08838  -0.30386  -0.25782
O     0.86356  -1.31959  -0.90598
C     0.06794   0.66185   0.11117
N    -1.25894   0.34699  -0.02813
C    -1.99521  -0.73524  -0.13876
C    -3.47400  -0.61111  -0.34099
C    -1.48248  -2.05408   0.02105
N    -1.24771  -3.17773   0.21981
C     0.23589   2.08002   0.41513
C     1.59866   2.69660   0.56653
O    -0.78251   2.78412   0.53680
H     3.44909  -0.87029  -1.36794
H     3.24519  -1.84894   0.12125
H     4.30699  -0.39509   0.14169
H    -1.79510   1.23510   0.02352
H    -4.01873  -1.14774   0.45171
H    -3.77482   0.44578  -0.33987
H    -3.76253  -1.06118  -1.30508
H     2.21781   2.51409  -0.32352
H     1.47619   3.77563   0.72615
H     2.12970   2.25193   1.42099
