48
Generated by autodE on: 2022-10-21. E = -1148.324282 Ha. Imaginary frequency = -269.1 cm-1
C     3.51352   0.04947   2.21947
O     2.84356  -0.53487   1.10026
C     2.19830   0.31119   0.27683
O     2.21011   1.52171   0.47024
C     1.49085  -0.32830  -0.81485
C     1.72338  -1.66893  -1.33686
C     2.53811  -2.69895  -0.59642
O     1.22272  -1.97940  -2.43660
N     0.78622   0.46420  -1.71221
C    -0.18203   1.39338  -1.46510
C    -1.07907   1.67635  -2.65452
C     0.10259   2.59416  -0.71807
N     0.14842   3.65102  -0.23307
C    -1.47635   0.50901   0.14609
O    -1.78337   1.56216   0.97744
C    -2.80292   2.46646   0.56335
C    -2.56728  -0.25449  -0.61418
C    -3.47897  -0.91565   0.46402
C    -2.56777  -2.01712   1.07269
C    -1.22363  -1.84779   0.28067
C    -1.77375  -1.47475  -1.10811
C    -0.68565  -0.51641   0.74791
O    -0.12747  -0.29190   1.93821
C     0.39753  -1.40495   2.67461
H     2.81548   0.64383   2.82588
H     4.34049   0.69418   1.88627
H     3.90559  -0.78881   2.80754
H     2.54697  -3.61870  -1.19571
H     3.56769  -2.34847  -0.43698
H     2.11493  -2.91097   0.39459
H     0.58437  -0.10667  -2.53915
H    -0.53164   2.26346  -3.41060
H    -1.40802   0.73403  -3.11375
H    -1.96290   2.25021  -2.35386
H    -2.87096   3.23203   1.34769
H    -2.56126   2.95991  -0.38814
H    -3.77810   1.96288   0.47151
H    -3.10675   0.32538  -1.37090
H    -4.36843  -1.34717  -0.01724
H    -3.81973  -0.19120   1.21556
H    -2.96231  -3.02626   0.88467
H    -2.43209  -1.90608   2.15649
H    -0.54298  -2.70338   0.34632
H    -1.00122  -1.25383  -1.84738
H    -2.42972  -2.26023  -1.50925
H     0.99727  -0.98083   3.48798
H    -0.42411  -2.00181   3.09672
H     1.02821  -2.03485   2.03817
