28
Generated by autodE on: 2022-06-03. E = -691.408508 Ha
C    -2.58452   2.28806   1.13772
C    -1.21770   1.91474   0.61386
O    -0.24006   2.62145   0.86373
C    -1.15357   0.68940  -0.18688
C    -0.14741  -0.20280  -0.42609
C     1.26456  -0.28112  -0.07537
C     1.86644  -1.55580   0.03866
C     3.21010  -1.68342   0.38548
C     3.99135  -0.54314   0.60179
C     3.41515   0.72509   0.47340
C     2.06737   0.85946   0.14264
C    -0.87010  -1.39677  -1.12247
C    -1.73903  -2.08498  -0.05119
C    -2.72497  -1.21580   0.19024
C    -2.42811  -0.01641  -0.73532
O    -1.86344  -0.68676  -1.87054
H    -3.07543   1.42880   1.62183
H    -3.23046   2.59715   0.29899
H    -2.49375   3.11991   1.84811
H     1.27415  -2.45744  -0.12584
H     3.65159  -2.67786   0.48221
H     5.04736  -0.64325   0.86347
H     4.02245   1.61955   0.63109
H     1.61646   1.84445   0.05068
H    -0.24846  -2.03119  -1.76140
H    -1.51337  -3.04115   0.41932
H    -3.54003  -1.26456   0.91150
H    -3.26796   0.62737  -1.01367
