23
Generated by autodE on: 2022-07-27. E = -517.874494 Ha
C     0.07074   3.27914   0.09080
N    -0.13331   2.02951  -0.23715
C     0.17877   0.81870   0.36509
C     0.87128   0.82079   1.61210
C     1.33142  -0.48815   2.22764
O     1.15087   1.88361   2.22274
C    -0.22676  -0.37692  -0.40166
C    -0.82343  -1.49112   0.22566
C    -1.21415  -2.61021  -0.51103
C    -1.04244  -2.64302  -1.89914
C    -0.46911  -1.54133  -2.54103
C    -0.05891  -0.42921  -1.80287
H     0.58906   3.51450   1.01397
H    -0.30357   4.03614  -0.59855
H    -0.63600   1.91036  -1.12061
H     2.24815  -0.28433   2.80010
H     0.57550  -0.86302   2.93748
H     1.52422  -1.27897   1.49103
H    -1.00559  -1.46949   1.30067
H    -1.67447  -3.45768   0.00319
H    -1.35492  -3.51752  -2.47449
H    -0.32250  -1.55204  -3.62398
H     0.41931   0.40462  -2.32348
