32
Generated by autodE on: 2022-06-26. E = -635.869242 Ha
C     4.12348   0.28434   1.11172
C     2.62407   0.18188   0.85348
O     1.85134   0.12879   1.85673
C     2.20242   0.11252  -0.49188
C     3.15786   0.02518  -1.65357
N     0.83255  -0.09958  -0.74772
C     0.49712  -1.20708  -1.65857
C    -0.11495   0.62717  -0.16685
C     0.20587   1.94376   0.43478
C    -1.49963   0.12344  -0.06916
C    -2.59092   0.93488  -0.43139
C    -3.89685   0.46016  -0.30523
C    -4.13529  -0.82061   0.20502
C    -3.05806  -1.62660   0.58804
C    -1.75029  -1.16100   0.45141
H     4.54406   1.21594   0.69834
H     4.68117  -0.55099   0.65841
H     4.29112   0.27408   2.19747
H     3.51600  -0.99922  -1.87164
H     2.70282   0.41480  -2.57773
H     4.05019   0.63791  -1.46354
H     0.68677  -2.17271  -1.17014
H    -0.54806  -1.14339  -1.97495
H     1.13630  -1.13201  -2.54590
H     1.06400   2.40461  -0.08036
H     0.51222   1.80222   1.48737
H    -0.67077   2.60444   0.40956
H    -2.41361   1.93413  -0.83396
H    -4.73380   1.09455  -0.60594
H    -5.15906  -1.18708   0.30990
H    -3.23707  -2.62153   1.00216
H    -0.91214  -1.78279   0.77047
