26
Generated by autodE on: 2022-06-26. E = -689.460852 Ha
C     3.21111  -0.90528   0.62439
O     1.91847  -1.45779   0.35485
C     0.83258  -0.70201   0.19283
C     0.69290   0.64697   0.32929
O     1.71004   1.46418   0.73186
C     2.25698   2.32683  -0.27107
C    -0.62584   1.28488   0.12719
O    -0.74671   2.49528   0.30827
C    -1.79848   0.45353  -0.27993
C    -3.09890   1.15503  -0.51367
C    -1.67399  -0.89093  -0.40624
C    -2.82797  -1.76616  -0.78674
C    -0.36059  -1.54428  -0.17272
O    -0.21697  -2.75427  -0.28223
H     3.89159  -1.76562   0.65628
H     3.52122  -0.22170  -0.17884
H     3.22514  -0.38294   1.58954
H     3.05364   2.90562   0.21479
H     2.68669   1.73724  -1.09803
H     1.49571   3.01458  -0.66756
H    -3.87400   0.77801   0.17426
H    -2.99715   2.23710  -0.37110
H    -3.46640   0.96216  -1.53509
H    -3.65868  -1.64928  -0.07168
H    -3.22227  -1.48206  -1.77654
H    -2.53355  -2.82175  -0.81622
