54
Generated by autodE on: 2022-06-22. E = -1003.522379 Ha
C     1.41293  -2.70031   0.21255
C     1.75185  -1.96246  -0.85500
C     2.77743  -2.44679  -1.84523
C     1.13111  -0.61176  -1.15017
C    -0.22461  -0.33607  -0.47914
C    -1.33234  -1.18536  -1.01602
C    -2.24720  -1.87457  -0.31007
C    -3.30611  -2.68992  -1.00314
C    -2.32811  -1.89226   1.19216
C    -0.39611   1.20710  -0.65618
C    -0.87392   1.59877  -2.06579
C    -1.36479   1.74970   0.39812
C    -0.91787   2.49857   1.49672
C    -1.80668   2.93617   2.48518
C    -3.16704   2.63331   2.39415
C    -3.62975   1.89901   1.29689
C    -2.74060   1.46951   0.30909
N     0.97842   1.67104  -0.41951
C     1.98594   0.65992  -0.78492
C     2.85887   1.13612  -1.94784
C     2.89244   0.34072   0.42523
O     3.98961  -0.22151   0.29300
N     2.39505   0.68340   1.62114
C     3.08984   0.41706   2.86112
H     1.88182  -3.67314   0.38932
H     0.66813  -2.37520   0.94142
H     3.10739  -3.47126  -1.61853
H     2.37247  -2.42561  -2.87119
H     3.66430  -1.79383  -1.83821
H     0.98162  -0.56471  -2.24091
H    -0.11334  -0.49727   0.60012
H    -1.38389  -1.24516  -2.10958
H    -3.20701  -2.65239  -2.09822
H    -4.31520  -2.33036  -0.73313
H    -3.26073  -3.74671  -0.68513
H    -3.30648  -1.50385   1.52478
H    -1.54856  -1.29350   1.67944
H    -2.25923  -2.92760   1.56962
H    -0.22316   1.16483  -2.83842
H    -0.84230   2.69514  -2.16981
H    -1.90307   1.27079  -2.26523
H     0.13961   2.75144   1.57225
H    -1.42976   3.51975   3.32906
H    -3.86248   2.97093   3.16641
H    -4.69218   1.65861   1.20711
H    -3.12463   0.89499  -0.53338
H     1.15812   2.55852  -0.88266
H     2.22738   1.34393  -2.82381
H     3.39296   2.06048  -1.67480
H     3.60660   0.38315  -2.22660
H     1.52898   1.21608   1.59483
H     4.00540   1.02499   2.95664
H     3.38321  -0.64230   2.92318
H     2.42598   0.65006   3.70319
