23
Generated by autodE on: 2022-06-22. E = -351.521382 Ha
C     3.60534  -0.19019  -1.12449
C     2.49959   0.34887  -0.56540
C     2.52302   1.72675   0.04549
C     1.24929  -0.40781  -0.54483
C     0.07491   0.01914  -0.01621
C    -1.13787  -0.77331  -0.02359
C    -2.34595  -0.42451   0.48678
C    -3.51712  -1.36179   0.39838
C    -2.63467   0.88203   1.17002
H     4.55358   0.35374  -1.15356
H     3.58537  -1.19100  -1.56682
H     2.24709   1.69293   1.11261
H     3.51942   2.18293  -0.03921
H     1.79433   2.39227  -0.44649
H     1.28502  -1.40429  -1.00144
H     0.03142   1.01166   0.44040
H    -1.05526  -1.75928  -0.49686
H    -3.26019  -2.30182  -0.11156
H    -3.90155  -1.60409   1.40555
H    -4.35677  -0.88898  -0.14224
H    -3.44572   1.41692   0.64490
H    -1.76676   1.55114   1.23031
H    -3.00197   0.70265   2.19599
