31
Generated by autodE on: 2022-07-27. E = -651.937058 Ha
C     2.32896  -0.47731   1.73286
N     1.60339  -0.72537   0.50563
C     1.94982  -0.10184  -0.65937
O     3.04699   0.50615  -0.73236
C     1.09495  -0.21962  -1.82038
C     1.67928   0.10657  -3.16289
N    -0.18996  -0.68653  -1.82704
C    -1.20939  -0.77436  -0.95811
C    -2.32532  -1.69273  -1.36650
C    -1.31599  -0.01300   0.27923
C    -0.61071   1.19465   0.50854
C    -0.80651   1.93165   1.67269
C    -1.68567   1.47953   2.66514
C    -2.38878   0.28831   2.46012
C    -2.21572  -0.44248   1.28499
H     1.83197  -1.01419   2.55110
H     2.35236   0.59720   1.98483
H     3.37133  -0.82793   1.66923
H     0.68603  -1.14109   0.59129
H     2.74192  -0.17242  -3.21742
H     1.61769   1.18487  -3.40500
H     1.13786  -0.42619  -3.96372
H    -0.44209  -1.06714  -2.74469
H    -2.25063  -1.94770  -2.43552
H    -3.31065  -1.23784  -1.18275
H    -2.29854  -2.64541  -0.80774
H     0.08391   1.57193  -0.24179
H    -0.25778   2.86624   1.81236
H    -1.81765   2.04875   3.58801
H    -3.07892  -0.07918   3.22349
H    -2.77537  -1.36886   1.15161
