54
Generated by autodE on: 2022-06-22. E = -1003.437939 Ha. Imaginary frequency = -342.5 cm-1
C     1.29586  -1.73352   1.79925
C     1.71999  -1.75567   0.51572
C     3.13592  -2.16452   0.18726
C     0.89033  -1.39213  -0.63803
C    -0.50621  -1.24508  -0.58835
C    -1.28790  -1.51858  -1.79002
C    -2.58866  -1.88137  -1.87346
C    -3.24599  -2.10688  -3.20757
C    -3.48834  -2.07886  -0.68416
C    -0.82458   1.03810  -0.46989
C    -2.15513   1.29147  -1.13548
C    -0.84250   1.41900   0.97029
C    -0.26443   2.63757   1.37749
C    -0.34597   3.06291   2.70525
C    -1.02784   2.29127   3.65017
C    -1.64440   1.10061   3.24969
C    -1.56171   0.67482   1.92329
N     0.25681   1.29312  -1.27665
C     1.56552   0.86895  -1.25839
C     2.16675   0.74835  -2.63723
C     2.57819   1.08463  -0.20124
O     3.78677   1.13796  -0.52468
N     2.22123   1.20282   1.09606
C     3.20917   1.25404   2.15078
H     1.96878  -2.01178   2.61474
H     0.28495  -1.42614   2.07600
H     3.69305  -2.46460   1.08672
H     3.14401  -3.00818  -0.52402
H     3.68126  -1.33870  -0.29511
H     1.32782  -1.62985  -1.61051
H    -0.99603  -1.41091   0.36965
H    -0.73682  -1.41248  -2.73336
H    -2.54534  -1.96147  -4.04360
H    -4.09703  -1.41517  -3.34830
H    -3.66685  -3.12628  -3.28079
H    -4.35333  -1.39347  -0.73237
H    -2.98305  -1.91859   0.27724
H    -3.90883  -3.10068  -0.68126
H    -2.14374   1.01326  -2.19866
H    -2.43730   2.35587  -1.04767
H    -2.93853   0.70461  -0.63809
H     0.26036   3.24879   0.64212
H     0.12291   4.00495   2.99953
H    -1.08899   2.62037   4.69008
H    -2.19392   0.49701   3.97588
H    -2.05743  -0.24929   1.62570
H    -0.05861   1.33684  -2.24406
H     1.39963   0.45358  -3.36920
H     2.63185   1.68992  -2.97945
H     2.95442  -0.01684  -2.64643
H     1.29240   0.90816   1.36363
H     2.69725   1.46078   3.10034
H     3.93823   2.05557   1.96186
H     3.76631   0.30591   2.24941
