36
Generated by autodE on: 2022-10-21. E = -953.887620 Ha
C    -3.21483   0.01786  -1.53249
O    -1.93181  -0.51981  -1.22774
C    -1.27380   0.05856  -0.12935
C    -0.68312   1.47527  -0.44586
C    -0.66307   1.72257  -1.90265
N    -0.61548   1.96973  -3.03558
N     0.64776   1.47578   0.15248
C     1.19059   0.12524   0.08255
C     1.92210  -0.11832  -1.27508
C     2.09675  -1.51627  -1.78053
O     2.33889   0.85418  -1.87705
C     2.26158  -0.13213   1.17260
C     2.54339   0.97085   2.14288
O     2.82185  -1.21294   1.22050
C    -0.03904  -0.79305   0.29502
C    -0.40813  -1.09901   1.78500
C    -1.56684  -2.08218   1.74546
C    -2.63493  -1.36150   1.38336
C    -2.11294   0.05721   1.20539
O    -1.06379   0.12092   2.17593
H    -3.51222  -0.40209  -2.50283
H    -3.19752   1.11706  -1.61669
H    -3.96593  -0.26803  -0.77750
H    -1.30317   2.27305  -0.00787
H     1.27500   2.14021  -0.30139
H     1.14759  -1.82971  -2.24818
H     2.30984  -2.21189  -0.95861
H     2.88917  -1.54215  -2.54002
H     2.87756   1.87238   1.60551
H     3.31010   0.64634   2.85793
H     1.61304   1.24247   2.66400
H     0.02995  -1.71331  -0.28907
H     0.42418  -1.33703   2.45375
H    -1.48085  -3.15883   1.89226
H    -3.64758  -1.69821   1.16409
H    -2.81521   0.89022   1.31502
