19
Generated by autodE on: 2022-10-21. E = -531.726531 Ha
C    -2.15334   2.13480  -0.16330
C    -0.77081   1.54149  -0.06336
O     0.20653   2.30249  -0.00013
C    -0.56235   0.10080  -0.03911
N     0.70713  -0.39436   0.05279
C     1.89755   0.15476   0.13101
C     3.04173  -0.67378   0.21345
N     4.00812  -1.32238   0.28322
C    -1.52468  -1.01307  -0.09821
C    -3.00559  -0.79308  -0.20639
O    -1.07963  -2.17035  -0.05654
H    -2.66080   1.81766  -1.08578
H    -2.78259   1.83121   0.68581
H    -2.05105   3.22743  -0.16457
H     0.64562  -1.43342   0.05668
H     1.99308   1.23820   0.13051
H    -3.38378  -0.21974   0.65228
H    -3.49815  -1.77292  -0.23561
H    -3.25654  -0.23069  -1.11731
