19
Generated by autodE on: 2022-10-26. E = -531.716916 Ha
C     1.36154  -1.81064  -1.22189
C     0.43034  -0.65805  -0.95583
O    -0.31720  -0.25362  -1.85523
C     0.44197   0.02290   0.33527
N    -0.44459   1.04459   0.55426
C    -1.59207   1.43155   0.02949
C    -2.41730   0.71926  -0.86723
N    -3.25733   0.22978  -1.51230
C     1.44725  -0.18585   1.38129
C     1.44079   0.73031   2.59104
O     2.28441  -1.08748   1.30804
H     1.15765  -2.18540  -2.23394
H     1.21947  -2.61182  -0.48249
H     2.41152  -1.49369  -1.14312
H    -0.16594   1.66735   1.31841
H    -2.01037   2.35290   0.44008
H     2.27362   0.44155   3.24361
H     1.57513   1.78674   2.30207
H     0.49880   0.64815   3.15706
