36
Generated by autodE on: 2022-10-21. E = -953.801831 Ha. Imaginary frequency = -329.8 cm-1
C    -3.39054   0.26799  -1.32277
O    -2.18186  -0.48753  -1.23618
C    -1.42723  -0.30933  -0.12594
C    -0.33362   1.77191  -0.56885
C    -0.61639   1.73680  -1.95820
N    -1.06334   1.79155  -3.03472
N     0.84290   1.49372   0.04739
C     1.60741   0.36356  -0.06000
C     1.89914  -0.18526  -1.39714
C     2.62726  -1.49410  -1.55306
O     1.56902   0.45655  -2.39432
C     2.44017   0.02990   1.11764
C     2.44814   0.97631   2.29817
O     3.08647  -1.01427   1.16427
C    -0.32185  -1.10367   0.17419
C    -0.35794  -1.19671   1.70719
C    -1.59988  -2.03158   2.08271
C    -2.64923  -1.25038   1.80335
C    -2.03260   0.05615   1.25828
O    -0.82851   0.13298   2.02870
H    -3.77334   0.13290  -2.34204
H    -3.21260   1.33904  -1.14266
H    -4.13604  -0.10411  -0.60173
H    -0.93132   2.52021  -0.04152
H     0.84302   1.88570   0.98565
H     2.54198  -1.80623  -2.60281
H     2.24603  -2.27377  -0.88302
H     3.69087  -1.35293  -1.30431
H     2.70287   2.00584   2.00135
H     3.18450   0.61332   3.02539
H     1.45648   0.99572   2.77949
H     0.02746  -1.91337  -0.46333
H     0.57208  -1.44081   2.22923
H    -1.57623  -3.06165   2.43745
H    -3.71564  -1.46107   1.87484
H    -2.62777   0.97105   1.32907
