30
Generated by autodE on: 2022-07-01. E = -1462.564433 Ha
Cl   -3.59855  -1.06787  -0.05265
C    -2.09576  -0.31181  -0.78259
Cl   -2.21499  -0.49389  -2.59552
C    -0.92308  -0.96862  -0.25776
C     0.05020  -1.03477   0.46361
C     1.06966  -0.65146   1.42940
C     2.37170  -0.18988   0.78728
C     3.54287  -0.19788   1.56054
C     4.74777   0.27408   1.03552
C     4.79954   0.76131  -0.27528
C     3.63884   0.76980  -1.05325
C     2.43250   0.29675  -0.52571
C     0.40085   0.48108   2.28101
C    -0.24974   1.63864   1.49659
C    -1.73404   1.50299   1.05351
C    -2.03828   1.18319  -0.42409
H     1.30339  -1.48503   2.10966
H     3.50669  -0.57894   2.58467
H     5.65102   0.25765   1.65035
H     5.74185   1.12889  -0.68843
H     3.66952   1.14462  -2.07926
H     1.53237   0.30073  -1.14356
H     1.18760   0.88325   2.93802
H    -0.35177   0.01314   2.93593
H     0.37677   1.90119   0.62718
H    -0.20149   2.51486   2.16134
H    -2.26255   0.78477   1.70196
H    -2.21555   2.47446   1.24215
H    -3.00248   1.62189  -0.72108
H    -1.26413   1.62885  -1.06829
