38
Generated by autodE on: 2022-07-01. E = -939.603947 Ha
N     0.54331   3.27098   0.48563
C     0.84524   2.14629   0.34688
C     1.28012   0.82209   0.21332
O     0.40305  -0.20221   0.13318
C    -0.88723  -0.29702  -0.03224
C    -1.70143   0.84000  -0.47256
C    -2.90365   1.15889   0.18711
C    -3.69185   2.21679  -0.26453
C    -3.30187   2.95416  -1.38751
C    -2.11510   2.63422  -2.05666
C    -1.31296   1.59087  -1.60034
C    -1.41949  -1.62511   0.21411
C    -0.65442  -2.58349   0.92172
C    -1.15221  -3.86516   1.13397
C    -2.42108  -4.21983   0.65749
C    -3.18849  -3.27987  -0.03988
C    -2.69759  -1.99577  -0.26368
C     2.67796   0.44198   0.25441
C     3.68492   1.41385   0.46309
C     5.02826   1.04810   0.50970
C     5.41078  -0.29018   0.35373
C     4.42279  -1.25935   0.14304
C     3.07548  -0.90563   0.08619
H    -3.20643   0.58370   1.06363
H    -4.61515   2.46704   0.26250
H    -3.92331   3.77951  -1.74227
H    -1.81234   3.20294  -2.93847
H    -0.38813   1.34396  -2.12540
H     0.32400  -2.30457   1.31435
H    -0.55243  -4.59272   1.68538
H    -2.81065  -5.22531   0.83151
H    -4.17520  -3.55279  -0.42047
H    -3.29493  -1.28115  -0.83017
H     3.40522   2.46161   0.59372
H     5.78639   1.81825   0.67262
H     6.46506  -0.57271   0.39148
H     4.70498  -2.30727   0.01290
H     2.32072  -1.67184  -0.09527
