38
Generated by autodE on: 2022-07-27. E = -939.600179 Ha
N    -1.41011  -2.18853  -3.60410
C    -1.21080  -1.64262  -2.58398
C    -1.00526  -0.98215  -1.36519
O     0.30560  -0.98205  -0.99937
C     1.00010  -0.25908  -0.15340
C     0.46749   0.96398   0.44283
C     0.64139   1.22286   1.81707
C     0.08652   2.36391   2.39452
C    -0.63517   3.26875   1.60902
C    -0.79366   3.03238   0.23843
C    -0.25649   1.88630  -0.34102
C     2.33794  -0.76921   0.09424
C     3.34593   0.06015   0.63816
C     4.62899  -0.43726   0.85402
C     4.93898  -1.76295   0.52964
C     3.95104  -2.59252  -0.01611
C     2.66440  -2.10732  -0.22987
C    -2.09668  -0.40787  -0.59681
C    -2.10089  -0.40561   0.81716
C    -3.15021   0.17790   1.52300
C    -4.22883   0.75700   0.84421
C    -4.25646   0.72639  -0.55514
C    -3.20474   0.15504  -1.26884
H     1.18164   0.50574   2.43681
H     0.20967   2.54324   3.46476
H    -1.07484   4.15898   2.06432
H    -1.34886   3.74100  -0.37965
H    -0.39264   1.70452  -1.40759
H     3.12717   1.10307   0.86793
H     5.39720   0.21872   1.26952
H     5.94646  -2.14867   0.70074
H     4.18527  -3.62960  -0.26691
H     1.89349  -2.76299  -0.63621
H    -1.28095  -0.86968   1.36415
H    -3.12634   0.17827   2.61528
H    -5.04469   1.22262   1.40147
H    -5.09650   1.16881  -1.09595
H    -3.22021   0.16282  -2.36111
