34
Generated by autodE on: 2022-07-27. E = -936.431672 Ha
C    -3.50102  -1.87084  -3.62286
O    -2.42765  -1.05701  -3.14270
C    -2.07335  -1.22679  -1.84858
O    -2.62028  -2.03497  -1.10512
C    -0.99052  -0.35378  -1.47372
C    -0.46579   0.63755  -2.30968
N    -0.06682   1.45932  -3.04318
O    -0.64273  -0.49612  -0.16065
C     0.25479   0.03136   0.60066
C     0.09792  -0.27902   2.01197
C     1.13542  -0.01086   2.93176
C     0.97338  -0.32452   4.27919
C    -0.21448  -0.91158   4.72733
C    -1.24596  -1.19174   3.82021
C    -1.09693  -0.88000   2.47429
C     1.35573   0.83831   0.06329
C     1.63601   2.10988   0.59622
C     2.69939   2.85546   0.08983
C     3.50435   2.32912  -0.92619
C     3.24011   1.05724  -1.44547
C     2.16368   0.31535  -0.96430
H    -4.42573  -1.67323  -3.06008
H    -3.25008  -2.93910  -3.54197
H    -3.63953  -1.59837  -4.67606
H     2.07339   0.42381   2.58694
H     1.78208  -0.11731   4.98282
H    -0.33758  -1.15540   5.78494
H    -2.17203  -1.65231   4.17037
H    -1.89588  -1.09673   1.76456
H     1.00619   2.51507   1.38976
H     2.90290   3.85018   0.49165
H     4.34204   2.91265  -1.31467
H     3.87297   0.64362  -2.23324
H     1.95399  -0.67595  -1.37041
