34
Generated by autodE on: 2022-06-13. E = -936.431362 Ha
C     4.70432   0.97904  -0.48677
O     3.32463   0.63774  -0.32394
C     3.06692  -0.59802   0.15961
O     3.95198  -1.40146   0.44379
C     1.66217  -0.87326   0.30110
C     1.22782  -2.07518   0.87274
N     0.91172  -3.08869   1.36722
O     0.82085   0.15770  -0.01454
C    -0.46341   0.27801  -0.06987
C    -0.93163   1.64606  -0.21266
C    -0.04257   2.72429   0.00831
C    -0.48462   4.03408  -0.13432
C    -1.81355   4.29397  -0.49668
C    -2.69883   3.23492  -0.72388
C    -2.26620   1.91819  -0.58649
C    -1.35731  -0.88309  -0.02099
C    -2.44548  -0.90899   0.87078
C    -3.30088  -2.00940   0.89002
C    -3.09580  -3.07312   0.00468
C    -2.02562  -3.04264  -0.89598
C    -1.14949  -1.95985  -0.90426
H     5.23397   0.94623   0.47706
H     5.19709   0.29352  -1.19219
H     4.71771   2.00027  -0.88613
H     0.98851   2.51793   0.29669
H     0.20564   4.86126   0.04360
H    -2.15762   5.32516  -0.60335
H    -3.73111   3.43638  -1.01694
H    -2.95542   1.09838  -0.78804
H    -2.60124  -0.07624   1.55839
H    -4.13326  -2.03589   1.59627
H    -3.77329  -3.92989   0.01636
H    -1.87025  -3.86929  -1.59215
H    -0.31211  -1.93779  -1.60410
