64
Generated by autodE on: 2022-06-13. E = -4587.215971 Ha. Imaginary frequency = -165.1 cm-1
C     5.18368   1.41242  -4.80375
O     6.15961   2.30505  -4.25982
C     6.43704   2.17143  -2.95517
O     5.95072   1.31430  -2.23701
C     7.41572   3.16564  -2.50490
C     8.12025   3.95649  -3.44469
N     8.62841   4.58885  -4.28406
O     7.89846   2.83983  -1.29074
C     8.77857   3.43327  -0.53904
C     8.86940   2.87724   0.80460
C    10.01310   3.09762   1.59683
C    10.09172   2.55241   2.87665
C     9.03538   1.78732   3.38179
C     7.89200   1.56752   2.60143
C     7.80413   2.10773   1.32329
C     9.87486   4.20631  -1.18514
C     9.89996   5.59847  -1.32617
C    10.94919   6.20987  -2.01292
C    11.97749   5.44037  -2.56384
C    11.96045   4.04988  -2.41945
C    10.91577   3.43260  -1.73140
C     6.87857   5.22665  -0.18466
C     6.24511   5.09760  -1.23918
C     5.10044   5.60483  -1.98335
Cl    5.68791   6.57819  -3.40784
Br    3.89618   4.17340  -2.69786
C     4.26097   6.50793  -1.06605
C     3.59843   5.83860   0.15812
C     4.31558   4.72105   0.94096
C     5.51803   5.03294   1.84403
C     6.74542   5.73488   1.20169
C     6.50482   7.30065   1.15207
C     7.33641   8.12056   0.20974
O     5.70364   7.79620   1.91527
C     8.02753   5.65812   2.08182
C     7.87391   5.31593   3.53162
O     9.10098   5.96278   1.60095
H     4.22726   1.50676  -4.26898
H     5.53204   0.37116  -4.73815
H     5.05779   1.70350  -5.85300
H    10.83396   3.69899   1.20649
H    10.98154   2.72739   3.48466
H     9.09844   1.36658   4.38774
H     7.06374   0.97664   2.99786
H     6.91647   1.94294   0.71172
H     9.09102   6.19587  -0.91952
H    10.95573   7.29616  -2.12569
H    12.79308   5.92399  -3.10632
H    12.76098   3.44142  -2.84587
H    10.89585   2.34618  -1.62230
H     3.47641   6.97318  -1.68072
H     4.92800   7.32605  -0.76357
H     3.32644   6.65439   0.84710
H     2.64828   5.40305  -0.18676
H     4.57996   3.90499   0.25243
H     3.55534   4.28875   1.61193
H     5.19821   5.65460   2.69035
H     5.86048   4.07434   2.25576
H     8.39902   7.99663   0.46643
H     7.05003   9.17597   0.29564
H     7.21730   7.77745  -0.82731
H     8.83865   5.44068   4.03775
H     7.52717   4.27887   3.64608
H     7.11400   5.96530   3.99290
