42
Generated by autodE on: 2022-06-20. E = -1123.953926 Ha
C     3.84740   2.61786   1.65387
O     2.52960   2.18085   1.28082
C     2.43708   0.97669   0.73137
O     3.37792   0.23339   0.53427
C     1.03493   0.61279   0.34654
N     0.15369   1.49224   0.06660
C    -1.08345   0.82643  -0.33368
C    -2.27160   1.54567   0.33547
C    -2.25926   3.04550   0.29710
O    -3.16228   0.91136   0.86600
C    -1.25060   0.90313  -1.87650
C    -2.62391   0.66367  -2.42258
O    -0.28851   1.13882  -2.57862
C    -0.91637  -0.67322   0.14459
N    -1.63531  -1.71126  -0.54446
C    -2.85209  -2.21081   0.07965
C    -0.97484  -2.52638  -1.44346
C     0.32806  -2.42247  -1.77771
C     1.21468  -1.37282  -1.18233
C     0.64113  -0.83278   0.15750
C     1.03501  -1.65497   1.38268
N     1.01501  -2.98700   1.23775
O     1.30486  -1.08955   2.44871
H     4.27967   1.93154   2.39604
H     4.49927   2.66082   0.76973
H     3.72157   3.61711   2.08528
H    -1.53374   3.40853   1.04264
H    -3.25676   3.43170   0.54330
H    -1.92449   3.42125  -0.68120
H    -3.23904   1.56065  -2.23472
H    -2.56872   0.48834  -3.50453
H    -3.10881  -0.17963  -1.91298
H    -1.25431  -0.66526   1.19042
H    -3.38972  -2.85019  -0.63419
H    -2.63630  -2.80611   0.98720
H    -3.50278  -1.37400   0.36048
H    -1.60520  -3.30415  -1.88212
H     0.73975  -3.10637  -2.52169
H     2.22878  -1.75901  -1.00300
H     1.33295  -0.52334  -1.87499
H     1.23878  -3.57773   2.03324
H     0.77021  -3.41442   0.34731
