20
Generated by autodE on: 2022-06-20. E = -457.715326 Ha
C    -3.07644  -0.77485   0.18432
N    -1.81452  -0.05517   0.23630
C    -1.81655   1.32565   0.47016
C    -0.69558   2.06421   0.45864
C     0.67147   1.48436   0.19071
C     0.57293  -0.01060  -0.06677
C     1.76892  -0.81645  -0.36037
N     2.94822  -0.14587  -0.38393
O     1.73485  -2.04467  -0.57928
C    -0.62453  -0.66096  -0.03363
H    -2.87749  -1.85029   0.09670
H    -3.66028  -0.60067   1.10160
H    -3.68576  -0.45844  -0.67909
H    -2.80004   1.75656   0.66655
H    -0.77722   3.13543   0.65663
H     1.14379   2.00361  -0.66829
H     1.34775   1.69528   1.04454
H     3.01669   0.84839  -0.20839
H     3.79706  -0.66346  -0.58351
H    -0.66775  -1.73413  -0.22598
