42
Generated by autodE on: 2022-06-20. E = -1123.896506 Ha. Imaginary frequency = -281.2 cm-1
C     4.21242   1.55738   1.09515
O     2.78431   1.40751   0.95447
C     2.35572   0.77689  -0.12584
O     3.03734   0.33349  -1.02135
C     0.88011   0.61281  -0.08197
N    -0.04865   1.29441  -0.41724
C    -1.39140   1.37540  -0.64953
C    -2.17572   2.19471   0.25618
C    -1.42540   2.85401   1.39300
O    -3.40416   2.33235   0.15244
C    -1.84598   0.70652  -1.85434
C    -3.30874   0.76638  -2.22564
O    -1.04668   0.08029  -2.57145
C    -0.81076  -1.59027   0.30683
N    -0.95092  -2.25003  -0.84431
C    -2.26678  -2.56653  -1.38880
C     0.19307  -2.61226  -1.58208
C     1.41642  -2.56593  -1.03688
C     1.61222  -2.18467   0.40627
C     0.45296  -1.31057   0.85909
C     0.42154  -0.74271   2.23951
N     1.55953  -0.84473   2.95623
O    -0.59774  -0.20621   2.70281
H     4.68909   0.56758   1.11839
H     4.61465   2.14888   0.26145
H     4.36231   2.07983   2.04583
H    -1.05113   2.07830   2.08191
H    -2.10394   3.52582   1.93481
H    -0.55171   3.41652   1.02916
H    -3.45102   0.21217  -3.16332
H    -3.93667   0.33261  -1.43412
H    -3.64215   1.80702  -2.35207
H    -1.72060  -1.25180   0.80260
H    -2.46512  -3.64618  -1.30171
H    -2.30742  -2.27798  -2.44632
H    -3.03134  -2.01306  -0.83201
H    -0.00257  -2.92287  -2.60840
H     2.28010  -2.84830  -1.64102
H     1.68199  -3.09236   1.03987
H     2.58009  -1.67557   0.52861
H     1.59885  -0.39084   3.86352
H     2.42660  -1.17329   2.54808
