62
Generated by autodE on: 2022-06-15. E = -1515.777082 Ha
C    -2.32862   2.88219  -3.49569
N    -1.45062   2.03395  -2.71506
C    -1.86897   0.87491  -2.18798
O    -2.97433   0.36988  -2.41704
C    -0.86793   0.14896  -1.29947
O     0.22427   0.99347  -0.99773
C     0.91972   0.54030   0.16004
C     2.05281  -0.41644  -0.26930
C     2.20226  -0.77597  -1.61532
C     3.24501  -1.61532  -2.02113
C     4.16474  -2.09923  -1.08891
C     4.04040  -1.72239   0.25201
C     3.00024  -0.88416   0.65461
C     1.59376   1.75912   0.79595
C     1.97798   1.76941   2.14454
C     2.61219   2.88664   2.69312
C     2.88257   4.00520   1.89983
C     2.52034   3.99234   0.54963
C     1.88531   2.87594   0.00057
C    -0.23910  -0.09555   1.04996
C     0.21311  -1.33935   1.84393
C     0.53798  -2.63731   1.14166
O     0.32027  -1.27630   3.05730
C    -0.93366   0.93359   2.04180
C    -1.17612   2.27075   1.35661
C    -2.18853   2.05400   0.50928
C    -2.55066   0.59173   0.69006
O    -2.26028   0.39423   2.08036
C    -1.44597  -0.35543   0.03676
C    -2.03460  -1.76806  -0.03407
C    -2.62742  -2.34144   1.10739
C    -3.18183  -3.62131   1.07481
C    -3.16903  -4.36769  -0.10671
C    -2.60655  -3.80548  -1.25355
C    -2.05288  -2.52181  -1.21829
H    -3.06652   3.39942  -2.85837
H    -1.72935   3.63525  -4.02269
H    -2.87735   2.28188  -4.23445
H    -0.57972   2.41319  -2.35498
H    -0.50564  -0.70970  -1.88319
H     1.51278  -0.38733  -2.36274
H     3.33754  -1.88486  -3.07592
H     4.97932  -2.75501  -1.40488
H     4.75949  -2.08032   0.99248
H     2.93203  -0.60358   1.70520
H     1.76987   0.91272   2.78499
H     2.89154   2.88122   3.74922
H     3.37453   4.88029   2.33068
H     2.73164   4.85784  -0.08296
H     1.60274   2.87711  -1.05182
H     1.51651  -2.98536   1.49883
H    -0.21056  -3.38239   1.44779
H     0.54308  -2.56679   0.05052
H    -0.49298   0.94801   3.03911
H    -0.60440   3.18115   1.51910
H    -2.64825   2.74013  -0.19985
H    -3.57249   0.29247   0.44142
H    -2.63721  -1.78111   2.04014
H    -3.62304  -4.03765   1.98365
H    -3.59857  -5.37178  -0.13458
H    -2.59784  -4.36463  -2.19222
H    -1.64312  -2.12396  -2.14435
