28
Generated by autodE on: 2022-06-15. E = -691.408496 Ha
C    -2.90063  -2.07387   0.68894
C    -1.52265  -1.78448   0.14170
O    -0.68631  -2.68443   0.05093
C    -1.27247  -0.39703  -0.25674
C    -0.13019   0.34831  -0.32890
C     1.28819   0.08000  -0.13107
C     2.12749   1.13807   0.28882
C     3.48838   0.92903   0.50363
C     4.04894  -0.33340   0.28130
C     3.23491  -1.38567  -0.15109
C     1.86958  -1.18730  -0.35247
C    -0.65106   1.80266  -0.54494
C    -1.30899   2.24625   0.77683
C    -2.42670   1.51811   0.85636
C    -2.41855   0.64408  -0.41607
O    -1.80368   1.53912  -1.35297
H    -2.92952  -3.09232   1.09739
H    -3.64647  -1.98677  -0.11867
H    -3.18227  -1.34665   1.46703
H     1.70925   2.12996   0.46751
H     4.11617   1.75690   0.84084
H     5.11789  -0.49454   0.43952
H     3.66854  -2.37150  -0.33503
H     1.23404  -2.00695  -0.67888
H     0.04152   2.49752  -1.02950
H    -0.87819   2.95317   1.48476
H    -3.17364   1.46659   1.64775
H    -3.38021   0.26695  -0.77685
