34
Generated by autodE on: 2022-07-27. E = -824.273970 Ha
C    -4.53037   1.39773  -1.67699
N    -3.27777   0.86586  -1.18753
C    -2.95420  -0.45089  -1.36079
O    -3.77445  -1.26567  -1.84251
C    -1.64083  -0.87840  -0.96146
O    -0.84795   0.02242  -0.39215
C     0.35191  -0.01836   0.11907
C     1.17250  -1.23236   0.03584
C     1.28964  -1.95286  -1.17088
C     2.09540  -3.08848  -1.23982
C     2.78590  -3.53396  -0.10710
C     2.67230  -2.83069   1.09643
C     1.87703  -1.68718   1.16903
C     0.76087   1.21336   0.77828
C    -0.20136   2.18243   1.15055
C     0.18881   3.36967   1.76340
C     1.54149   3.62185   2.02686
C     2.50248   2.67248   1.66304
C     2.12233   1.48254   1.04402
H    -4.64410   2.43026  -1.32198
H    -4.58806   1.40182  -2.78074
H    -5.37937   0.80586  -1.30352
H    -2.53692   1.51409  -0.94509
H    -1.31111  -1.90794  -1.08193
H     0.76669  -1.61041  -2.06539
H     2.18695  -3.62851  -2.18486
H     3.41035  -4.42853  -0.16254
H     3.20400  -3.17611   1.98590
H     1.78731  -1.14614   2.11228
H    -1.25868   1.98588   0.96745
H    -0.56961   4.10251   2.04872
H     1.84306   4.55211   2.51341
H     3.56079   2.86338   1.85552
H     2.88609   0.76371   0.74571
