34
Generated by autodE on: 2022-06-15. E = -824.273946 Ha
C     4.44792  -0.93340   2.14296
N     3.23176  -0.68821   1.40005
C     3.26839  -0.31422   0.08588
O     4.34550  -0.27971  -0.55242
C     2.02472   0.02940  -0.54913
O     0.91466  -0.09262   0.17010
C    -0.35491   0.07567  -0.07985
C    -1.23455  -0.32065   1.01049
C    -2.57120   0.13344   1.07246
C    -3.39876  -0.23899   2.13085
C    -2.91697  -1.06508   3.15186
C    -1.59191  -1.51759   3.10511
C    -0.75946  -1.15563   2.05000
C    -0.81223   0.60282  -1.37073
C    -0.19297   1.72324  -1.96195
C    -0.65751   2.22861  -3.17541
C    -1.73561   1.61963  -3.82725
C    -2.35371   0.50414  -3.25300
C    -1.90114   0.00080  -2.03359
H     5.03721  -0.01338   2.31046
H     5.09331  -1.64737   1.60986
H     4.19072  -1.36065   3.12096
H     2.36856  -0.55150   1.91358
H     1.97908   0.34061  -1.59033
H    -2.95558   0.79762   0.29777
H    -4.42757   0.12709   2.16251
H    -3.56859  -1.35547   3.97898
H    -1.20793  -2.16740   3.89505
H     0.26496  -1.52848   2.01209
H     0.64108   2.21567  -1.45932
H    -0.17597   3.10518  -3.61458
H    -2.09218   2.01351  -4.78168
H    -3.19211   0.02038  -3.75913
H    -2.38368  -0.87321  -1.59351
