62
Generated by autodE on: 2022-06-15. E = -1515.681121 Ha. Imaginary frequency = -163.5 cm-1
C    -2.20907   3.12873  -3.16729
N    -1.22576   2.27445  -2.53479
C    -1.41469   0.93290  -2.45771
O    -2.30459   0.35997  -3.11747
C    -0.51191   0.17496  -1.58981
O     0.41607   0.91546  -0.98955
C     1.46219   0.69187  -0.23184
C     2.33575  -0.46629  -0.37793
C     2.19783  -1.38684  -1.44327
C     3.09534  -2.43950  -1.60167
C     4.14644  -2.62041  -0.69766
C     4.30970  -1.70932   0.35078
C     3.43026  -0.64115   0.50329
C     1.87468   1.93613   0.46456
C     2.17571   1.96387   1.83696
C     2.47329   3.17461   2.46584
C     2.48036   4.36876   1.73915
C     2.18444   4.34753   0.37166
C     1.88259   3.14229  -0.26131
C    -0.66637  -0.36296   1.44541
C     0.39944  -1.23254   1.91220
C     0.66653  -2.55430   1.23057
O     1.08196  -0.92479   2.90333
C    -1.13832   0.86636   2.26615
C    -1.16531   2.11361   1.37991
C    -2.16696   1.90530   0.51891
C    -2.73262   0.54086   0.89119
O    -2.55887   0.55965   2.32673
C    -1.69664  -0.59585   0.54728
C    -2.24076  -1.90466   0.10131
C    -2.46389  -2.87726   1.09744
C    -3.05511  -4.10209   0.78580
C    -3.44702  -4.37888  -0.52739
C    -3.25924  -3.40948  -1.51659
C    -2.67265  -2.17913  -1.20667
H    -3.16447   3.14180  -2.61239
H    -1.81650   4.15232  -3.21371
H    -2.41932   2.78551  -4.19030
H    -0.58049   2.69588  -1.87504
H    -0.34490  -0.87816  -1.78305
H     1.40550  -1.27525  -2.17809
H     2.96692  -3.12814  -2.43955
H     4.83753  -3.45796  -0.81439
H     5.13613  -1.82541   1.05529
H     3.59813   0.06393   1.31307
H     2.11190   1.04967   2.42584
H     2.68615   3.18406   3.53727
H     2.71307   5.31331   2.23616
H     2.19019   5.27466  -0.20611
H     1.65042   3.12868  -1.32815
H     1.74699  -2.74787   1.24813
H     0.17690  -3.34958   1.81446
H     0.29086  -2.60443   0.20391
H    -0.69058   0.95340   3.25994
H    -0.47075   2.94803   1.43953
H    -2.51043   2.52220  -0.30736
H    -3.76350   0.31490   0.60101
H    -2.18050  -2.65773   2.12771
H    -3.21248  -4.84124   1.57509
H    -3.90585  -5.33901  -0.77511
H    -3.57614  -3.60759  -2.54358
H    -2.55771  -1.42825  -1.98804
