63
Generated by autodE on: 2022-12-30. E = -1436.313695 Ha. Imaginary frequency = -336.3 cm-1
C     5.83773  15.51797  20.31563
N     6.26436  15.92283  18.99012
C     7.26184  16.79811  18.82726
O     7.88826  17.25376  19.79580
C     7.68845  17.07735  17.36929
C     8.30112  18.48986  17.11050
O     8.28884  18.97159  15.97109
N     8.89486  19.08709  18.14569
C     9.52693  20.38439  18.01760
C     8.83389  16.01882  17.10543
C     9.46169  15.96959  15.70697
C     8.81815  15.03672  14.66021
C     7.78529  15.61165  13.68163
C     6.31885  15.63585  14.14244
O     5.48857  15.92769  13.02989
C     4.87438  14.79643  12.44975
C     6.13849  16.58555  15.27872
C     6.62827  16.85928  16.38511
C     4.63672  18.40530  17.25456
C     5.25382  19.43324  18.05880
C     5.78625  20.66895  17.36949
O     5.34369  19.34230  19.30318
C     3.76330  17.33760  17.80586
O     3.34218  16.38610  17.12511
N     3.43963  17.45418  19.11238
C     2.65800  16.43724  19.78009
O     4.60894  18.74430  15.94020
C     4.51726  18.10950  14.79925
C     3.32966  17.25669  14.45443
C     5.16151  18.89580  13.69788
H     5.06925  14.74332  20.22140
H     6.68679  15.11182  20.88584
H     5.42485  16.37032  20.87647
H     5.73810  15.61391  18.17787
H     8.78329  18.62846  19.05468
H     8.78706  21.18000  17.83136
H    10.06104  20.61238  18.94851
H    10.24541  20.38808  17.18419
H     9.60981  16.24231  17.85220
H     8.42215  15.02984  17.35795
H     9.56734  16.98466  15.29451
H    10.48925  15.60625  15.86582
H     9.64133  14.65155  14.03786
H     8.39374  14.15094  15.16571
H     7.79085  14.99235  12.76977
H     8.06926  16.63189  13.37495
H     6.05374  14.63708  14.53501
H     5.61648  14.05777  12.09466
H     4.19251  14.29573  13.16161
H     4.29008  15.14517  11.58615
H     6.36695  21.25152  18.09615
H     4.93999  21.27992  17.01386
H     6.40744  20.43117  16.49826
H     3.95754  18.15630  19.64366
H     1.59030  16.50337  19.50919
H     3.00136  15.42639  19.51296
H     2.74800  16.56946  20.86555
H     3.23301  17.20013  13.36448
H     3.36696  16.25058  14.87777
H     2.43532  17.74749  14.87199
H     5.37540  18.24068  12.84695
H     6.08501  19.37286  14.05048
H     4.45859  19.67854  13.35744
