21
Generated by autodE on: 2022-05-30. E = -607.925295 Ha
C     3.77548  -0.22897   0.29775
N     2.40483   0.02824  -0.09698
C     1.37429  -0.77510   0.22460
O     1.47643  -1.83168   0.86219
C     0.02569  -0.34194  -0.20918
C    -0.55332   0.87225  -0.32404
C     0.00531   2.15595  -0.15439
N     0.44995   3.22608  -0.02813
C    -2.06963   0.56328  -0.54990
C    -2.59713  -0.00761   0.78297
C    -2.01422  -1.20410   0.89794
C    -1.14258  -1.34251  -0.36781
O    -1.94061  -0.63082  -1.32681
H     4.42252  -0.34840  -0.58505
H     3.80811  -1.15044   0.88997
H     4.16737   0.60042   0.90683
H     2.21607   0.85794  -0.65121
H    -2.65290   1.34116  -1.05148
H    -3.25291   0.52318   1.47161
H    -2.05267  -1.93069   1.70814
H    -0.87338  -2.34928  -0.70029
