17
Generated by autodE on: 2022-05-30. E = -456.186957 Ha
N     4.11642   1.69520   1.08072
C     3.37358   1.05520   0.44266
C     2.58241   0.37504  -0.49856
N     1.66669  -0.41619  -0.26277
C     0.65084  -1.18165  -0.17857
C    -0.72303  -0.68634  -0.14064
C    -1.77280  -1.62087  -0.05979
C    -3.09806  -1.18680  -0.03102
C    -3.39070   0.18024  -0.08293
C    -2.35005   1.11468  -0.16294
C    -1.02358   0.68919  -0.18963
H     0.83566  -2.26111  -0.12793
H    -1.53895  -2.68743  -0.02227
H    -3.90689  -1.91831   0.03180
H    -4.42884   0.51920  -0.05924
H    -2.57624   2.18267  -0.20156
H    -0.21484   1.42136  -0.24606
