38
Generated by autodE on: 2022-05-30. E = -1064.119395 Ha. Imaginary frequency = -247.5 cm-1
C    -0.76181   3.86622  -1.20720
N    -0.93011   2.73827  -0.31338
C    -1.32872   1.53050  -0.78684
O    -1.70150   1.38688  -1.96589
C    -1.30499   0.41358   0.16201
C    -1.19411   0.48349   1.70736
C    -0.06275  -0.45032   2.14053
C    -0.52578  -1.68711   1.92051
C    -1.93740  -1.48376   1.36209
O    -2.35287  -0.30565   2.06684
C    -1.76099  -0.87855  -0.07978
C    -2.56379  -1.29850  -1.17518
N    -3.22616  -1.72093  -2.03588
C    -0.02492  -2.03378  -0.82061
C    -0.14521  -3.38378  -1.17983
N    -0.39078  -4.50648  -1.38446
N     0.84248  -1.19303  -1.05365
C     1.17034   0.06494  -1.03071
C     2.21844   0.61754  -0.19375
C     2.45466   2.00504  -0.25607
C     3.40262   2.58980   0.58267
C     4.13122   1.79781   1.47638
C     3.91462   0.41329   1.52704
C     2.96535  -0.17748   0.69906
H    -0.46312   4.74359  -0.62029
H     0.00899   3.67273  -1.97360
H    -1.70283   4.09367  -1.72916
H    -0.45050   2.77421   0.57988
H    -1.23163   1.48144   2.15456
H     0.92373  -0.12876   2.46686
H    -0.02658  -2.64903   2.02904
H    -2.65874  -2.30228   1.44329
H     0.77547   0.67119  -1.85295
H     1.88608   2.61542  -0.95982
H     3.57796   3.66669   0.53599
H     4.87633   2.25672   2.13010
H     4.49264  -0.20500   2.21720
H     2.79288  -1.25477   0.73802
