36
Generated by autodE on: 2022-06-07. E = -953.963576 Ha
C    -1.13575   2.94840   1.89688
N    -0.95583   1.59557   1.40168
C    -1.06695   1.32788   0.08994
O    -1.52310   2.11429  -0.73880
C    -0.73014  -0.09828  -0.29948
O     0.27570  -0.73870   0.19198
C     1.38998  -0.28052   0.85678
C     2.06166  -1.28955   1.61313
C     1.42941  -2.66248   1.68276
O     3.12588  -1.05686   2.23141
C     1.93008   1.01596   0.45109
O     1.40157   1.68067  -0.46503
N     3.04186   1.42486   1.09826
C     3.77527   2.59531   0.66840
C    -1.59436  -0.86472  -1.16686
C    -1.14877  -2.11389  -1.66500
C    -1.97829  -2.88257  -2.47138
C    -3.26069  -2.42302  -2.80137
C    -3.71061  -1.18870  -2.31880
C    -2.89018  -0.40896  -1.50977
H    -2.12175   3.33793   1.60622
H    -1.06355   2.93841   2.99079
H    -0.36402   3.62288   1.49026
H    -0.47770   0.92786   2.00147
H     0.45381  -2.61799   2.19234
H     2.09868  -3.33195   2.23851
H     1.24971  -3.06937   0.67511
H     3.46395   0.72990   1.71998
H     4.30106   2.43572  -0.28952
H     3.09436   3.44919   0.53744
H     4.51897   2.85254   1.43352
H    -0.14374  -2.46013  -1.42256
H    -1.62471  -3.84152  -2.85539
H    -3.90848  -3.02753  -3.44015
H    -4.71094  -0.83331  -2.57381
H    -3.24888   0.54824  -1.13588
