28
Generated by autodE on: 2022-06-04. E = -724.741244 Ha
C    -5.35854  -0.41520  -0.07680
O    -4.08132   0.13877   0.24166
C    -2.99665  -0.57260  -0.16558
O    -3.11136  -1.63548  -0.76865
C    -1.80124   0.13771   0.21558
N    -0.53600  -0.26241  -0.00251
C    -0.29591  -1.55635  -0.68256
C     0.54269   0.44509   0.43378
C     0.30714   1.52208   1.31829
N     0.14383   2.41048   2.06024
C     1.93442   0.21994   0.00119
C     2.97210   0.31307   0.95055
C     4.30401   0.16056   0.56621
C     4.62721  -0.08761  -0.77188
C     3.60682  -0.16771  -1.72540
C     2.27352  -0.00565  -1.34881
H    -5.48465  -0.51459  -1.16577
H    -5.48655  -1.40384   0.38967
H    -6.10193   0.28529   0.32275
H    -1.93484   1.09609   0.71221
H    -0.96251  -2.30085  -0.24124
H    -0.52398  -1.46266  -1.75062
H     0.74423  -1.85149  -0.53788
H     2.72634   0.49835   1.99855
H     5.09367   0.22945   1.31793
H     5.67032  -0.21017  -1.07196
H     3.85073  -0.34278  -2.77576
H     1.49286  -0.03577  -2.11028
