64
Generated by autodE on: 2022-06-11. E = -2178.555498 Ha
C    -3.93067 -17.43064   6.51972
O    -3.97170 -16.60097   5.34959
C    -4.60821 -15.43818   5.46265
O    -5.23063 -15.10793   6.45283
C    -4.63207 -14.63599   4.13450
C    -3.64511 -15.14402   3.07365
C    -4.47838 -13.12713   4.39680
C    -5.62721 -12.47972   4.06820
C    -6.62154 -13.48360   3.41235
C    -6.54822 -13.28012   1.92688
N    -6.40317 -13.30461   0.77466
C    -8.07875 -13.47159   3.89302
C    -8.33520 -13.93959   5.18871
C    -9.63853 -13.95601   5.68378
C   -10.70064 -13.52138   4.88242
C   -10.44966 -13.08076   3.58096
C    -9.14204 -13.05939   3.08606
N    -6.02351 -14.75785   3.71787
C    -6.48598 -15.94193   3.03202
C    -6.02168 -11.00553   4.21152
Cl   -7.02428 -10.46857   2.75786
C    -6.96713 -10.81022   5.46659
F    -8.26629 -10.95107   5.19893
F    -6.82808  -9.58855   6.00564
F    -6.65635 -11.69369   6.42759
C    -4.88760  -9.97874   4.30420
C    -3.95875  -9.83951   3.09778
C    -3.38026 -11.11361   2.49547
C    -2.47779 -11.93719   3.40602
C    -3.08278 -12.56506   4.69726
C    -2.96060 -11.61644   5.94052
C    -3.77461 -11.93091   7.16715
O    -2.12001 -10.73839   5.94385
C    -2.07413 -13.63217   5.26302
C    -0.62677 -13.53460   4.87545
O    -2.44306 -14.44378   6.08937
H    -3.37745 -18.33210   6.23254
H    -3.40956 -16.90567   7.33305
H    -4.94830 -17.69266   6.84206
H    -3.84906 -16.19495   2.83500
H    -3.75839 -14.54825   2.15737
H    -2.60038 -15.08932   3.40255
H    -7.50347 -14.28361   5.80367
H    -9.82796 -14.31248   6.69908
H   -11.72230 -13.53571   5.26941
H   -11.27405 -12.75438   2.94275
H    -8.95796 -12.71422   2.06796
H    -7.58529 -15.97199   3.06200
H    -6.17069 -15.99745   1.97230
H    -6.11571 -16.83753   3.55101
H    -4.33560 -10.17083   5.22645
H    -5.35749  -9.00229   4.46784
H    -3.13553  -9.17784   3.41336
H    -4.50368  -9.30080   2.30820
H    -2.76267 -10.82190   1.63044
H    -4.18239 -11.73845   2.07619
H    -2.07082 -12.75756   2.80275
H    -1.62810 -11.31667   3.71907
H    -4.38374 -11.05031   7.41835
H    -3.07388 -12.09090   8.00077
H    -4.42349 -12.80333   7.05006
H    -0.49037 -13.77789   3.81189
H    -0.25420 -12.51124   5.02563
H    -0.05433 -14.23942   5.49062
