21
Generated by autodE on: 2022-06-17. E = -549.949897 Ha
C     3.78031   1.13887  -0.28029
C     2.96975  -0.11595  -0.41524
O     3.46453  -1.21165  -0.69274
N     1.60919   0.07513  -0.19597
N     0.96389  -1.05966  -0.32455
N    -0.26716  -1.32376  -0.21138
C    -1.23306  -0.36409   0.09518
C    -2.53840  -0.90304   0.17231
C    -3.62835  -0.09288   0.46778
C    -3.43856   1.27660   0.69259
C    -2.15270   1.82100   0.61845
C    -1.04912   1.01982   0.32330
H     3.40654   1.90267  -0.98033
H     4.83854   0.93147  -0.48152
H     3.66548   1.54799   0.73612
H     1.56512  -1.87532  -0.55834
H    -2.66504  -1.97211  -0.00669
H    -4.62926  -0.52616   0.52365
H    -4.29215   1.91727   0.92529
H    -2.00274   2.88889   0.79339
H    -0.05419   1.44807   0.26707
