12
Generated by autodE on: 2022-06-17. E = -381.636093 Ha
O    -0.29358   2.65006  -0.04108
C    -0.15853   1.43093  -0.02196
C     1.18735   0.80782   0.00043
C     1.33512  -0.52831   0.02032
C     0.15854  -1.43093   0.02176
O     0.29358  -2.65005   0.04118
C    -1.18735  -0.80781  -0.00041
C    -1.33512   0.52831  -0.02030
H     2.03912   1.49208  -0.00140
H     2.31571  -1.00978   0.03606
H    -2.03912  -1.49208   0.00154
H    -2.31571   1.00978  -0.03592
