33
Generated by autodE on: 2022-06-17. E = -931.567338 Ha. Imaginary frequency = -313.6 cm-1
C    -3.47816  -2.46997   0.48784
C    -1.99149  -2.43660   0.29610
O    -1.33929  -3.37869  -0.13358
N    -1.35577  -1.26067   0.71104
N    -0.05199  -1.19480   0.43588
N     0.61635  -0.35787   1.14186
C     1.87950   0.02659   0.69904
C     2.48727  -0.38347  -0.50801
C     3.75349   0.09167  -0.83331
C     4.41970   0.98569   0.01734
C     3.81249   1.40870   1.20329
C     2.54840   0.93372   1.54418
C    -1.18460   1.35539   0.79574
C    -0.25690   1.99072  -0.08615
O     0.52022   2.90408   0.25840
C    -0.20416   1.48744  -1.49060
C    -1.13314   0.64596  -1.98136
C    -2.28129   0.24795  -1.14044
O    -3.33064  -0.14123  -1.63586
C    -2.08409   0.33780   0.35543
H    -3.81016  -3.51526   0.46671
H    -3.76732  -1.99413   1.43557
H    -3.96829  -1.91850  -0.32833
H     0.26730  -1.55438  -0.47977
H     1.98796  -1.06310  -1.19966
H     4.22573  -0.23132  -1.76332
H     5.41131   1.35551  -0.25217
H     4.32452   2.11163   1.86338
H     2.05209   1.25249   2.46148
H    -1.23130   1.71299   1.82522
H     0.61503   1.86712  -2.10650
H    -1.14122   0.31374  -3.02220
H    -3.01450   0.22894   0.91672
