45
Generated by autodE on: 2022-06-20. E = -1013.954292 Ha
C     0.00408   0.37591  -2.74725
C    -0.11148  -0.58446  -1.81950
C    -0.58885  -1.96692  -2.16940
C     0.22848  -0.35274  -0.35711
C     1.34859   0.68055  -0.09314
C     2.71721   0.15156  -0.38452
C     3.60199   0.63518  -1.27568
C     3.37511   1.84365  -2.14297
C     4.92884  -0.04437  -1.48538
C     1.07002   1.08429   1.36968
C     1.54687   0.06543   2.33052
N     1.87360  -0.74831   3.09165
N    -0.38166   1.22292   1.36955
C    -0.95693   0.13525   0.57189
C    -2.15250   0.62871  -0.27507
O    -2.99775  -0.16098  -0.70946
N    -2.16573   1.94277  -0.50970
C    -3.11101   2.55296  -1.42128
C    -1.49025  -0.96880   1.49731
O    -1.82320  -0.74773   2.64480
O    -1.55302  -2.16180   0.92703
C    -2.07445  -3.24107   1.72079
H    -0.25238   0.17338  -3.79128
H     0.34948   1.38460  -2.51504
H    -1.51312  -2.20730  -1.62303
H     0.15962  -2.72124  -1.87154
H    -0.78029  -2.06740  -3.24752
H     0.56848  -1.31420   0.05333
H     1.14477   1.58935  -0.67009
H     2.99494  -0.74870   0.17702
H     2.45804   2.39460  -1.89948
H     4.22750   2.53901  -2.05811
H     3.32199   1.54523  -3.20464
H     5.76130   0.64880  -1.27132
H     5.04613  -0.35056  -2.53995
H     5.04377  -0.93473  -0.84992
H     1.56274   2.03300   1.62802
H    -0.78957   1.23772   2.30433
H    -1.41168   2.47894  -0.08777
H    -4.14236   2.27551  -1.15671
H    -3.01084   3.64380  -1.36560
H    -2.92654   2.23067  -2.45978
H    -2.03793  -4.12883   1.07977
H    -3.11009  -3.02586   2.01940
H    -1.45355  -3.38734   2.61571
