23
Generated by autodE on: 2022-06-20. E = -351.521382 Ha
C    -3.56761   0.43116  -1.17590
C    -2.55766   0.24364  -0.29802
C    -2.82212   0.07502   1.17634
C    -1.17638   0.19991  -0.77360
C    -0.07829   0.01169   0.00068
C     1.27099  -0.02529  -0.52560
C     2.41734  -0.21683   0.17495
C     3.74992  -0.22859  -0.51933
C     2.47914  -0.42936   1.66090
H    -4.61019   0.46717  -0.84791
H    -3.37212   0.55292  -2.24579
H    -2.44205  -0.89409   1.54016
H    -2.30872   0.85434   1.76377
H    -3.89759   0.12858   1.39678
H    -1.03772   0.33128  -1.85354
H    -0.20817  -0.12056   1.07831
H     1.35953   0.11765  -1.60942
H     3.65600  -0.06851  -1.60346
H     4.41306   0.55303  -0.10680
H     4.27027  -1.18878  -0.35159
H     2.97403  -1.38996   1.88877
H     3.09956   0.35292   2.13304
H     1.49624  -0.42717   2.14917
