22
Generated by autodE on: 2022-06-20. E = -662.386705 Ha
C    -3.44687  -1.87260  -0.27557
N    -2.03555  -1.57063  -0.18729
C    -1.55177  -0.31354  -0.10704
O    -2.28461   0.69467  -0.10943
C    -0.08466  -0.17515  -0.01404
N     0.48251   1.05332   0.07153
C    -0.02487   2.27564   0.08959
C     0.83784   3.38557   0.19097
N     1.51968   4.32974   0.27398
C     0.84860  -1.29706  -0.00311
O     0.53570  -2.48168  -0.06809
O     2.13188  -0.90040   0.08756
C     3.13712  -1.92252   0.10359
H    -3.67549  -2.42926  -1.19872
H    -4.01745  -0.93678  -0.27959
H    -3.77617  -2.48241   0.58139
H    -1.35110  -2.32602  -0.17471
H     1.50790   0.99386   0.13552
H    -1.10326   2.40065   0.02578
H     3.10048  -2.51146  -0.82407
H     2.99444  -2.58790   0.96707
H     4.09638  -1.39860   0.18271
