61
Generated by autodE on: 2022-06-15. E = -1456.812273 Ha
C     0.09137   2.70474   2.96369
N    -0.04372   1.72537   1.90789
C     0.63502   1.83522   0.75984
O     1.34418   2.81932   0.50742
C     0.60286   0.63419  -0.20517
C     1.10946   1.03052  -1.62232
C     0.18098   2.09706  -2.25105
C    -1.06785   1.27890  -2.67318
C    -0.75091  -0.12543  -2.12866
C     0.74608  -0.20742  -2.45794
C    -0.77540  -0.14359  -0.54941
C    -2.12299   0.42133  -0.08470
C    -3.23229  -0.43611   0.03342
C    -4.49907   0.04082   0.38182
C    -4.70235   1.40319   0.60452
C    -3.62407   2.27728   0.45149
C    -2.36022   1.79338   0.10628
C    -0.52035  -1.61013   0.00023
C    -0.88011  -2.77232  -0.91842
C    -1.13269  -1.77591   1.41343
O    -0.99054  -0.95707   2.30287
O    -1.77035  -2.92036   1.58936
C    -2.35762  -3.14668   2.88345
O     0.89591  -1.73059   0.19594
C     1.54383  -0.50276   0.43281
C     1.76991  -0.37651   1.90398
N     2.07778  -0.36995   3.02277
C     2.97146  -0.56804  -0.13514
C     3.85646   0.49710   0.08911
C     5.15807   0.44386  -0.40949
C     5.59287  -0.67879  -1.12326
C     4.71768  -1.74680  -1.33045
C     3.41040  -1.69526  -0.83489
H     1.11008   2.69801   3.38842
H    -0.62540   2.46935   3.76048
H    -0.11439   3.71813   2.58690
H    -0.54025   0.85504   2.10358
H     2.15996   1.32920  -1.62255
H    -0.04749   2.91757  -1.56070
H     0.68361   2.54157  -3.12214
H    -2.01307   1.69688  -2.30945
H    -1.14462   1.21166  -3.76829
H    -1.40223  -0.90026  -2.54654
H     0.94483  -0.05534  -3.52898
H     1.23560  -1.13329  -2.14524
H    -3.13530  -1.50343  -0.15346
H    -5.32852  -0.66440   0.47219
H    -5.68952   1.78105   0.88020
H    -3.76112   3.35149   0.59583
H    -1.56594   2.52207  -0.02530
H    -0.61176  -3.71539  -0.42623
H    -1.95022  -2.79727  -1.15542
H    -0.31451  -2.70103  -1.85319
H    -2.83982  -4.12850   2.82519
H    -1.57929  -3.14361   3.65898
H    -3.09908  -2.36418   3.09818
H     3.52305   1.37814   0.64086
H     5.83625   1.28269  -0.23792
H     6.61330  -0.72105  -1.51094
H     5.05010  -2.63127  -1.87872
H     2.73163  -2.53222  -0.99219
