27
Generated by autodE on: 2022-06-15. E = -744.592954 Ha
C     3.58780  -0.58544   2.02802
O     2.50805  -0.34947   1.11667
C     2.84537  -0.15810  -0.16927
O     4.00093  -0.17634  -0.57172
C     1.70089   0.07595  -1.04922
C     1.84861   0.30358  -2.50133
O     0.54581   0.05576  -0.44285
C    -0.71295   0.21205  -0.80123
C    -1.09212   0.50981  -2.13202
N    -1.51226   0.76264  -3.19220
C    -1.70423   0.06512   0.25475
C    -1.30551  -0.23928   1.57555
C    -2.25882  -0.38258   2.58028
C    -3.62201  -0.22859   2.29733
C    -4.02411   0.07274   0.99178
C    -3.07941   0.21958  -0.02257
H     4.27597   0.27253   2.04380
H     3.12675  -0.71794   3.01358
H     4.14337  -1.49154   1.74468
H     2.91066   0.24872  -2.76594
H     1.45923   1.29320  -2.79589
H     1.29558  -0.45557  -3.08091
H    -0.24628  -0.36232   1.80317
H    -1.93492  -0.61849   3.59668
H    -4.36488  -0.34362   3.08962
H    -5.08440   0.19479   0.75895
H    -3.40757   0.45397  -1.03712
