27
Generated by autodE on: 2022-07-27. E = -744.585212 Ha
C    -4.59186  -0.31674   1.58147
O    -3.56695  -1.04967   0.89966
C    -2.40349  -0.40488   0.69982
O    -2.19094   0.74012   1.08253
C    -1.49292  -1.19694  -0.10927
C    -1.91045  -2.40293  -0.87140
O    -0.27411  -0.77414  -0.35218
C     0.55414   0.09744   0.20272
C     0.38153   0.53438   1.53344
N     0.35840   0.85438   2.65668
C     1.74482   0.42676  -0.56141
C     2.76017   1.23076   0.00248
C     3.90091   1.54433  -0.73302
C     4.05716   1.06509  -2.03870
C     3.05348   0.27049  -2.60656
C     1.90461  -0.04273  -1.88442
H    -4.87839   0.57597   1.00591
H    -4.24828  -0.00967   2.58028
H    -5.44485  -0.99974   1.66795
H    -2.03801  -3.26860  -0.19719
H    -2.87548  -2.24280  -1.37691
H    -1.14241  -2.65612  -1.61493
H     2.65219   1.60687   1.02171
H     4.67626   2.16735  -0.28142
H     4.95270   1.31342  -2.61244
H     3.16388  -0.10236  -3.62751
H     1.12068  -0.64818  -2.34096
