61
Generated by autodE on: 2022-06-15. E = -1456.741571 Ha. Imaginary frequency = -265.6 cm-1
C     0.50253   2.79679   2.97093
N     0.17179   1.85016   1.92918
C     0.74677   1.91175   0.71422
O     1.53856   2.82816   0.42083
C     0.44495   0.85030  -0.29082
C     1.22692   0.91636  -1.60053
C     0.43465   1.91998  -2.50017
C    -0.86013   1.13047  -2.84162
C    -0.64850  -0.21519  -2.07761
C     0.85667  -0.41315  -2.27172
C    -0.76330   0.16648  -0.59132
C    -2.14894   0.41979  -0.10197
C    -3.17142  -0.49108  -0.44191
C    -4.49791  -0.27195  -0.07360
C    -4.85142   0.88220   0.63105
C    -3.86226   1.82000   0.93719
C    -2.53337   1.59604   0.56986
C    -0.22026  -2.00041   0.48281
C    -0.62009  -3.11948  -0.42113
C    -1.03280  -1.65473   1.65717
O    -0.73087  -0.83627   2.51625
O    -2.19409  -2.31231   1.66434
C    -3.14165  -1.93458   2.67405
O     1.09540  -1.80109   0.49069
C     1.87605  -0.80584   0.91626
C     1.88333  -0.40838   2.29025
N     2.08659  -0.08184   3.39005
C     3.18187  -0.70735   0.24362
C     4.03413   0.37580   0.53821
C     5.24639   0.52092  -0.13400
C     5.63626  -0.41451  -1.09881
C     4.80156  -1.50060  -1.38399
C     3.58335  -1.64908  -0.72201
H    -0.08883   2.55904   3.86444
H     1.57200   2.75562   3.23683
H     0.26981   3.82693   2.65794
H    -0.32649   0.99847   2.18303
H     2.28869   1.15576  -1.49217
H     0.24148   2.86564  -1.97644
H     1.01945   2.14828  -3.40403
H    -1.77777   1.64555  -2.52497
H    -0.94067   0.93145  -3.92049
H    -1.31002  -1.02526  -2.40284
H     1.14550  -0.44103  -3.33277
H     1.25643  -1.29909  -1.77611
H    -2.92547  -1.39408  -0.99806
H    -5.25916  -1.00863  -0.34052
H    -5.88962   1.05672   0.92294
H    -4.12434   2.74474   1.45700
H    -1.79678   2.36194   0.79341
H    -0.50209  -4.09251   0.08807
H    -1.67173  -3.03051  -0.71499
H     0.00916  -3.12155  -1.32017
H    -3.34262  -0.85577   2.62704
H    -2.75857  -2.19694   3.67069
H    -4.05384  -2.50053   2.45555
H     3.73028   1.12035   1.27539
H     5.89015   1.37283   0.09610
H     6.58770  -0.29980  -1.62282
H     5.10305  -2.24249  -2.12701
H     2.94279  -2.50288  -0.94241
