15
Generated by autodE on: 2022-06-19. E = -379.931261 Ha
C     3.23554   0.92579  -0.04158
N     2.35877   0.12548   0.03644
N     1.49830  -0.76679  -0.03444
C     0.14596  -0.36709  -0.01121
C    -0.27273   0.97256   0.08377
C    -1.63533   1.27534   0.08969
C    -2.59254   0.25806   0.00526
C    -2.17402  -1.07487  -0.08697
C    -0.81559  -1.38881  -0.09620
H     3.89220   1.45782   0.64749
H     0.46610   1.77363   0.15434
H    -1.95163   2.31878   0.16344
H    -3.65705   0.50206   0.01282
H    -2.91246  -1.87753  -0.15341
H    -0.47678  -2.42408  -0.17040
