41
Generated by autodE on: 2022-06-19. E = -1069.399460 Ha. Imaginary frequency = -328.8 cm-1
C    -2.65820   3.20384   1.35004
O    -1.71053   2.25631   1.85691
C    -1.29996   1.32192   0.93644
C    -0.20774   0.03257   2.29978
N     0.83183  -0.26951   1.75945
N     1.54385  -0.04772   0.73757
C     2.02286  -1.13624   0.00602
C     1.67993  -2.47400   0.28787
C     2.15151  -3.49422  -0.53440
C     2.95306  -3.19902  -1.64587
C     3.29075  -1.87040  -1.92525
C     2.83709  -0.83959  -1.10264
C    -0.37240   1.64194  -0.05754
O     0.33822   2.77698  -0.11857
C     0.76080   3.44612   1.07487
C    -0.17693   0.75203  -1.21678
O     0.56454   1.08507  -2.14454
C    -0.90647  -0.54816  -1.23779
C    -0.57205  -1.50033  -2.34336
C    -1.83194  -0.85302  -0.29043
C    -2.56796  -2.15743  -0.28731
C    -2.21443   0.16060   0.72890
O    -3.24267   0.06051   1.39231
H    -3.57635   2.69900   1.01210
H    -2.22954   3.78306   0.51600
H    -2.89844   3.88180   2.17960
H    -0.60763   0.06922   3.31385
H     1.04449  -2.70034   1.14619
H     1.88727  -4.53062  -0.31136
H     3.31497  -4.00415  -2.28890
H     3.91641  -1.63462  -2.78913
H     3.08971   0.20168  -1.30570
H     1.62488   4.05739   0.78259
H     1.06753   2.72026   1.84178
H    -0.02746   4.09704   1.47656
H     0.16261  -1.06424  -3.02950
H    -0.16042  -2.43700  -1.93452
H    -1.47536  -1.77178  -2.91386
H    -1.85709  -2.99903  -0.25824
H    -3.24285  -2.22962   0.57429
H    -3.16498  -2.27916  -1.20694
