31
Generated by autodE on: 2022-05-28. E = -709.945081 Ha
C     2.66590   0.77115  -2.31473
O     2.00950   0.07559  -1.24562
C     1.74554   0.77628  -0.13819
O     2.03326   1.95101  -0.01697
C     1.09475  -0.09310   0.95543
C     0.75685   0.77429   2.16720
N     2.01622  -1.18721   1.33722
C     1.64754  -2.41130   0.61604
C     0.22970  -2.15328   0.22076
C    -0.10440  -0.86202   0.38803
C    -1.39832  -0.23966   0.05839
C    -1.49828   1.11592  -0.31292
C    -2.73069   1.67554  -0.65957
C    -3.89150   0.89805  -0.63855
C    -3.80927  -0.44845  -0.26526
C    -2.58015  -1.00859   0.08100
H     2.05241   1.61808  -2.65461
H     2.78476   0.04055  -3.12312
H     3.64887   1.14019  -1.98787
H     0.28247   0.14707   2.93482
H     0.07489   1.59677   1.91257
H     1.67496   1.20999   2.58831
H     2.98794  -0.92776   1.18084
H     1.75173  -3.30653   1.25608
H     2.26739  -2.60018  -0.28435
H    -0.41897  -2.92368  -0.19925
H    -0.61014   1.74781  -0.34344
H    -2.78070   2.72817  -0.94816
H    -4.85514   1.33846  -0.90492
H    -4.71124  -1.06461  -0.23557
H    -2.53204  -2.05475   0.38968
