45
Generated by autodE on: 2022-06-22. E = -1238.293789 Ha. Imaginary frequency = -462.9 cm-1
C    -4.26615   3.08905  -0.15049
N    -3.12707   2.34446   0.35220
C    -2.11011   2.00583  -0.45203
O    -2.01148   2.32519  -1.63868
C    -1.07761   1.11703   0.16087
O    -0.88400   1.15331   1.51114
C     0.42714   0.73182   1.75920
O     0.84419   0.55365   2.88323
C     1.00253   0.59597   0.44144
C     2.34873   0.27747   0.04341
C     2.74381   0.41195  -1.30432
C     4.02619   0.03263  -1.69526
C     4.92570  -0.48844  -0.75806
C     4.53746  -0.62614   0.58001
C     3.25996  -0.24677   0.98607
O     0.13451   1.13935  -0.44205
C    -0.40853  -1.49800   0.20904
C    -0.34709  -1.94665   1.61700
N     0.74253  -2.67323   1.96707
O    -1.24501  -1.69431   2.43855
C     0.49122  -2.15197  -0.82312
C     0.17829  -1.67047  -2.21691
C    -1.00948  -1.11534  -2.51289
N    -1.98122  -0.86756  -1.54892
C    -3.32642  -0.50053  -1.95997
C    -1.60164  -0.84407  -0.20721
H    -4.77682   2.53068  -0.95148
H    -4.97017   3.25620   0.67293
H    -3.95423   4.06321  -0.55729
H    -3.11450   2.03799   1.32027
H     2.03878   0.80832  -2.03527
H     4.32576   0.14069  -2.74003
H     5.92885  -0.78752  -1.07004
H     5.23686  -1.03363   1.31329
H     2.95360  -0.35837   2.02547
H     0.85968  -2.89874   2.94978
H     1.56152  -2.72215   1.37193
H     1.55800  -1.98892  -0.59386
H     0.35859  -3.25241  -0.75707
H     0.91569  -1.81861  -3.00698
H    -1.28094  -0.81782  -3.52888
H    -3.85019  -1.35874  -2.41489
H    -3.90305  -0.17651  -1.08511
H    -3.31053   0.32465  -2.68674
H    -2.42677  -0.83567   0.50703
