23
Generated by autodE on: 2022-06-17. E = -351.521382 Ha
C    -3.63602  -0.57789   0.86319
C    -2.56608   0.04025   0.31640
C    -2.71811   1.30993  -0.48172
C    -1.22844  -0.52090   0.49547
C    -0.07816   0.00407   0.00340
C     1.22536  -0.59287   0.21118
C     2.41748  -0.12783  -0.24088
C     2.58668   1.12305  -1.05563
C     3.69320  -0.86286   0.05885
H    -4.64767  -0.17962   0.74543
H    -3.52228  -1.49947   1.44239
H    -2.13855   2.13341  -0.03228
H    -3.77091   1.62032  -0.53968
H    -2.33744   1.18191  -1.50869
H    -1.17190  -1.44594   1.08185
H    -0.12649   0.92659  -0.58139
H     1.23410  -1.51884   0.79891
H     1.64424   1.64549  -1.26449
H     3.07102   0.88833  -2.01997
H     3.26236   1.82688  -0.53811
H     3.51976  -1.77119   0.65436
H     4.20829  -1.15023  -0.87547
H     4.39898  -0.21406   0.60825
