12
Generated by autodE on: 2022-06-17. E = -411.054237 Ha
C    -2.75578   0.50088   0.53050
C    -1.68888  -0.34715  -0.06964
O    -1.87080  -1.38658  -0.67928
N    -0.37523   0.18032   0.13753
N     0.50615  -0.57037  -0.39213
N     1.77904  -0.39795  -0.39253
C     2.22662   0.69027   0.23455
N     2.76537   1.59426   0.74218
H    -2.57428   0.60400   1.61263
H    -3.74236   0.05903   0.34842
H    -2.70263   1.51409   0.10023
H     0.17534  -1.42863  -0.88638
