35
Generated by autodE on: 2022-06-17. E = -762.551406 Ha. Imaginary frequency = -370.0 cm-1
C    -2.21924  -0.79605  -1.84982
C    -2.16225  -1.41684  -0.64435
C    -3.35257  -2.13921  -0.07089
C    -0.99645  -1.32520   0.21281
C     0.26375  -0.81747  -0.21467
C     1.43814  -1.03669   0.63332
C     2.71352  -1.20403   0.21854
C     3.81617  -1.40974   1.21874
C     3.15711  -1.20193  -1.21609
N    -0.06387   1.14870  -0.15799
C     0.47795   1.90936  -1.18960
C    -0.16836   3.24102  -1.47286
O     1.46326   1.50790  -1.79391
N    -1.34206   1.32931   0.15349
N    -1.79130   0.62656   1.18448
C    -1.02060   0.60063   2.26517
N    -0.46029   0.53096   3.29144
H    -1.35980  -0.28882  -2.29426
H    -3.13293  -0.82804  -2.44885
H    -3.08904  -3.17753   0.18937
H    -3.68226  -1.64947   0.86021
H    -4.19615  -2.15827  -0.77477
H    -1.03250  -1.85927   1.16456
H     0.43284  -0.78495  -1.29162
H     1.23869  -1.06984   1.70877
H     4.31802  -2.37921   1.05294
H     4.59482  -0.63594   1.09703
H     3.44983  -1.37646   2.25500
H     3.77980  -2.08975  -1.41851
H     3.79417  -0.32199  -1.41239
H     2.32976  -1.18688  -1.93559
H    -0.34015   3.80651  -0.54596
H    -1.14923   3.07941  -1.95214
H     0.47251   3.80983  -2.15775
H    -2.03158   1.33884  -0.61774
