71
Generated by autodE on: 2022-06-09. E = -4207.378182 Ha
C   -10.84327   0.90646  -0.43694
O   -10.28120   0.41250   0.79021
C   -10.65643  -0.79820   1.19504
O   -11.43917  -1.49796   0.59764
C    -9.86127  -1.22294   2.47309
C    -8.48219  -1.38782   1.79141
O    -8.19572  -2.37825   1.15099
O    -7.71444  -0.31510   1.87125
C    -6.45962  -0.33709   1.17638
C   -10.40448  -2.58857   2.96511
C    -9.44174  -3.48924   3.73904
C    -8.78991  -2.87980   4.97724
C    -7.67791  -1.84058   4.69327
C    -7.97508  -0.39803   5.16610
Br   -6.27226   0.65823   4.69004
C    -8.09354  -0.49552   6.69485
C    -6.96807  -0.56027   7.52694
C    -7.10076  -0.78043   8.89976
C    -8.36532  -0.95508   9.46721
C    -9.49300  -0.91960   8.64308
C    -9.35648  -0.69981   7.27151
C    -9.13337   0.32350   4.51592
C    -9.96695  -0.11263   3.52374
C   -11.17505   0.77299   3.57965
C   -12.49413   0.51775   2.91516
N   -11.02398   1.78157   4.36052
C    -9.66696   1.73878   4.92395
C    -8.93604   2.87354   4.13878
C    -8.35442   2.64780   2.88385
C    -7.81034   3.70220   2.14679
C    -7.84340   5.00812   2.64414
C    -8.44132   5.24683   3.88366
C    -8.98652   4.19048   4.62035
C    -9.70952   2.07897   6.41272
C    -8.53083   2.40001   7.10227
C    -8.55675   2.68902   8.46577
C    -9.76978   2.68315   9.16434
C   -10.95134   2.39075   8.48098
C   -10.91965   2.09287   7.11453
H   -10.57004   0.24299  -1.26936
H   -11.93773   0.96963  -0.35700
H   -10.41220   1.90325  -0.58056
H    -5.81124  -1.12240   1.58937
H    -6.01286   0.64944   1.33934
H    -6.62506  -0.51532   0.10474
H   -10.76260  -3.13878   2.08609
H   -11.28964  -2.37113   3.58270
H    -8.66284  -3.86966   3.06117
H   -10.02551  -4.36929   4.05424
H    -8.34456  -3.69458   5.56748
H    -9.57325  -2.45207   5.61632
H    -6.77114  -2.13699   5.23512
H    -7.38361  -1.85575   3.64118
H    -5.97414  -0.41500   7.10451
H    -6.20706  -0.80934   9.52756
H    -8.47188  -1.11733  10.54225
H   -10.49050  -1.05350   9.06725
H   -10.24966  -0.66583   6.64890
H   -12.53317   0.93533   1.89888
H   -13.28285   1.01060   3.49899
H   -12.71936  -0.55526   2.85288
H    -8.31371   1.64471   2.47223
H    -7.35237   3.49399   1.17641
H    -7.41281   5.83168   2.06946
H    -8.49143   6.26234   4.28430
H    -9.46057   4.40493   5.57759
H    -7.58050   2.41126   6.56820
H    -7.62442   2.91924   8.98664
H    -9.79078   2.90937  10.23303
H   -11.90654   2.38941   9.01171
H   -11.84455   1.86090   6.58885
