71
Generated by autodE on: 2022-06-09. E = -4207.279885 Ha. Imaginary frequency = -174.2 cm-1
C   -12.93056  -1.48669   1.28705
O   -11.49995  -1.36922   1.37658
C   -10.98333  -1.12576   2.57532
O   -11.64133  -1.00121   3.58577
C    -9.44663  -1.08364   2.56528
C    -8.91230  -0.82437   1.14515
O    -8.57248   0.26510   0.73229
O    -8.85503  -1.93357   0.41595
C    -8.40398  -1.79792  -0.94101
C    -9.00464  -2.48184   3.10159
C    -7.48803  -2.70467   3.23202
C    -6.86251  -2.52648   4.62979
C    -6.26192  -1.15979   4.99080
C    -7.26664  -0.08485   5.46226
Br   -5.99468   1.54338   5.86785
C    -7.95900  -0.45733   6.76710
C    -7.21086  -0.66025   7.93880
C    -7.83120  -1.06298   9.12125
C    -9.21402  -1.27897   9.15466
C    -9.96401  -1.08984   7.99322
C    -9.34259  -0.68162   6.80907
C    -8.19944   0.26551   4.41690
C    -8.95011  -0.03438   3.48231
C   -10.31988   1.77690   2.89159
C   -11.36167   1.88003   1.84209
N    -9.98300   2.54244   3.77070
C    -9.30726   2.96430   4.80469
C    -8.14224   3.83419   4.52034
C    -7.40158   3.63397   3.33865
C    -6.29929   4.43155   3.04526
C    -5.91289   5.45351   3.92154
C    -6.65582   5.67741   5.08375
C    -7.76485   4.88113   5.37883
C    -9.88701   2.72738   6.14127
C    -9.10182   2.78272   7.31112
C    -9.65989   2.50256   8.55820
C   -11.01020   2.15759   8.67307
C   -11.79832   2.08933   7.51931
C   -11.24624   2.37178   6.27031
H   -13.14563  -1.71716   0.23782
H   -13.28606  -2.29592   1.93972
H   -13.40652  -0.53927   1.57608
H    -8.41788  -2.80847  -1.36439
H    -7.38512  -1.38646  -0.96534
H    -9.08158  -1.13843  -1.50195
H    -9.43511  -3.23262   2.42476
H    -9.49052  -2.61558   4.07909
H    -6.94095  -2.08718   2.49954
H    -7.30314  -3.74674   2.92936
H    -6.02451  -3.23811   4.70090
H    -7.58252  -2.83959   5.40457
H    -5.52992  -1.30240   5.79877
H    -5.71103  -0.76065   4.12612
H    -6.13546  -0.47680   7.93105
H    -7.23189  -1.20533  10.02372
H    -9.70085  -1.58877  10.08236
H   -11.04471  -1.24766   8.00391
H    -9.94328  -0.53484   5.91270
H   -11.07900   1.31019   0.94824
H   -11.56282   2.92860   1.57117
H   -12.28930   1.43955   2.24227
H    -7.68184   2.82577   2.66039
H    -5.72878   4.24941   2.13110
H    -5.04408   6.07572   3.69380
H    -6.37650   6.48456   5.76555
H    -8.34192   5.08250   6.28148
H    -8.03804   2.99889   7.23697
H    -9.02584   2.53548   9.44740
H   -11.44229   1.93416   9.65101
H   -12.85420   1.81745   7.59184
H   -11.87548   2.32321   5.37960
