29
Generated by autodE on: 2022-06-07. E = -633.710935 Ha
C     3.76623   0.60166   0.24481
N     2.34880   0.61953  -0.04687
C     1.65079  -0.52102  -0.15938
O     2.18334  -1.64293  -0.08429
C     0.18372  -0.42843  -0.41659
C    -0.76258   0.52335  -0.14995
C    -0.62685   1.86114   0.45780
C    -1.85661   2.45285   1.08956
O     0.42797   2.50181   0.43837
C    -2.11873  -0.13153  -0.40853
C    -2.32011  -1.17083   0.74227
C    -1.23552  -2.23766   0.43377
C    -0.55393  -1.67693  -0.85950
C    -1.76279  -1.05935  -1.58351
H     4.31372   0.00567  -0.50186
H     4.14808   1.62998   0.22530
H     3.97539   0.16487   1.23621
H     1.81494   1.49451   0.00191
H    -2.34069   1.73083   1.76490
H    -1.59021   3.36789   1.63369
H    -2.59002   2.69769   0.30343
H    -2.95730   0.55914  -0.54790
H    -2.20335  -0.70799   1.73211
H    -3.33278  -1.59621   0.68494
H    -1.68282  -3.21875   0.21677
H    -0.50606  -2.36937   1.24475
H     0.06215  -2.40636  -1.39565
H    -2.55164  -1.79168  -1.81151
H    -1.48594  -0.51163  -2.49646
