29
Generated by autodE on: 2022-07-27. E = -870.497103 Ha
C    -0.97410  -0.31926   3.47854
N    -0.65071  -0.07785   2.08609
C    -1.27745  -0.74703   1.11923
O    -2.14278  -1.61069   1.36190
C    -0.89280  -0.51289  -0.30802
N     0.25972  -0.11992  -0.82148
C     1.46135   0.43190  -0.48188
C     2.50160   0.19188  -1.41744
N     3.34613  -0.02774  -2.19188
C     1.69842   1.42378   0.55522
O     0.83420   1.97974   1.22936
O     2.99376   1.73638   0.64538
C     3.34631   2.79159   1.55252
C    -1.77236  -0.99083  -1.45030
O    -1.32398  -0.87184  -2.60584
N    -2.97520  -1.48531  -1.17052
C    -3.86121  -1.95931  -2.21438
H    -0.83662  -1.38089   3.73196
H    -2.01942  -0.05086   3.70449
H    -0.30674   0.28764   4.10247
H    -0.10495   0.75792   1.84041
H     0.18129  -0.33844  -1.84818
H     3.06302   2.52309   2.58019
H     2.84780   3.72846   1.26542
H     4.43385   2.90041   1.47362
H    -3.15657  -1.67997  -0.18309
H    -4.84634  -2.16221  -1.77745
H    -3.48133  -2.88394  -2.67988
H    -3.96683  -1.20038  -3.00318
