41
Generated by autodE on: 2022-05-31. E = -1392.391403 Ha
C    -3.36405  -0.64211   2.58154
N    -2.15919  -0.66922   1.77254
C    -2.16490  -0.24010   0.50953
O    -3.18107   0.18235  -0.05692
C    -0.85224  -0.20177  -0.27907
C    -1.08693  -0.71128  -1.74200
C    -1.69502  -2.10133  -1.58567
C    -0.68871  -2.89300  -1.19252
C     0.53912  -1.99290  -1.14518
O     0.25230  -1.03053  -2.16139
C     0.38299  -1.09369   0.10881
F     0.24836  -1.86016   1.25167
C     1.45956  -0.00424   0.38208
C     2.66936  -0.44819   1.17044
O     3.03196   0.08360   2.19402
O     3.27035  -1.46741   0.57577
C     4.46040  -1.98122   1.20360
N     0.62511   1.01725   1.03422
C    -0.21604   1.22481  -0.11413
C    -1.20922   2.36940  -0.02468
O    -1.57601   2.83461   1.02924
O    -1.63564   2.72694  -1.22272
C    -2.68601   3.71210  -1.26666
O     0.70806   1.46698  -1.22641
C     1.78224   0.67885  -0.97433
O     2.76371   0.62299  -1.65869
H    -3.72632   0.38975   2.71200
H    -3.13738  -1.06900   3.56551
H    -4.16744  -1.22969   2.11179
H    -1.29214  -1.00123   2.17935
H    -1.56361   0.00571  -2.41518
H    -2.75379  -2.33444  -1.68685
H    -0.71236  -3.94111  -0.89811
H     1.52868  -2.44240  -1.27030
H     5.22675  -1.19545   1.25609
H     4.22667  -2.34196   2.21485
H     4.79944  -2.80740   0.56955
H     1.16441   1.85587   1.26856
H    -2.35665   4.64091  -0.78142
H    -2.89017   3.88338  -2.32891
H    -3.57836   3.31912  -0.75952
