21
Generated by autodE on: 2022-05-31. E = -777.427687 Ha
C     4.60274  -0.09151   1.17695
O     3.28675   0.38943   0.84318
C     2.36166  -0.52889   0.61935
O     2.50880  -1.73274   0.66995
C     1.06004   0.07814   0.28022
N    -0.02440  -0.60919   0.00547
C    -1.06964   0.24464  -0.27612
C    -2.40940  -0.17482  -0.62266
O    -3.32858   0.58884  -0.86992
O    -2.52141  -1.51502  -0.64005
C    -3.81094  -2.04676  -0.97107
C    -0.57384   1.57182  -0.16094
O    -1.01298   2.69077  -0.28596
O     0.82173   1.37756   0.20443
H     5.21701   0.80264   1.32713
H     5.00094  -0.70002   0.35286
H     4.56280  -0.69180   2.09666
H    -0.07248  -1.63054   0.00349
H    -4.56529  -1.71135  -0.24455
H    -3.70671  -3.13717  -0.93165
H    -4.11153  -1.73094  -1.98074
