49
Generated by autodE on: 2022-06-23. E = -1298.749521 Ha
C    -1.96249   3.82025  -1.18312
O    -1.94713   2.61730  -0.39912
C    -0.89860   1.81608  -0.55157
O     0.08088   2.09931  -1.20661
C    -0.97742   0.55669   0.35082
C    -2.21746   0.63665   1.25384
O    -2.17760   0.91253   2.43100
O    -3.32786   0.36147   0.57985
C    -4.56406   0.42501   1.30842
O     0.17657   0.59569   1.17652
C     1.10454  -0.45108   0.84067
C     2.52502   0.03788   0.94069
C     2.92649   1.23520   0.32865
C     4.25906   1.64727   0.39598
C     5.20565   0.86841   1.07182
C     4.81065  -0.32291   1.68720
C     3.47502  -0.73145   1.62553
C     0.66044  -0.91221  -0.56728
N     1.11983  -2.21246  -0.97198
C     2.47547  -2.33710  -1.47735
C     0.44451  -3.31846  -0.50945
C    -0.75319  -3.26481   0.11522
C    -1.43718  -1.96278   0.42338
C    -0.88910  -0.78547  -0.43626
C    -1.58732  -0.71143  -1.79385
N    -1.68308  -1.86849  -2.46346
O    -2.01970   0.35483  -2.24661
H    -2.88652   4.34394  -0.91381
H    -1.96364   3.56712  -2.25311
H    -1.08641   4.44151  -0.95010
H    -4.55177  -0.29064   2.14264
H    -5.34943   0.16228   0.59117
H    -4.72319   1.44149   1.69551
H     0.97180  -1.28890   1.54379
H     2.18915   1.83961  -0.20126
H     4.56216   2.58152  -0.08306
H     6.24790   1.19262   1.12179
H     5.54219  -0.93334   2.22202
H     3.16345  -1.66023   2.11023
H     1.01523  -0.17668  -1.30093
H     2.71276  -1.46744  -2.10726
H     3.23319  -2.39236  -0.67607
H     2.55944  -3.24290  -2.09586
H     0.92431  -4.27523  -0.73102
H    -1.24270  -4.19531   0.40622
H    -2.52148  -2.04749   0.26344
H    -1.31871  -1.71092   1.49185
H    -2.15462  -1.87714  -3.36303
H    -1.36894  -2.74429  -2.05070
