20
Generated by autodE on: 2022-06-23. E = -457.715321 Ha
C     3.09607   0.64298   0.30412
N     1.82992  -0.02056   0.04023
C     1.81060  -1.39962  -0.20323
C     0.67173  -2.08972  -0.37302
C    -0.69514  -1.45319  -0.31471
C    -0.57568   0.03427  -0.02510
C    -1.76734   0.88941   0.09603
N    -2.96472   0.26871  -0.05231
O    -1.71389   2.11555   0.32252
C     0.63831   0.63344   0.13235
H     3.81483   0.44282  -0.50560
H     3.54075   0.30084   1.25396
H     2.93234   1.72617   0.36489
H     2.79377  -1.87166  -0.24808
H     0.73849  -3.16297  -0.56550
H    -1.23863  -1.62918  -1.26587
H    -1.31572  -1.95803   0.45374
H    -3.04942  -0.72269  -0.23671
H    -3.81116   0.82173   0.02554
H     0.69362   1.70270   0.34240
