29
Generated by autodE on: 2022-07-27. E = -840.970179 Ha
C    -1.46367   3.37741  -1.44069
O    -0.98402   2.14240  -0.90579
C    -1.92188   1.32113  -0.36584
O    -3.10770   1.62888  -0.34323
C    -1.35281   0.09603   0.15143
O     0.00490   0.02061  -0.01545
C     0.87724  -0.86298   0.28601
C     2.25062  -0.61204  -0.03892
C     2.66618   0.57809  -0.68098
C     4.01084   0.76906  -0.97178
C     4.95315  -0.21371  -0.63016
C     4.54931  -1.39348   0.00549
C     3.20409  -1.59632   0.30208
C    -2.04152  -0.98952   0.79268
O    -1.48515  -2.00805   1.21094
O    -3.37353  -0.81161   0.90939
C    -4.09873  -1.87081   1.54036
H    -2.18154   3.20245  -2.25617
H    -0.58151   3.90264  -1.82662
H    -1.94880   3.98363  -0.66084
H     0.55160  -1.77883   0.78252
H     1.92363   1.33416  -0.94077
H     4.33567   1.68617  -1.46752
H     6.00885  -0.05585  -0.86227
H     5.28686  -2.15417   0.26884
H     2.87468  -2.51213   0.79806
H    -3.98978  -2.81171   0.98044
H    -5.14918  -1.55564   1.54094
H    -3.75291  -2.02489   2.57352
