49
Generated by autodE on: 2022-06-23. E = -1298.680705 Ha. Imaginary frequency = -430.1 cm-1
C    -1.42786   3.94049  -1.10898
O    -0.90202   2.81084  -0.40208
C    -1.76846   1.82456  -0.12093
O    -2.95189   1.88223  -0.41336
C    -1.10773   0.66546   0.50608
C    -1.83829  -0.25248   1.40398
O    -1.30216  -0.85680   2.32133
O    -3.13846  -0.36770   1.12769
C    -3.89599  -1.24235   1.97591
O     0.19846   0.87020   0.76822
C     1.07144  -0.13625   0.92439
C     2.47217   0.26768   0.86566
C     2.86443   1.47800   0.25683
C     4.21314   1.82001   0.18100
C     5.19166   0.96465   0.70317
C     4.81077  -0.23638   1.31202
C     3.46240  -0.58265   1.39575
C     0.54325  -1.42478  -0.74839
N     0.40230  -2.72183  -0.25524
C     1.53592  -3.37914   0.36955
C    -0.87676  -3.22873  -0.03577
C    -1.98045  -2.68625  -0.57638
C    -1.89483  -1.48955  -1.48488
C    -0.58464  -0.75047  -1.28416
C    -0.25033   0.38861  -2.18887
N    -1.25176   0.85089  -2.97123
O     0.88907   0.87396  -2.24376
H    -2.21178   4.43710  -0.51908
H    -1.84251   3.62991  -2.07878
H    -0.58127   4.61991  -1.26064
H    -3.46156  -2.25111   1.97460
H    -4.90805  -1.26191   1.55594
H    -3.91842  -0.85278   3.00399
H     0.78567  -0.93118   1.61073
H     2.10351   2.14057  -0.15517
H     4.50630   2.76082  -0.29099
H     6.24797   1.23560   0.63777
H     5.56858  -0.90402   1.72850
H     3.16573  -1.51491   1.87929
H     1.51680  -1.19396  -1.17900
H     2.46556  -3.04453  -0.11060
H     1.60595  -3.16292   1.45058
H     1.45233  -4.46770   0.24138
H    -0.91703  -4.11614   0.59929
H    -2.95358  -3.13690  -0.37797
H    -1.96665  -1.79974  -2.54831
H    -2.75293  -0.81766  -1.31910
H    -1.07995   1.69244  -3.51272
H    -2.21448   0.56900  -2.83040
