23
Generated by autodE on: 2022-06-23. E = -351.521382 Ha
C     3.52202  -1.37406  -0.08718
C     2.49041  -0.61127   0.33683
C     2.65058   0.35635   1.48147
C     1.18739  -0.71695  -0.31674
C     0.07665  -0.01177   0.01483
C    -1.19324  -0.15668  -0.66724
C    -2.34682   0.50519  -0.39717
C    -3.58944   0.24269  -1.20023
C    -2.50401   1.53006   0.69007
H     4.50719  -1.31514   0.38380
H     3.40277  -2.07624  -0.91808
H     1.95554   0.11772   2.30366
H     2.42104   1.38758   1.16552
H     3.67512   0.33693   1.87895
H     1.12318  -1.43422  -1.14388
H     0.13273   0.70473   0.83885
H    -1.20856  -0.88355  -1.48847
H    -3.94807   1.17065  -1.68098
H    -3.42760  -0.51399  -1.98187
H    -4.41254  -0.09961  -0.54741
H    -2.83883   2.49174   0.26267
H    -1.58586   1.71205   1.26312
H    -3.29399   1.21871   1.39627
