21
Generated by autodE on: 2022-07-26. E = -570.084044 Ha
C     1.82123  -1.38775   2.41470
O     1.04643  -0.81490   1.34913
C     0.81327  -1.59712   0.30276
O     1.21614  -2.74367   0.20833
C     0.00990  -0.98747  -0.79277
C    -0.24152  -1.84366  -1.98721
N    -0.48255   0.22275  -0.77235
N    -0.41442   1.17481   0.14999
C    -1.09902   2.28208  -0.29025
C    -1.09946   3.44046   0.66530
O    -1.67925   2.34400  -1.38847
H     2.81697  -1.67872   2.05037
H     1.31052  -2.26937   2.82793
H     1.90681  -0.60392   3.17566
H    -0.78141  -2.75786  -1.69327
H     0.71296  -2.16359  -2.43415
H    -0.83010  -1.30698  -2.74330
H    -1.02874   0.51768  -1.60989
H    -0.54844   3.21174   1.58587
H    -0.64904   4.31650   0.17161
H    -2.13991   3.70672   0.91098
