21
Generated by autodE on: 2022-05-29. E = -570.092829 Ha
C    -4.05281  -0.07645  -0.60231
O    -2.83122   0.62271  -0.31451
C    -1.72024  -0.10486  -0.27983
O    -1.67748  -1.30756  -0.47682
C    -0.51827   0.71083   0.03132
C    -0.51351   2.17407   0.27155
N     0.58527   0.01723   0.08493
N     1.79055   0.49536   0.34662
C     2.71787  -0.52157   0.32354
C     4.12781  -0.09099   0.61155
O     2.43338  -1.70630   0.08675
H    -3.99643  -0.54852  -1.59356
H    -4.24003  -0.84507   0.16105
H    -4.84377   0.68147  -0.58418
H    -1.52031   2.59314   0.18096
H    -0.11465   2.38904   1.27708
H     0.15836   2.67128  -0.44778
H     0.52712  -1.00633  -0.09115
H     4.77002  -0.36324  -0.24129
H     4.19830   0.98774   0.79782
H     4.50203  -0.64402   1.48796
