30
Generated by autodE on: 2022-06-02. E = -708.974383 Ha
C     3.26305  -1.84045  -1.11557
N     2.08118  -1.30772  -0.47132
C     1.94400   0.01037  -0.25687
O     2.83563   0.82940  -0.54039
C     0.68277   0.50059   0.37275
C    -0.58757   0.00952   0.44601
C    -1.13448  -1.25862  -0.06081
O    -0.50113  -2.28350  -0.28585
O    -2.45720  -1.18914  -0.23941
C    -3.11282  -2.37218  -0.71756
C    -1.46995   1.12724   0.98790
C    -1.56677   2.18208  -0.16181
C    -0.11773   2.73500  -0.24158
C     0.62478   1.93067   0.87802
C    -0.48166   1.82121   1.94235
H     3.19548  -2.93524  -1.13522
H     3.36563  -1.47335  -2.15088
H     4.17392  -1.55054  -0.56907
H     1.26382  -1.90485  -0.31927
H    -2.71180  -2.66402  -1.69885
H    -2.97647  -3.19973  -0.00648
H    -4.17454  -2.11404  -0.80204
H    -2.43435   0.80295   1.39277
H    -2.28392   2.96864   0.11527
H    -1.91111   1.72367  -1.09925
H    -0.08128   3.80917  -0.00813
H     0.35556   2.58468  -1.22177
H     1.59217   2.35184   1.17043
H    -0.83762   2.79940   2.29874
H    -0.19602   1.19256   2.79869
