20
Generated by autodE on: 2022-06-02. E = -552.790916 Ha
C     3.54599  -1.67131   0.27367
O     2.80522  -0.44788   0.17446
C     1.48800  -0.55869  -0.04246
O     0.90616  -1.62591  -0.16144
C     0.84119   0.76426  -0.11493
C     1.58828   2.05162   0.06066
N    -0.42881   0.73088  -0.34093
C    -1.58624   0.57596  -0.62684
C    -2.86440   0.36446   0.02679
C    -3.21189  -1.08755   0.22622
O    -3.60491   1.29955   0.30639
H     3.46910  -2.24557  -0.66114
H     3.17180  -2.28199   1.10834
H     4.58723  -1.38026   0.45426
H     0.90582   2.90662  -0.03236
H     2.07187   2.08965   1.04971
H     2.38157   2.14583  -0.69816
H    -3.81126  -1.42896  -0.63480
H    -3.82358  -1.18451   1.13490
H    -2.31161  -1.71571   0.29288
