50
Generated by autodE on: 2022-06-02. E = -1261.748154 Ha. Imaginary frequency = -353.5 cm-1
C    -0.52498   4.06112   1.11361
N     0.05634   2.83399   0.61408
C    -0.53230   2.14065  -0.38039
O    -1.51562   2.60885  -0.98777
C     0.04570   0.83178  -0.80422
C    -0.12356   0.51902  -2.30147
C    -0.47302  -0.96595  -2.57272
C     0.82527  -1.71115  -2.17130
C     1.74593  -0.56524  -1.69173
C     1.36995   0.53219  -2.71556
C     1.19811   0.08950  -0.40047
C     2.13220   0.41983   0.70364
O     1.87905   1.10259   1.69178
O     3.33078  -0.14627   0.54202
C     4.29154   0.05358   1.58871
C     0.40274  -1.53454   0.79616
C     1.29711  -2.56306   1.38864
C     1.29854  -3.92670   0.77548
O     2.01451  -2.21628   2.31127
N    -0.76658  -1.25109   0.96411
C    -1.64267  -0.26432   0.80026
C    -1.77726   0.72659   1.92136
C    -2.81288  -0.55500  -0.06160
O    -3.02048  -1.61759  -0.62264
O    -3.61864   0.50425  -0.16273
C    -4.74272   0.37958  -1.04359
H    -0.66400   4.79235   0.30301
H     0.14949   4.49320   1.86436
H    -1.50970   3.89321   1.58425
H     0.76112   2.35223   1.17473
H    -0.78833   1.22917  -2.80139
H    -0.69237  -1.09251  -3.64351
H    -1.34810  -1.31037  -2.01716
H     1.29050  -2.21191  -3.03330
H     0.65602  -2.47864  -1.40748
H     2.80104  -0.84332  -1.61921
H     1.53712   0.22920  -3.76201
H     1.86590   1.49481  -2.52299
H     5.18215  -0.50968   1.28748
H     4.53216   1.12140   1.68992
H     3.90142  -0.32874   2.54143
H     0.28324  -4.23821   0.49041
H     1.90913  -3.89178  -0.14293
H     1.75190  -4.63934   1.47738
H    -0.79719   0.95203   2.35748
H    -2.42720   0.30726   2.70859
H    -2.24825   1.64669   1.55831
H    -5.39923  -0.43988  -0.71786
H    -4.40193   0.19023  -2.07184
H    -5.27325   1.33696  -0.99067
