20
Generated by autodE on: 2022-06-01. E = -614.917267 Ha
C     3.77641  -0.09758  -0.39713
N     2.41819  -0.16376   0.10312
C     1.36168  -0.24350  -0.73411
O     1.49620  -0.29798  -1.96715
C     0.02402  -0.26418  -0.12564
C    -0.43783   0.00595   1.10319
F     0.22807   0.32341   2.20299
C    -1.97313   0.01432   1.02921
C    -2.36498   1.25989   0.19722
C    -1.93924   0.98697  -1.03925
C    -1.28426  -0.41034  -0.94094
O    -2.14159  -1.02286   0.04962
H     4.01348  -0.97305  -1.02197
H     3.93994   0.80551  -1.00785
H     4.46705  -0.07586   0.45456
H     2.25783  -0.09816   1.10238
H    -2.51156  -0.17755   1.96341
H    -2.83691   2.15536   0.59896
H    -1.96830   1.60080  -1.93866
H    -1.21027  -1.00449  -1.85674
