23
Generated by autodE on: 2022-06-01. E = -589.065314 Ha
C     0.32807   1.95000   0.68842
C    -0.04948   0.61190   0.15961
N     0.88700  -0.23578  -0.20740
C     2.28178  -0.16625  -0.08419
C     3.04771  -0.97444  -0.94184
N     3.69047  -1.64841  -1.65266
C     2.92659   0.56134   0.92885
N     3.50034   1.13695   1.77264
C    -1.44698   0.17881   0.03111
C    -2.47141   1.12020  -0.19987
C    -3.79156   0.70369  -0.36199
C    -4.11964  -0.65377  -0.28354
C    -3.11579  -1.59629  -0.03944
C    -1.79316  -1.18709   0.12082
H    -0.52447   2.63653   0.67798
H     0.67632   1.87058   1.73164
H     1.15277   2.37840   0.09792
H     0.56117  -1.09175  -0.66405
H    -2.23475   2.18119  -0.28305
H    -4.56984   1.44549  -0.55347
H    -5.15649  -0.97547  -0.40382
H    -3.36542  -2.65624   0.04328
H    -1.03346  -1.93594   0.35448
