23
Generated by autodE on: 2022-07-27. E = -589.065326 Ha
C    -1.73705  -0.68088   0.94727
C    -0.51971  -0.06450   0.35498
N     0.41099  -0.82925  -0.17388
C     0.42893  -2.21116  -0.41014
C    -0.73552  -2.96148  -0.63883
N    -1.68379  -3.61408  -0.85653
C     1.68399  -2.82712  -0.55299
N     2.72768  -3.34523  -0.67513
C    -0.30408   1.38777   0.32670
C    -0.85428   2.21473   1.32786
C    -0.60966   3.58687   1.32512
C     0.17397   4.16354   0.32010
C     0.71150   3.35720  -0.68822
C     0.47287   1.98413  -0.69003
H    -2.42984  -1.01000   0.15524
H    -2.27549   0.03190   1.58002
H    -1.46946  -1.57002   1.53924
H     1.26964  -0.35487  -0.46547
H    -1.45222   1.78188   2.13013
H    -1.03200   4.21010   2.11626
H     0.35844   5.24010   0.31798
H     1.30771   3.80156  -1.48803
H     0.86587   1.37988  -1.51029
