46
Generated by autodE on: 2022-06-19. E = -960.741220 Ha
C     5.30914  -0.28614   1.11689
C     4.31301   0.60584   0.94266
C     4.53647   2.08666   1.09949
C     2.96917   0.13457   0.59104
C     1.89582   0.91677   0.38553
C     0.56356   0.37702  -0.02976
N    -0.56395   1.01567   0.66418
C    -0.89073   0.83690   1.96072
O    -1.99445   1.10062   2.43446
O     0.13718   0.33931   2.67728
C    -0.10211   0.14434   4.07363
N    -1.60539   1.39552  -0.25398
C    -1.35297   0.61068  -1.47117
C    -1.99468  -0.76442  -1.50844
C    -2.27880  -1.50827  -0.35286
C    -2.83917  -2.78664  -0.44625
C    -3.12656  -3.34263  -1.69547
C    -2.86002  -2.60455  -2.85380
C    -2.30334  -1.32794  -2.75715
C     0.20771   0.60504  -1.53266
C     0.81472  -0.49535  -2.39613
C     0.68534   1.97410  -2.03859
H     6.32195   0.03237   1.37918
H     5.13353  -1.35990   0.99957
H     3.88116   2.50480   1.88170
H     4.29532   2.62472   0.16760
H     5.57951   2.30678   1.36711
H     2.85137  -0.95119   0.49481
H     1.96468   2.00284   0.48569
H     0.53704  -0.70712   0.16806
H    -0.92220  -0.57068   4.23522
H    -0.34720   1.09680   4.56643
H     0.83158  -0.25892   4.48383
H    -2.49026   1.13513   0.18732
H    -1.73330   1.18005  -2.33076
H    -2.08455  -1.09422   0.63708
H    -3.05368  -3.34800   0.46635
H    -3.56386  -4.34132  -1.76681
H    -3.09236  -3.02300  -3.83622
H    -2.10253  -0.75316  -3.66487
H     1.91338  -0.44215  -2.34215
H     0.52233  -0.37258  -3.45002
H     0.50652  -1.49738  -2.06672
H     1.78347   2.03330  -2.03940
H     0.29514   2.79727  -1.42387
H     0.33875   2.12574  -3.07218
