23
Generated by autodE on: 2022-06-19. E = -351.521381 Ha
C     2.98276   0.62975   2.23778
C     2.20584   0.72879   1.13667
C     2.62241   1.56961  -0.04309
C     0.93347   0.01223   1.07395
C     0.06873   0.02604   0.02852
C    -1.18199  -0.70490   0.01783
C    -2.09773  -0.74367  -0.98297
C    -1.96298  -0.00953  -2.28683
C    -3.35593  -1.55301  -0.84231
H     2.67762   0.01841   3.09269
H     3.93919   1.15487   2.31109
H     3.59443   2.05114   0.13404
H     2.69963   0.95967  -0.95851
H     1.87887   2.35667  -0.25204
H     0.67481  -0.58297   1.95804
H     0.31989   0.61714  -0.85634
H    -1.39834  -1.28551   0.92284
H    -1.03517   0.57021  -2.37448
H    -2.81388   0.68079  -2.42548
H    -2.00576  -0.71989  -3.13131
H    -3.42918  -2.30616  -1.64742
H    -4.24845  -0.90978  -0.94505
H    -3.41073  -2.07194   0.12593
