23
Generated by autodE on: 2022-06-19. E = -609.193671 Ha
C     5.04135   0.81898   0.32563
O     4.03262  -0.16780   0.11286
C     2.75194   0.26927   0.13972
O     2.46215   1.45674   0.33488
N     1.89459  -0.75852  -0.07016
N     0.63168  -0.30764  -0.03693
C    -0.42997  -1.04094  -0.19613
C    -1.78810  -0.53565  -0.15415
C    -2.10942   0.82166   0.06630
C    -3.43937   1.23126   0.08998
C    -4.47095   0.30222  -0.10284
C    -4.16403  -1.04444  -0.32006
C    -2.83400  -1.46190  -0.34586
H     6.00097   0.28933   0.27580
H     5.00568   1.59735  -0.45208
H     4.92989   1.29426   1.31229
H     0.53628   0.70907   0.13400
H    -0.25763  -2.10545  -0.37141
H    -1.32171   1.56319   0.21821
H    -3.67652   2.28372   0.25982
H    -5.51236   0.63096  -0.08317
H    -4.96414  -1.77253  -0.47000
H    -2.58988  -2.51310  -0.51516
