17
Generated by autodE on: 2022-10-20. E = -364.110110 Ha
C    -1.83278  -0.75712  -0.31781
C    -1.30738   0.60711  -0.08999
C    -2.18500   1.80270  -0.05267
O    -0.05562   0.83436   0.09127
C     1.06964   0.06731   0.13870
C     2.31702   0.86178   0.37749
C     1.06846  -1.31447  -0.01987
N     1.18396  -2.48269  -0.13897
H    -2.92131  -0.72513  -0.45040
H    -1.59254  -1.41718   0.53368
H    -1.37378  -1.20921  -1.21411
H    -2.73698   1.90110  -1.00446
H    -1.60172   2.71506   0.12783
H    -2.94741   1.69151   0.73906
H     2.49984   1.60397  -0.42106
H     2.28768   1.40859   1.33767
H     3.18370   0.18620   0.40683
