20
Generated by autodE on: 2022-10-20. E = -461.427441 Ha
C    -2.84467   0.51107   0.57864
O    -1.91114  -0.54570   0.38462
C    -0.67105  -0.22339  -0.03427
C    -0.00457   0.90750  -0.33666
C    -0.28262   2.37320  -0.31033
C     1.43243   0.37763  -0.61262
C     2.03031  -0.10011   0.73048
C     1.34578  -1.20822   1.03289
C     0.35255  -1.37706  -0.13980
O     1.15096  -0.89604  -1.23303
H    -3.78101   0.04608   0.91365
H    -2.49025   1.21527   1.34852
H    -3.02484   1.05618  -0.36211
H    -0.00987   2.84347  -1.27145
H    -1.33220   2.61356  -0.10292
H     0.33470   2.86801   0.46242
H     2.06242   1.01479  -1.24507
H     2.79690   0.42277   1.30212
H     1.39141  -1.84205   1.91792
H    -0.06468  -2.37448  -0.31969
