64
Generated by autodE on: 2022-07-01. E = -1683.356340 Ha
C    -4.07381  -0.13296   2.11264
N    -2.94656   0.17130   1.25363
C    -2.01608   1.06706   1.60412
O    -2.11144   1.80531   2.58820
C    -0.82201   1.18840   0.61018
C    -1.27593   2.19847  -0.43345
C    -1.39504   3.55175  -0.08108
C    -1.85293   4.48330  -1.01385
C    -2.20712   4.07086  -2.30261
C    -2.10450   2.72118  -2.65040
C    -1.64334   1.78673  -1.72090
O    -0.56422  -0.05775  -0.02838
C     0.35115  -0.84687   0.76782
C     1.09148  -1.79455  -0.16155
C     0.74137  -1.93278  -1.50971
C     1.42053  -2.84686  -2.32255
C     2.45846  -3.61993  -1.79915
C     2.81075  -3.48426  -0.45091
C     2.12550  -2.58369   0.36390
C    -0.47719  -1.65828   1.78226
C    -1.25544  -2.72111   1.29323
C    -2.11444  -3.42837   2.13350
C    -2.20641  -3.09071   3.48860
C    -1.43650  -2.03872   3.98561
C    -0.57932  -1.32575   3.13850
C     1.26493   0.20517   1.43145
C     2.60614   0.62673   0.74553
O     2.73541   1.95712   1.28209
C     1.53013   2.48147   0.71242
C     1.73037   2.09977  -0.76258
C     1.39670   2.90083  -1.87984
N     1.17385   3.61093  -2.77453
C     2.39862   0.92327  -0.72953
C     2.99059   0.15604  -1.84213
O     3.92807  -0.60534  -1.69996
O     2.42481   0.44200  -3.01449
C     2.99573  -0.17384  -4.17849
C     0.47268   1.53584   1.37188
H    -4.60942  -0.99727   1.70248
H    -4.76852   0.71954   2.17312
H    -3.73768  -0.37429   3.13308
H    -2.70319  -0.47347   0.50814
H    -1.13314   3.87479   0.92787
H    -1.93227   5.53590  -0.73278
H    -2.56306   4.80075  -3.03336
H    -2.37935   2.39228  -3.65528
H    -1.55803   0.73615  -1.99636
H    -0.05631  -1.31951  -1.92608
H     1.13730  -2.94767  -3.37258
H     2.99305  -4.32708  -2.43751
H     3.62208  -4.08471  -0.03308
H     2.39360  -2.49060   1.41893
H    -1.19510  -2.99102   0.23739
H    -2.71284  -4.24877   1.73036
H    -2.87717  -3.64358   4.15023
H    -1.50248  -1.75997   5.03979
H    -0.01192  -0.49539   3.55766
H     1.52931  -0.07825   2.45242
H     3.47247   0.00508   0.98550
H     1.41084   3.54825   0.91808
H     2.40219   0.18332  -5.02745
H     4.04693   0.12730  -4.29227
H     2.93228  -1.26777  -4.10025
H     0.23483   1.93434   2.36271
