44
Generated by autodE on: 2022-07-01. E = -1055.441689 Ha
C     3.89366   2.43303  -1.83672
N     2.71920   1.73824  -1.35849
C     2.82218   0.56405  -0.67672
O     3.93122   0.00792  -0.52334
C     1.58900  -0.00643  -0.14650
O     0.52605   0.79722  -0.32278
C    -0.77993   0.68900  -0.22538
C    -1.47857   1.95756  -0.34183
C    -2.86220   2.00793  -0.63140
C    -3.51544   3.23163  -0.76223
C    -2.81115   4.43258  -0.61741
C    -1.43936   4.39739  -0.33680
C    -0.77909   3.18016  -0.19356
C    -1.43644  -0.60684  -0.05959
C    -2.46765  -0.77317   0.88628
C    -3.04853  -2.02501   1.08558
C    -2.61951  -3.12690   0.33775
C    -1.61228  -2.96793  -0.62104
C    -1.02064  -1.72238  -0.81576
C     1.52756  -1.25658   0.59526
C     2.23670  -2.39661   0.15636
C     2.13575  -3.60688   0.84102
C     1.32680  -3.71351   1.97839
C     0.63670  -2.58646   2.43950
C     0.73785  -1.37383   1.76185
H     4.56844   2.72128  -1.01260
H     3.57796   3.34324  -2.36200
H     4.47404   1.80968  -2.53619
H     1.80969   2.17367  -1.45483
H    -3.42009   1.08269  -0.77737
H    -4.58363   3.24815  -0.99085
H    -3.32729   5.38950  -0.72193
H    -0.88199   5.32943  -0.21678
H     0.28457   3.16271   0.04680
H    -2.78616   0.07749   1.49097
H    -3.83230  -2.14413   1.83700
H    -3.06985  -4.10862   0.50105
H    -1.27917  -3.82294  -1.21326
H    -0.23037  -1.60884  -1.55834
H     2.84861  -2.32840  -0.74298
H     2.68042  -4.48028   0.47400
H     1.23765  -4.66702   2.50393
H     0.01243  -2.65296   3.33364
H     0.20073  -0.50377   2.14017
