20
Generated by autodE on: 2022-07-01. E = -627.786336 Ha
C     3.45939   1.04465  -0.43592
O     2.20388   0.49490  -0.00763
C     1.24483   0.39520  -0.92821
O     1.37218   0.72931  -2.09202
C    -0.00536  -0.16228  -0.39205
C    -0.39681  -0.41482   0.87465
C     0.29629  -0.25253   2.09234
N     0.82521  -0.14027   3.12413
C    -1.88683  -0.86664   0.73843
C    -2.68199   0.38605   0.31635
C    -2.28639   0.63785  -0.93419
C    -1.25207  -0.46289  -1.25291
O    -1.79456  -1.56560  -0.50670
H     3.89670   0.42411  -1.23130
H     4.10541   1.04171   0.44910
H     3.32062   2.07089  -0.80530
H    -2.27920  -1.48481   1.55122
H    -3.36173   0.93841   0.96345
H    -2.54923   1.45663  -1.60233
H    -1.06562  -0.70824  -2.30241
