64
Generated by autodE on: 2022-07-01. E = -1683.224028 Ha. Imaginary frequency = -239.1 cm-1
C    -4.07262  -0.12835   2.35884
N    -3.10122   0.14138   1.31672
C    -2.19580   1.13427   1.41106
O    -2.24429   1.99317   2.30461
C    -1.17272   1.18086   0.31406
C    -1.33830   2.22266  -0.70335
C    -1.82048   3.50508  -0.35622
C    -2.03931   4.47079  -1.33695
C    -1.79337   4.18744  -2.68505
C    -1.31075   2.92311  -3.03893
C    -1.07748   1.95519  -2.06612
O    -0.60907   0.06331  -0.14884
C    -0.11042  -1.03638   0.39642
C     0.70610  -1.81552  -0.54651
C     0.51522  -1.73047  -1.93946
C     1.28938  -2.50032  -2.80797
C     2.27823  -3.35312  -2.30837
C     2.47984  -3.43993  -0.92553
C     1.69779  -2.68753  -0.05212
C    -0.71744  -1.73548   1.56148
C    -1.16649  -3.05659   1.35090
C    -1.78448  -3.78138   2.37048
C    -1.95741  -3.20958   3.63384
C    -1.51008  -1.90511   3.86192
C    -0.89981  -1.17667   2.84172
C     1.56077   0.37281   1.69332
C     2.85156   0.71934   0.92910
O     3.15430   2.00916   1.52285
C     1.87610   2.59542   1.19805
C     1.91065   2.38131  -0.33487
C     1.60461   3.38072  -1.28364
N     1.44720   4.27702  -2.00986
C     2.49639   1.17380  -0.49554
C     2.90982   0.49228  -1.73080
O     3.73967  -0.39748  -1.76031
O     2.31362   1.00122  -2.81149
C     2.75128   0.51948  -4.09022
C     0.91345   1.56511   1.82686
H    -3.65191   0.12975   3.33988
H    -4.99814   0.45396   2.21610
H    -4.32304  -1.19678   2.34718
H    -3.00062  -0.53855   0.57027
H    -2.02181   3.73367   0.69000
H    -2.40702   5.45718  -1.04347
H    -1.96928   4.94654  -3.45045
H    -1.10480   2.68903  -4.08630
H    -0.69068   0.98059  -2.35759
H    -0.26638  -1.08297  -2.33648
H     1.11205  -2.43896  -3.88397
H     2.88692  -3.94952  -2.99158
H     3.25398  -4.09879  -0.52537
H     1.85967  -2.75931   1.02496
H    -1.04491  -3.51397   0.36828
H    -2.13340  -4.79767   2.17342
H    -2.43717  -3.77590   4.43522
H    -1.63825  -1.44397   4.84355
H    -0.57722  -0.16193   3.05880
H     1.45803  -0.54145   2.26493
H     3.68385   0.01441   1.00434
H     1.78661   3.63191   1.53498
H     2.15178   1.05775  -4.83297
H     3.82003   0.73600  -4.23153
H     2.58036  -0.56175  -4.17239
H     0.09550   1.84927   2.48291
