41
Generated by autodE on: 2022-06-06. E = -6320.454362 Ha
C     5.03234   0.19212   0.73354
N     3.62161   0.51668   0.62530
C     2.69381  -0.42513   0.84320
O     2.91183  -1.58223   1.16503
N     1.33660   0.03232   0.73755
O     1.26332   1.35685   0.20121
C     0.01796   1.53578  -0.45461
C     0.28951   1.66734  -1.90500
N     0.56382   1.89921  -3.00695
C    -0.62516   2.89176  -0.03268
O    -1.75637   3.15247  -0.45020
N     0.15394   3.70248   0.67024
C    -0.32262   4.97896   1.17218
C    -0.83640   0.27640  -0.07404
C    -1.90735  -0.18506  -1.09044
O    -2.22904  -1.37169  -1.13496
N    -2.49168   0.77980  -1.80773
C    -3.59617   0.47455  -2.69868
C    -1.53418   0.55511   1.30456
O    -1.01327   1.32441   2.10664
N    -2.69408  -0.07509   1.51497
C    -3.37774   0.02308   2.79222
C     0.31591  -0.75502   0.14831
Br    0.93277  -1.50366  -1.64491
Br   -0.16896  -2.25664   1.28464
H     5.24003  -0.30935   1.68971
H     5.61032   1.12280   0.68740
H     5.36137  -0.47177  -0.08239
H     3.33995   1.42129   0.26305
H     1.00796   3.30541   1.05439
H    -0.94183   5.46970   0.41024
H     0.53914   5.61635   1.40502
H    -0.92675   4.84411   2.08418
H    -2.32876   1.75624  -1.53422
H    -4.49730   0.17807  -2.13615
H    -3.32596  -0.35032  -3.37283
H    -3.82458   1.36601  -3.29539
H    -2.98917  -0.79427   0.85905
H    -3.45548   1.07518   3.09870
H    -2.83705  -0.52874   3.57884
H    -4.38458  -0.39818   2.68695
