21
Generated by autodE on: 2022-06-06. E = -678.336365 Ha
C     4.10611  -0.60049  -0.89371
N     3.37825  -0.15918   0.28357
C     2.06732   0.15553   0.32243
O     1.50836   0.64362   1.31752
N     1.43652  -0.01448  -0.91645
O     0.10804   0.12956  -0.86466
C    -0.72532  -0.16277   0.07840
C    -0.42222  -0.98518   1.19462
N    -0.24997  -1.74596   2.05863
C    -2.15839   0.22464  -0.13347
O    -2.99261  -0.12368   0.70520
N    -2.41934   0.93595  -1.23535
C    -3.77181   1.35322  -1.55488
H     4.19295   0.19527  -1.65178
H     3.61900  -1.46896  -1.35679
H     5.11577  -0.89594  -0.58192
H     3.90766   0.13215   1.10043
H    -1.65650   1.18331  -1.85926
H    -3.75062   1.93515  -2.48316
H    -4.43189   0.48223  -1.69033
H    -4.18967   1.97599  -0.74878
