21
Generated by autodE on: 2022-07-27. E = -678.352171 Ha
C     3.60287  -2.80989   1.18725
N     2.61542  -2.29900   0.26067
C     1.74733  -1.33413   0.62110
O     1.71013  -0.80304   1.73188
N     0.88934  -1.02183  -0.46100
O     0.07149  -0.08164  -0.03694
C    -0.84957   0.44613  -0.76635
C    -1.04340   0.03857  -2.10983
N    -1.20917  -0.28994  -3.21400
C    -1.70744   1.50122  -0.15634
O    -2.59478   2.01565  -0.84251
N    -1.43711   1.81081   1.11886
C    -2.19660   2.82702   1.82261
H     3.12502  -3.27262   2.06611
H     4.21115  -3.56551   0.67658
H     4.26321  -2.00478   1.54730
H     2.55877  -2.67732  -0.67995
H    -0.67555   1.33339   1.59413
H    -3.26879   2.57766   1.83555
H    -2.08076   3.81178   1.34300
H    -1.83099   2.88724   2.85400
