41
Generated by autodE on: 2022-06-06. E = -6320.370958 Ha. Imaginary frequency = -267.5 cm-1
C     4.71896  -0.86459   1.15690
N     3.67195  -0.44767   0.24865
C     2.84548   0.57895   0.52816
O     2.96454   1.36586   1.46155
N     1.80131   0.62365  -0.43842
O     1.05076   1.68709  -0.16613
C    -0.02775   1.82202  -0.89707
C    -0.00740   1.38010  -2.25604
N     0.02033   1.06561  -3.37439
C    -0.93313   2.95671  -0.51403
O    -2.03898   3.04448  -1.06540
N    -0.46008   3.80363   0.39995
C    -1.31092   4.80177   1.02158
C    -1.00790  -0.21360  -0.06158
C    -2.11682  -0.60765  -1.05271
O    -2.41821  -1.79808  -1.16385
N    -2.78868   0.37619  -1.65660
C    -3.92314   0.08066  -2.51075
C    -1.54548   0.36872   1.24771
O    -0.97718   1.27908   1.84679
N    -2.67811  -0.20717   1.68284
C    -3.30054   0.20101   2.92902
C     0.16399  -0.97002   0.01314
Br    0.69954  -2.10455  -1.41119
Br    0.81132  -1.56216   1.72033
H     4.33312  -1.53176   1.94701
H     5.49620  -1.39899   0.59575
H     5.16440   0.01691   1.63624
H     3.42971  -1.04613  -0.53549
H     0.40238   3.54740   0.87414
H    -1.96112   5.26213   0.26715
H    -0.68210   5.57568   1.47831
H    -1.94214   4.34383   1.80165
H    -2.55784   1.36026  -1.47771
H    -4.29540   1.02114  -2.93517
H    -4.73545  -0.40400  -1.94499
H    -3.63222  -0.59217  -3.33215
H    -3.04783  -1.01454   1.18895
H    -3.49974   1.28290   2.92472
H    -2.65429  -0.02590   3.79220
H    -4.24898  -0.33716   3.04180
