44
Generated by autodE on: 2022-05-30. E = -1133.123679 Ha
C     2.04939   1.28163  -3.10489
N     0.94080   0.92785  -2.23826
C     1.07566   0.00320  -1.28625
O     2.13928  -0.60192  -1.08748
C    -0.11467  -0.38751  -0.40369
C    -0.57154  -1.83089  -0.80308
C    -0.95814  -1.84530  -2.29527
C    -2.27796  -1.02370  -2.32505
C    -2.51147  -0.67668  -0.83814
C    -1.95448  -1.92576  -0.13573
C    -1.49049   0.39630  -0.41961
F    -1.53106   1.44263  -1.35367
C    -1.66038   1.02834   0.99839
C    -3.02098   0.80369   1.64585
C    -1.33331   2.52137   0.98453
O    -0.69888   0.32949   1.83301
C     0.34149  -0.29146   1.11087
C     0.54722  -1.62033   1.72642
N     0.66899  -2.65288   2.23789
C     1.63593   0.55405   1.28175
O     1.70664   1.71022   0.93529
O     2.60391  -0.11446   1.88476
C     3.86014   0.56856   2.04727
H     2.41690   0.40192  -3.65531
H     2.88853   1.69569  -2.52370
H     1.70752   2.03543  -3.82419
H     0.05127   1.40609  -2.32854
H     0.17227  -2.58814  -0.53460
H    -0.17740  -1.43815  -2.95065
H    -1.12980  -2.88628  -2.60355
H    -2.21153  -0.12583  -2.95198
H    -3.11876  -1.62735  -2.69398
H    -3.54337  -0.39275  -0.60660
H    -1.94063  -1.86508   0.95953
H    -2.49206  -2.84025  -0.42432
H    -3.02281   1.26128   2.64602
H    -3.25565  -0.26244   1.75503
H    -3.80872   1.28357   1.04807
H    -1.26987   2.87168   2.02502
H    -0.37894   2.72418   0.48809
H    -2.12999   3.08019   0.47486
H     4.27179   0.82127   1.05985
H     3.72220   1.48280   2.64068
H     4.51774  -0.13467   2.56964
