24
Generated by autodE on: 2022-05-30. E = -580.266539 Ha
C     3.61726   0.87593  -0.75197
N     2.21131   0.93065  -0.41018
C     1.54342  -0.16706   0.01393
O     2.11498  -1.26315   0.14241
C     0.11271   0.02329   0.30630
C    -0.81342  -0.94436   0.47298
F    -0.62923  -2.26142   0.44034
C    -2.19291  -0.34751   0.51470
C    -2.47454   0.15079  -0.94484
C    -1.45163   1.31029  -1.12399
C    -0.70019   1.32023   0.24418
C    -1.85691   0.98773   1.21140
H     3.80486   0.17385  -1.58084
H     3.94898   1.87615  -1.05633
H     4.22512   0.54814   0.10659
H     1.71211   1.80518  -0.52363
H    -2.96991  -0.98879   0.94779
H    -3.51105   0.51159  -1.01351
H    -2.34788  -0.65692  -1.67933
H    -0.75879   1.14748  -1.96144
H    -1.96122   2.27148  -1.28707
H    -0.13564   2.23789   0.45319
H    -1.52527   0.85940   2.25177
H    -2.68172   1.71448   1.16549
