20
Generated by autodE on: 2022-07-26. E = -552.779924 Ha
C     3.27001   0.93111  -0.05637
O     2.18467   0.07898  -0.42865
C     0.98784   0.33575   0.16115
O     0.82024   1.27957   0.93458
C    -0.00453  -0.61668  -0.21852
C     0.26613  -1.85047  -0.81931
N     0.48857  -2.87328  -1.34668
O    -1.27568  -0.54444   0.38321
C    -2.02629   0.49602   0.36820
C    -3.25408   0.39479   1.17732
C    -1.70697   1.68707  -0.42566
H     3.05700   1.97851  -0.31787
H     3.47382   0.86389   1.02316
H     4.14063   0.57627  -0.62144
H    -3.23173   1.18886   1.94485
H    -3.34412  -0.58818   1.65450
H    -4.12698   0.60766   0.53827
H    -1.19671   1.38535  -1.35679
H    -2.61666   2.26731  -0.62250
H    -0.98571   2.31030   0.13211
