44
Generated by autodE on: 2022-05-30. E = -1133.038924 Ha. Imaginary frequency = -335.4 cm-1
C     3.22360  -0.05947  -2.18068
N     1.90647  -0.52489  -1.80075
C     0.93568   0.29486  -1.34088
O     1.07305   1.52905  -1.29340
C    -0.30732  -0.37992  -0.89729
C    -0.57610  -1.87634  -0.98643
C    -1.06893  -2.10591  -2.45674
C    -2.46045  -1.41296  -2.47525
C    -2.60969  -0.89402  -1.01034
C    -1.91123  -2.01668  -0.22664
C    -1.57224   0.20235  -0.87403
F    -1.84418   1.39322  -1.45039
C    -1.68468   0.97553   1.32447
C    -3.10191   0.75146   1.72842
C    -1.26393   2.36260   0.97759
O    -0.86056   0.10140   1.88121
C     0.44170  -0.15042   1.57519
C     0.80424  -1.50170   1.77649
N     1.10144  -2.62410   1.90820
C     1.48797   0.86737   1.65009
O     1.36237   2.00961   2.05760
O     2.66253   0.36270   1.22695
C     3.77715   1.26145   1.21519
H     3.18175   1.01811  -2.37794
H     3.96289  -0.24222  -1.38348
H     3.55986  -0.57660  -3.09105
H     1.75280  -1.52622  -1.75894
H     0.24037  -2.53388  -0.66843
H    -1.15206  -3.18677  -2.64284
H    -0.37018  -1.68955  -3.19454
H    -3.26640  -2.12655  -2.69910
H    -2.52329  -0.59054  -3.20161
H    -3.62782  -0.61357  -0.71828
H    -1.83384  -1.83173   0.85008
H    -2.37765  -2.99785  -0.39326
H    -3.30527  -0.30911   1.92174
H    -3.30837   1.32690   2.64933
H    -3.77814   1.13216   0.95105
H    -0.37824   2.39251   0.33695
H    -2.09728   2.87772   0.48710
H    -1.03031   2.88520   1.91998
H     3.59760   2.07637   0.49899
H     3.95021   1.68242   2.21610
H     4.64272   0.66727   0.90098
