40
Generated by autodE on: 2022-06-17. E = -769.900248 Ha
C    -3.96765   1.31352   1.04459
C    -3.13651   1.57982  -0.17682
O    -3.26458   2.59476  -0.84402
C    -2.05739   0.57333  -0.55545
C    -0.73481   0.85622   0.21379
C    -0.30493  -0.49958   0.83256
C    -0.77148  -0.61366   2.29633
C     1.17063  -0.80427   0.78056
C     2.17085   0.05086   0.49495
C     3.57519  -0.32752   0.51542
C     4.63723   0.46499   0.23450
C     4.53785   1.91252  -0.15783
C     6.03892  -0.07434   0.30064
C    -1.13199  -1.50615  -0.02529
C    -0.44023  -1.81402  -1.30337
N     0.03300  -2.03062  -2.34169
N    -2.39100  -0.81291  -0.24022
C    -3.32999  -1.43956  -1.15221
H    -4.61163   2.17754   1.25396
H    -3.31913   1.10336   1.90890
H    -4.58621   0.41640   0.88553
H    -1.88316   0.71121  -1.64062
H     0.01074   1.23240  -0.49602
H    -0.86019   1.61899   0.99482
H    -1.86162  -0.50487   2.37439
H    -0.48823  -1.58944   2.72001
H    -0.29747   0.17523   2.89894
H     1.42694  -1.83539   1.05658
H     1.93005   1.08556   0.23602
H     3.77853  -1.37020   0.78765
H     3.50738   2.28700  -0.20786
H     5.00990   2.07425  -1.14296
H     5.09792   2.54170   0.55638
H     6.54666   0.03339  -0.67465
H     6.64506   0.49888   1.02503
H     6.06295  -1.13525   0.59001
H    -1.28652  -2.46403   0.49547
H    -2.95975  -1.47272  -2.19759
H    -3.54013  -2.46915  -0.82625
H    -4.27803  -0.88119  -1.14924
