23
Generated by autodE on: 2022-06-17. E = -351.521380 Ha
C    -3.37643  -1.47184  -0.85613
C    -2.44899  -0.50972  -0.65559
C    -2.78378   0.94982  -0.82899
C    -1.09046  -0.87648  -0.26041
C    -0.07387  -0.00932  -0.02477
C     1.25684  -0.42673   0.36731
C     2.32089   0.37473   0.62663
C     2.29205   1.87471   0.54762
C     3.64559  -0.21079   1.02657
H    -4.40021  -1.22564  -1.15130
H    -3.13013  -2.53053  -0.72879
H    -2.61266   1.51023   0.10517
H    -3.83345   1.08524  -1.12546
H    -2.14396   1.41596  -1.59666
H    -0.89748  -1.95035  -0.14921
H    -0.25848   1.06296  -0.13284
H     1.40495  -1.50937   0.46149
H     2.56676   2.31363   1.52313
H     3.04799   2.23429  -0.17265
H     1.31690   2.28243   0.25203
H     3.95858   0.16858   2.01604
H     4.43795   0.09396   0.31943
H     3.61954  -1.30960   1.06773
