17
Generated by autodE on: 2022-06-17. E = -418.325986 Ha
C     3.28963  -0.84200  -0.13975
C     1.94725  -0.16725   0.03131
O     1.89747   1.01052   0.43994
C     0.79311  -0.94954  -0.29774
N    -0.48480  -0.51327  -0.20519
C    -1.54514  -1.47543  -0.58347
C    -0.86642   0.70428   0.20235
C    -2.22236   1.06132   0.26876
N    -3.33605   1.41197   0.34267
H     3.88646  -0.27283  -0.87122
H     3.21094  -1.88514  -0.47365
H     3.83339  -0.80659   0.81810
H     0.91046  -1.97057  -0.64907
H    -2.18490  -1.66455   0.28806
H    -2.14681  -1.04652  -1.39463
H    -1.08229  -2.40844  -0.91569
H    -0.08615   1.40909   0.48322
