40
Generated by autodE on: 2022-06-17. E = -769.831330 Ha. Imaginary frequency = -433.1 cm-1
C    -1.69152   3.29250   0.71858
C    -2.52406   2.07092   0.42162
O    -3.72467   2.03603   0.67846
C    -1.76813   0.93825  -0.15123
C    -0.90724   0.03265   1.50769
C    -0.44044  -1.24983   1.15221
C    -1.30542  -2.45408   1.46128
C     0.93218  -1.50596   0.79076
C     1.90140  -0.58671   0.51133
C     3.25744  -0.94580   0.16528
C     4.28267  -0.10450  -0.12846
C     4.16207   1.39296  -0.15928
C     5.64688  -0.63683  -0.46558
C    -1.55629  -1.05775  -1.34664
C    -0.30503  -0.72183  -1.87252
N     0.75619  -0.43683  -2.28216
N    -2.37060  -0.11018  -0.79592
C    -3.74355  -0.51462  -0.47676
H    -1.39575   3.76620  -0.23287
H    -2.27293   4.00624   1.31642
H    -0.76291   3.02262   1.24503
H    -0.80535   1.21838  -0.58091
H    -0.17521   0.81920   1.70415
H    -1.79978   0.07758   2.13836
H    -1.10542  -2.81458   2.48840
H    -1.10579  -3.29400   0.77989
H    -2.37575  -2.21344   1.40729
H     1.20512  -2.56457   0.69916
H     1.65244   0.47664   0.56940
H     3.46785  -2.02241   0.14084
H     3.15600   1.75786   0.08542
H     4.87594   1.85420   0.54651
H     4.43029   1.77837  -1.15943
H     6.40870  -0.23994   0.23009
H     5.68459  -1.73577  -0.42948
H     5.95924  -0.31155  -1.47487
H    -2.00515  -2.00765  -1.63399
H    -3.93578  -1.48783  -0.94125
H    -3.87935  -0.58927   0.61050
H    -4.45634   0.22180  -0.86479
