34
Generated by autodE on: 2022-06-17. E = -670.443263 Ha
C     3.54265   0.46455   1.52012
N     2.27728   0.47485   0.82045
C     1.95173  -0.42122  -0.12199
O     2.69598  -1.35155  -0.46241
C     0.55172  -0.24335  -0.75035
C     0.64739  -0.53744  -2.24806
N     0.04647   1.12018  -0.48078
C    -1.28042   1.08058   0.13761
C    -1.54170   2.31486   1.00227
C    -2.33750   1.00141  -0.90569
N    -3.13385   0.95859  -1.75047
C    -1.22693  -0.24865   0.92862
C    -2.56197  -0.76828   1.43746
C    -0.48983  -1.18009  -0.04566
C     0.04882  -2.45287   0.59320
H     3.86196  -0.57154   1.69985
H     4.33852   0.97071   0.94668
H     3.43323   0.97595   2.48577
H     1.61375   1.23938   0.92972
H     1.36281   0.14242  -2.73771
H    -0.33923  -0.40625  -2.71654
H     0.98561  -1.56846  -2.42031
H     0.08218   1.72192  -1.30112
H    -1.48354   3.23210   0.39746
H    -0.77887   2.36129   1.79302
H    -2.53832   2.26718   1.46521
H    -0.56442  -0.04441   1.78619
H    -3.06191  -0.02504   2.07757
H    -3.23995  -1.01763   0.60544
H    -2.41640  -1.67877   2.03745
H    -1.21027  -1.47290  -0.82837
H     0.71259  -2.22997   1.44326
H    -0.78328  -3.06699   0.96959
H     0.61490  -3.05842  -0.12864
