22
Generated by autodE on: 2022-06-17. E = -513.073753 Ha
C    -4.04357   0.01044  -0.57960
N    -2.71446  -0.53891  -0.40859
C    -1.63580   0.26075  -0.27207
O    -1.74269   1.50847  -0.30999
C    -0.31936  -0.36530  -0.07988
C    -0.02171  -1.82386  -0.05411
N     0.63537   0.55130   0.08039
C     1.96098   0.53264   0.30492
C     2.70310   1.83824   0.40243
C     2.69327  -0.66082   0.45584
N     3.40605  -1.57911   0.60592
H    -4.75172  -0.81428  -0.72589
H    -4.36009   0.59504   0.30032
H    -4.08874   0.67471  -1.45678
H    -2.61195  -1.54198  -0.31691
H     0.33119  -2.15226   0.93876
H    -0.90240  -2.42506  -0.31038
H     0.76812  -2.07801  -0.78016
H     0.21955   1.49490   0.01083
H     1.99635   2.68022   0.35563
H     3.26174   1.91390   1.34981
H     3.42956   1.95742  -0.41954
