33
Generated by autodE on: 2022-10-25. E = -765.349374 Ha
C    -2.89373   3.21645  -0.08915
N    -2.20937   1.94069  -0.12394
C    -0.86520   1.85876  -0.05651
O    -0.14818   2.87506   0.04260
C    -0.25629   0.50892  -0.07737
N     1.06169   0.55443   0.10071
C     2.08583  -0.31602   0.07067
C     1.92405  -1.74351  -0.33172
C     3.35102   0.31418   0.39709
C     4.60532  -0.52425   0.38556
O     3.40713   1.52911   0.67798
C    -1.03996  -0.73765  -0.14606
C    -0.97809  -1.67406   0.90418
C    -1.74006  -2.84226   0.85838
C    -2.58231  -3.09187  -0.22993
C    -2.66128  -2.16297  -1.27277
C    -1.89788  -0.99487  -1.23278
H    -3.96361   3.04997  -0.26425
H    -2.50750   3.89234  -0.86774
H    -2.76925   3.71933   0.88444
H    -2.75643   1.08770  -0.15933
H     1.39461   1.52177   0.27756
H     2.88763  -2.16219  -0.64739
H     1.53577  -2.37947   0.48281
H     1.22163  -1.83952  -1.17333
H     5.44963   0.08427   0.73455
H     4.82101  -0.88866  -0.63229
H     4.49873  -1.41058   1.03063
H    -0.33613  -1.47384   1.76409
H    -1.68052  -3.55899   1.68079
H    -3.17848  -4.00665  -0.26366
H    -3.31425  -2.35296  -2.12778
H    -1.94924  -0.28195  -2.05824
