69
Generated by autodE on: 2022-10-25. E = -1498.679186 Ha. Imaginary frequency = -241.9 cm-1
C    -1.23839   4.16344  -2.47036
N    -0.83898   3.06872  -3.32715
C     0.07802   3.23959  -4.28530
O     0.63753   4.32038  -4.51075
C     0.31172   2.07946  -5.23544
C    -0.71989   1.88879  -6.28679
C    -0.55060   0.92817  -7.30520
C    -1.51751   0.74252  -8.29346
C    -2.69152   1.50105  -8.28474
C    -2.87775   2.45500  -7.27901
C    -1.90642   2.65002  -6.29803
N     1.57869   1.80482  -5.62135
C     2.72973   1.59041  -4.93267
C     3.83991   1.03489  -5.78833
C     3.05735   2.26327  -3.66936
C     4.53121   2.42161  -3.36117
O     2.22043   2.73841  -2.89428
C     1.46976  -0.20098  -3.61357
C     0.29760   0.15269  -3.84643
C    -1.07590  -0.44181  -3.79669
O    -2.01920   0.60645  -3.94401
C    -3.39290   0.27030  -4.05090
O    -1.31195  -1.10766  -2.56704
C    -1.26056  -0.29814  -1.40256
C    -1.21858  -1.51166  -4.89375
C    -0.17053  -2.63773  -4.94997
C     1.24718  -2.28632  -5.47104
C     2.43210  -2.28233  -4.48938
C     2.33320  -1.35421  -3.24350
C     1.70124  -2.11600  -2.04767
C     3.72789  -0.88825  -2.76928
C     3.79394  -0.14338  -1.45941
O     4.74348  -1.14372  -3.39431
H    -0.37159   4.57420  -1.92859
H    -1.69760   4.98616  -3.04475
H    -1.96846   3.79491  -1.73849
H    -1.33464   2.17331  -3.29988
H     0.32858   0.28124  -7.32040
H    -1.35727  -0.01491  -9.06411
H    -3.45450   1.34876  -9.05131
H    -3.78776   3.05918  -7.25858
H    -2.08061   3.40311  -5.53017
H     1.61951   1.36859  -6.54103
H     4.47020   1.83397  -6.21621
H     4.49498   0.36882  -5.21644
H     3.42038   0.45317  -6.62312
H     4.64570   2.82205  -2.34612
H     5.09966   1.48897  -3.46292
H     4.96588   3.13673  -4.08078
H    -3.68636  -0.48403  -3.30377
H    -3.64356  -0.09582  -5.05957
H    -3.95526   1.19554  -3.86341
H    -1.31254  -0.97638  -0.53984
H    -2.10961   0.40419  -1.35784
H    -0.32241   0.27701  -1.34973
H    -2.20596  -1.97684  -4.74991
H    -1.24826  -0.98416  -5.85645
H    -0.59747  -3.39135  -5.63029
H    -0.11465  -3.14197  -3.97409
H     1.51451  -3.02117  -6.24800
H     1.21159  -1.31725  -5.99070
H     3.32671  -1.99706  -5.06015
H     2.61622  -3.30566  -4.12158
H     1.52898  -1.45410  -1.18977
H     2.36961  -2.93450  -1.73599
H     0.73540  -2.54063  -2.33525
H     3.71001  -0.87548  -0.64002
H     2.96568   0.56954  -1.34711
H     4.75984   0.36620  -1.36539
