19
Generated by autodE on: 2022-06-19. E = -568.917766 Ha
C    -3.90618  -0.23869  -0.46969
N    -2.53321   0.06414  -0.12360
C    -1.48045  -0.61930  -0.61074
O    -1.54273  -1.57444  -1.39756
C    -0.16733  -0.16047  -0.14346
N     0.98908  -0.69815  -0.49369
C     2.03936  -0.05282   0.10582
C     3.46974  -0.40716  -0.07225
C     1.48215   0.97579   0.89557
O     1.91841   1.85067   1.63424
O     0.05689   0.85169   0.69157
H    -4.49162  -0.48613   0.42947
H    -3.91957  -1.09864  -1.14911
H    -4.38438   0.61771  -0.97055
H    -2.34981   0.83373   0.51393
H     1.05285  -1.49294  -1.13175
H     3.68418  -1.43835   0.25537
H     3.79130  -0.31593  -1.12345
H     4.08170   0.27687   0.53197
