39
Generated by autodE on: 2022-06-19. E = -993.269409 Ha
C    -0.63996   3.69499   0.86939
N    -0.80662   2.25806   0.75289
C    -1.18411   1.68624  -0.39438
O    -1.47419   2.29817  -1.42492
C    -1.24104   0.17545  -0.39518
O    -0.96463  -0.43552   0.87635
C    -1.21471  -1.75440   0.45133
C    -1.19897  -2.70392   1.56243
N    -1.16346  -3.47444   2.42541
C    -0.23129  -1.98248  -0.70542
C    -0.18826  -0.56171  -1.35066
C    -0.62099  -0.56335  -2.81736
C     1.13256   0.15434  -1.19084
C     2.03825  -0.03858  -0.21232
C     3.25149   0.74890  -0.08092
C     4.19629   0.62420   0.88266
C     4.14357  -0.37895   2.00007
C     5.40093   1.52237   0.89799
O    -2.55666  -1.67620  -0.10426
C    -2.61442  -0.43684  -0.68157
O    -3.56466  -0.02551  -1.28131
H    -1.52969   4.21678   0.48862
H    -0.49906   3.95146   1.92600
H     0.23487   4.04450   0.29732
H    -0.54397   1.65883   1.52924
H     0.74004  -2.30531  -0.31648
H    -0.61934  -2.74699  -1.38791
H    -1.57107  -1.09627  -2.96762
H    -0.73556   0.46588  -3.18498
H     0.14723  -1.06667  -3.42297
H     1.30482   0.95330  -1.92046
H     1.85991  -0.81525   0.53592
H     3.39976   1.52298  -0.84305
H     5.04474  -1.01669   1.98248
H     3.26180  -1.03158   1.96787
H     4.15362   0.13777   2.97593
H     5.45200   2.09028   1.84420
H     5.39730   2.23726   0.06222
H     6.33120   0.92879   0.84764
