16
Generated by autodE on: 2022-06-19. E = -641.679396 Ha
C    -3.64888   0.66782   1.30854
N    -2.24366   0.56952   0.96956
C    -1.77411  -0.24555   0.00196
O    -2.47814  -0.98131  -0.70271
C    -0.32527  -0.23482  -0.20725
O     0.50370   0.57062   0.54721
C     1.72450   0.38924   0.15508
C     2.80566   1.08161   0.75490
N     3.70136   1.64196   1.23794
O     1.84455  -0.46244  -0.79913
C     0.43321  -0.96909  -1.13006
O     0.30236  -1.78188  -1.99874
H    -3.99698   1.70939   1.23196
H    -4.22639   0.04918   0.61212
H    -3.83571   0.31357   2.33492
H    -1.58258   1.12760   1.50088
