32
Generated by autodE on: 2022-06-16. E = -615.021404 Ha
C     2.09415  -0.56612  -1.57397
C     1.91986   0.06910  -0.23031
O     2.82596   0.61395   0.37205
C     0.50060   0.03726   0.38622
C     0.64678   0.14173   1.85784
N     0.69989   0.15949   3.01772
C    -0.37276   1.27046  -0.10648
C     0.38460   2.37603  -0.82905
C    -1.50828   0.61096  -0.90592
C    -2.78156   1.44483  -0.93854
C    -1.65428  -0.75840  -0.23576
C    -2.42341  -1.78242  -1.05428
N    -0.25476  -1.13895  -0.01498
C     0.00372  -2.35776   0.72614
H     3.05649  -0.25837  -2.00324
H     1.26217  -0.31284  -2.24540
H     2.08030  -1.66146  -1.45066
H    -0.82056   1.70352   0.80080
H     0.84191   2.02026  -1.76457
H    -0.31132   3.18908  -1.08523
H     1.17692   2.80159  -0.19594
H    -1.15694   0.43817  -1.93844
H    -3.56941   0.94548  -1.52351
H    -3.16787   1.61338   0.08023
H    -2.60031   2.42831  -1.39918
H    -2.17630  -0.62110   0.73834
H    -3.44047  -1.41309  -1.25492
H    -1.92417  -1.96725  -2.01904
H    -2.52180  -2.74127  -0.52361
H     1.08873  -2.51714   0.81964
H    -0.42850  -2.34722   1.74812
H    -0.41266  -3.22179   0.18955
