12
Generated by autodE on: 2022-06-16. E = -157.300302 Ha
C    -1.96386  -0.01936   0.02563
C    -0.52201  -0.40559  -0.10808
C     0.52201   0.40561   0.10803
C     1.96386   0.01935  -0.02559
H    -2.48007  -0.65078   0.77056
H    -2.50646  -0.16214  -0.92584
H    -2.07817   1.03280   0.33051
H    -0.32397  -1.44389  -0.40920
H     0.32397   1.44391   0.40913
H     2.50626   0.16154   0.92608
H     2.48029   0.65115  -0.77005
H     2.07816  -1.03266  -0.33101
