20
Generated by autodE on: 2022-06-16. E = -457.669423 Ha
C    -3.17149   0.46833   0.82903
C    -1.69938   0.57488   0.69621
N    -0.98232  -0.25801  -0.00945
C    -1.68112  -1.36228  -0.69992
C     0.43184  -0.16445  -0.15798
C     1.09132  -1.22027  -0.81519
N     1.69161  -2.07118  -1.35214
C     1.20836   0.93903   0.32685
C     2.70304   0.88971   0.06141
O     0.73217   1.91841   0.93932
H    -3.67384   0.59024  -0.14719
H    -3.47562  -0.51790   1.21955
H    -3.53806   1.24727   1.50884
H    -1.13891   1.37272   1.18201
H    -2.09840  -2.05185   0.04549
H    -2.49481  -0.95038  -1.30852
H    -0.98680  -1.90164  -1.34734
H     3.15847   1.80368   0.46446
H     3.16409   0.01398   0.54482
H     2.92050   0.82047  -1.01578
