30
Generated by autodE on: 2022-10-13. E = -821.091282 Ha
C     4.50797  -1.70627   0.55441
N     3.18915  -1.13982   0.37005
C     2.97785  -0.10426  -0.47349
O     3.88782   0.42955  -1.13310
C     1.60793   0.39044  -0.58922
O     0.69348  -0.21832   0.09815
C    -0.61584  -0.12309   0.21828
C    -1.18551  -1.14013   1.09794
O    -2.37163  -1.20870   1.39215
O    -0.26846  -2.00954   1.56714
C    -0.75103  -3.02096   2.45802
C    -1.40551   0.90682  -0.45127
C    -0.92591   2.22799  -0.58337
C    -1.70080   3.20582  -1.20679
C    -2.96382   2.88828  -1.71580
C    -3.45158   1.58285  -1.58862
C    -2.68590   0.60117  -0.96278
H     5.22292  -0.94891   0.91465
H     4.44745  -2.51231   1.29570
H     4.90622  -2.12165  -0.38613
H     2.39811  -1.54108   0.86323
H     1.36721   1.21642  -1.25754
H    -1.19790  -2.56890   3.35585
H     0.12371  -3.62128   2.73437
H    -1.50093  -3.65296   1.95976
H     0.04409   2.50570  -0.16956
H    -1.31545   4.22447  -1.29084
H    -3.56583   3.65455  -2.20939
H    -4.43607   1.32522  -1.98598
H    -3.07192  -0.41346  -0.87174
