30
Generated by autodE on: 2022-10-08. E = -821.090009 Ha
C     4.27365  -1.71597  -0.09363
N     3.02873  -0.97679  -0.10467
C     2.97682   0.30888  -0.52010
O     3.97500   0.92885  -0.92748
C     1.67962   0.98545  -0.48371
O     0.64299   0.28774  -0.14779
C    -0.66117   0.44315   0.02573
C    -1.29470   1.74926  -0.11360
O    -2.49539   1.96128  -0.00454
O    -0.41056   2.72899  -0.37684
C    -0.93975   4.05230  -0.52666
C    -1.36806  -0.80195   0.32108
C    -2.64982  -0.82127   0.91531
C    -3.28250  -2.03161   1.20000
C    -2.66272  -3.24987   0.90585
C    -1.39398  -3.24500   0.31491
C    -0.75600  -2.04207   0.02173
H     4.06715  -2.75533   0.18912
H     4.99474  -1.29143   0.62524
H     4.74634  -1.70641  -1.08793
H     2.19586  -1.40080   0.29003
H     1.59639   2.03824  -0.74099
H    -1.65513   4.08925  -1.36095
H    -0.07891   4.69750  -0.73662
H    -1.44085   4.37422   0.39765
H    -3.14329   0.11655   1.15919
H    -4.27152  -2.01956   1.66445
H    -3.16398  -4.19398   1.13073
H    -0.89932  -4.18792   0.06972
H     0.22155  -2.05819  -0.46103
