10
Generated by autodE on: 2022-10-08. E = -455.045309 Ha
O     1.55105   0.66167  -0.71425
C     1.55677  -0.26079   0.14262
O     2.39534  -1.20221   0.21335
C     0.49455  -0.25949   1.22449
C    -0.82298  -0.05372   1.06225
C    -1.54354   0.27318  -0.23138
O    -1.28384  -0.40604  -1.25930
O    -2.38808   1.20845  -0.15288
H     0.86902  -0.50217   2.22707
H    -1.46983  -0.06989   1.94865
