40
Generated by autodE on: 2022-10-08. E = -1276.145369 Ha. Imaginary frequency = -215.2 cm-1
C     4.55455  -0.46068   1.23179
N     3.27671   0.20485   1.07650
C     2.89391   0.69609  -0.12694
O     3.67155   0.90984  -1.07128
C     1.46570   0.98359  -0.29338
O     0.66296   0.64852   0.68147
C    -0.66902   0.68287   0.68056
C    -1.25813  -0.27131   1.61474
O    -2.46029  -0.38878   1.81550
O    -0.34116  -1.05921   2.20707
C    -0.84743  -2.13700   2.99892
C    -1.41354   1.80583   0.09825
C    -0.84052   3.09429   0.06211
C    -1.56025   4.18074  -0.43461
C    -2.86597   4.00767  -0.90572
C    -3.44288   2.73366  -0.87589
C    -2.72866   1.64162  -0.38281
C    -0.59348  -0.79114  -1.52958
C    -1.52377  -1.82855  -0.94192
O    -2.75703  -1.63768  -1.15003
O    -1.03761  -2.80694  -0.31174
C     0.76082  -0.89542  -1.70252
C     1.64529  -2.04664  -1.24473
O     2.09152  -2.75392  -2.18746
O     1.89685  -2.19241  -0.02285
H     5.33403   0.09944   0.70000
H     4.81864  -0.51063   2.29664
H     4.52099  -1.48738   0.82676
H     2.51848  -0.13994   1.65898
H     1.14376   1.68144  -1.06520
H    -1.46787  -2.80129   2.38097
H     0.03252  -2.67942   3.36467
H    -1.43881  -1.76136   3.84702
H     0.17025   3.25515   0.44205
H    -1.09851   5.17092  -0.44723
H    -3.42763   4.85898  -1.29716
H    -4.45836   2.58457  -1.25102
H    -3.16748   0.64595  -0.39959
H    -1.10861   0.01343  -2.06113
H     1.22627  -0.25404  -2.45720
