18
Generated by autodE on: 2022-07-26. E = -510.594056 Ha
C    -1.81698  -1.22148   0.87282
C    -0.87890  -1.84218  -0.12854
O    -0.76497  -3.05931  -0.22914
C    -0.20140  -1.00883  -1.14613
N     0.20954   0.23624  -1.03149
C     0.51513   0.99645  -2.26329
C     0.43020   0.89343   0.16889
C     0.74415   0.18389   1.34321
N     1.03449  -0.38340   2.32282
C     0.49926   2.30268   0.19635
N     0.56199   3.46776   0.25053
H    -2.76528  -1.77706   0.81543
H    -1.99958  -0.15198   0.70265
H    -1.41308  -1.35218   1.88916
H    -0.07247  -1.47341  -2.12526
H     1.54974   1.35790  -2.21961
H     0.36382   0.34326  -3.12757
H    -0.17468   1.84880  -2.32373
