18
Generated by autodE on: 2022-05-29. E = -510.598400 Ha
C     3.54869   0.19386   0.30492
C     2.22529   0.88990   0.12131
O     2.14224   2.10971  -0.00478
C     1.07392  -0.01941   0.10636
N    -0.19383   0.32667  -0.04640
C    -0.57714   1.74697  -0.21886
C    -1.21400  -0.60538  -0.05301
C    -0.92142  -1.97626   0.10940
N    -0.68578  -3.11191   0.24386
C    -2.56409  -0.23554  -0.22090
N    -3.69938   0.00547  -0.35614
H     4.35997   0.93262   0.30840
H     3.70811  -0.53555  -0.50630
H     3.55143  -0.37234   1.25085
H     1.27311  -1.08423   0.22899
H    -1.66201   1.81570  -0.32485
H    -0.08230   2.14192  -1.11183
H    -0.24451   2.31218   0.65753
