13
Generated by autodE on: 2022-05-29. E = -2980.371029 Ha
F    -0.41593   2.21970  -0.65133
C    -0.67640   1.11478   0.02836
C     0.07177   0.02724   0.22399
Br    1.77264  -0.38905  -0.42548
C    -0.88633  -0.95397   0.94558
C    -1.96835  -1.38310  -0.07686
C    -2.70243  -0.28634  -0.28130
C    -2.05975   0.79492   0.62338
O    -1.64099  -0.01569   1.73795
H    -0.41695  -1.73397   1.55420
H    -2.03836  -2.36822  -0.53626
H    -3.54149  -0.11815  -0.95498
H    -2.67277   1.65236   0.92147
