31
Generated by autodE on: 2022-05-29. E = -3490.960779 Ha. Imaginary frequency = -257.2 cm-1
C    -4.62701  -0.08224   0.71061
C    -3.27520  -0.71634   0.49066
O    -2.99384  -1.79415   0.98379
C    -2.37901  -0.07732  -0.54557
C    -0.36796  -0.58746   0.28497
C     0.56960  -0.50323  -0.94611
O     0.69064   0.92394  -1.08180
C     1.14265   1.16890   0.25986
C     2.34500   0.20738   0.28868
F     3.41176   0.39625   1.04676
C     1.99863  -0.84280  -0.46191
Br    2.86630  -2.47801  -0.70330
C     0.02450   0.47897   1.05935
C    -1.99647   2.08477   0.35442
C    -2.41734   1.78324   1.67071
N    -2.75034   1.56667   2.76946
C    -1.48732   3.38375   0.12422
N    -1.03068   4.44706  -0.03042
N    -2.25190   1.24828  -0.71827
C    -2.00096   1.78375  -2.06680
H    -4.66940   0.98251   0.45435
H    -5.33339  -0.61787   0.05265
H    -4.94025  -0.23916   1.75199
H    -2.35873  -0.66025  -1.47100
H    -0.81165  -1.51565   0.64131
H     0.24145  -0.98075  -1.87474
H     1.34964   2.22643   0.45522
H    -0.16625   0.64854   2.11624
H    -2.13449   0.97432  -2.79116
H    -0.98105   2.17512  -2.13953
H    -2.72884   2.58046  -2.27199
