60
Generated by autodE on: 2022-06-28. E = -1513.803994 Ha
C    -1.96893  -3.36707   3.01579
O    -1.96835  -2.19488   2.18568
C    -1.26351  -2.25798   1.06591
O    -0.69677  -3.26432   0.68807
C    -1.27561  -0.95989   0.20382
C    -2.68421  -0.81086  -0.36923
C    -3.78953  -0.61207   0.47487
C    -5.07333  -0.48992  -0.05648
C    -5.27932  -0.57518  -1.43804
C    -4.18642  -0.77992  -2.28194
C    -2.89728  -0.89560  -1.75136
N    -0.25666  -1.04313  -0.82442
C     1.05751  -0.97323  -0.18679
C     2.14878  -0.46654  -1.11014
C     1.86069   0.17825  -2.31963
C     2.89110   0.66046  -3.13052
C     4.22582   0.50648  -2.74100
C     4.52205  -0.14503  -1.53981
C     3.49029  -0.63426  -0.73481
C     0.79189  -0.14726   1.14276
O     0.82287  -0.94224   2.30316
C     1.92869  -1.80670   2.53605
C     1.72063   1.05311   1.25537
O     2.58458   1.11824   2.11518
C     1.55438   2.10150   0.21998
C     2.74166   2.95025  -0.10197
C     0.34836   2.27246  -0.38916
C     0.14580   3.30628  -1.45223
C    -0.84365   1.52602   0.06717
O    -1.96673   1.91915  -0.20760
C    -0.70441   0.28030   0.98011
O    -1.39111   0.49389   2.17443
C    -0.91221   1.53720   3.01366
H    -2.59386  -3.12118   3.88168
H    -2.38833  -4.22512   2.47189
H    -0.94338  -3.59874   3.33834
H    -3.64119  -0.53437   1.54989
H    -5.91979  -0.32514   0.61449
H    -6.28634  -0.48322  -1.85175
H    -4.33144  -0.84930  -3.36267
H    -2.05514  -1.04344  -2.42649
H    -0.34735  -1.88888  -1.38445
H     1.37753  -1.96410   0.16138
H     0.82036   0.31221  -2.61428
H     2.64929   1.16490  -4.06915
H     5.03115   0.88940  -3.37220
H     5.56111  -0.27812  -1.22938
H     3.72759  -1.15017   0.19807
H     2.88898  -1.32056   2.31796
H     1.84252  -2.73826   1.95281
H     1.89480  -2.06328   3.60399
H     3.56218   2.76053   0.60022
H     3.09277   2.72522  -1.12350
H     2.48602   4.02079  -0.07766
H     0.93412   3.22769  -2.21645
H     0.20800   4.32374  -1.02959
H    -0.83557   3.19632  -1.92909
H     0.07221   1.28764   3.43908
H    -0.84624   2.50150   2.48206
H    -1.63725   1.63620   3.83233
