34
Generated by autodE on: 2022-06-28. E = -824.310647 Ha
C    -0.88638   3.79085   1.87191
O    -0.52962   2.52357   1.32291
C    -1.54158   1.78066   0.77251
O    -2.70813   2.17325   0.80974
C    -1.06808   0.56262   0.17310
N     0.28984   0.36447   0.21177
C     1.04929  -0.65445  -0.13462
C     2.48795  -0.65809   0.00412
C     3.23582   0.44805   0.47125
C     4.62132   0.36812   0.58422
C     5.29848  -0.80773   0.23411
C     4.57157  -1.90835  -0.23345
C     3.18477  -1.83642  -0.34858
C    -1.98287  -0.39385  -0.46360
C    -3.22392  -0.70568   0.13195
C    -4.11376  -1.58866  -0.48033
C    -3.78898  -2.19147  -1.70021
C    -2.56344  -1.89302  -2.30454
C    -1.67309  -1.00608  -1.69759
H     0.04271   4.22954   2.25627
H    -1.31861   4.44803   1.10187
H    -1.61117   3.67486   2.69175
H     0.77194   1.17223   0.61928
H     0.55804  -1.54193  -0.53092
H     2.73874   1.38184   0.74629
H     5.18130   1.23326   0.94696
H     6.38562  -0.86293   0.32384
H     5.09004  -2.82936  -0.51031
H     2.61907  -2.69740  -0.71305
H    -3.48689  -0.24884   1.08617
H    -5.06661  -1.81450   0.00505
H    -4.48457  -2.88682  -2.17573
H    -2.29986  -2.34741  -3.26288
H    -0.73595  -0.76942  -2.20455
