34
Generated by autodE on: 2022-07-27. E = -824.308122 Ha
C    -1.96649  -2.91746   2.97673
O    -1.96485  -1.94917   1.92952
C    -0.75456  -1.43239   1.58522
O     0.27726  -1.81148   2.15260
C    -0.81558  -0.46954   0.52434
N     0.36720   0.04183   0.02920
C     1.64045  -0.18952   0.28431
C     2.71806   0.51482  -0.37623
C     2.53252   1.52240  -1.35195
C     3.62922   2.14247  -1.94527
C     4.93417   1.78167  -1.58405
C     5.13287   0.78815  -0.61903
C     4.04038   0.16203  -0.02230
C    -2.04012  -0.00174  -0.14416
C    -3.24499   0.22593   0.55848
C    -4.37730   0.71162  -0.09402
C    -4.34647   0.99995  -1.46370
C    -3.16251   0.78680  -2.17461
C    -2.03086   0.28494  -1.52866
H    -1.56820  -2.49416   3.91148
H    -1.36844  -3.80003   2.70257
H    -3.01481  -3.20862   3.11827
H     0.19923   0.75866  -0.68053
H     1.86666  -0.94835   1.02798
H     1.52951   1.83288  -1.65748
H     3.46592   2.91806  -2.69713
H     5.78929   2.27409  -2.05231
H     6.14618   0.49966  -0.32994
H     4.19709  -0.61483   0.72986
H    -3.28399   0.03462   1.62983
H    -5.29248   0.88185   0.47890
H    -5.23527   1.38437  -1.96921
H    -3.11988   0.99509  -3.24664
H    -1.13288   0.09027  -2.12057
