43
Generated by autodE on: 2022-06-22. E = -1328.289066 Ha
C     3.74212  -2.72993  -0.45239
O     2.58190  -2.05596   0.07748
C     2.54950  -0.74515  -0.02343
O     3.41341  -0.03097  -0.46808
C     1.22653  -0.17318   0.55205
C     1.00360  -0.75076   1.89201
N     0.84475  -1.17586   2.95845
N     1.27642   1.28193   0.63513
C     0.29531   1.89190  -0.24808
C    -0.12538   3.20868   0.28187
N    -0.33140   4.29919   0.61599
C     0.79977   2.16567  -1.62013
N     1.21483   2.45482  -2.66270
C    -0.82343   0.77658  -0.31716
O    -1.67477   0.85699  -1.40775
C    -2.60729   1.94216  -1.46667
C    -1.63195   0.71248   0.99942
O    -1.76281   1.69903   1.69876
C    -2.29797  -0.56935   1.31983
C    -3.39692  -0.52690   2.33208
C    -1.85344  -1.74882   0.79480
C    -2.46165  -3.05537   1.18967
C    -0.70510  -1.79613  -0.13669
O    -0.32049  -2.83009  -0.64974
C     0.05587  -0.49425  -0.46021
O     0.69302  -0.55852  -1.69503
C    -0.02112  -0.93560  -2.88097
H     3.82777  -2.52741  -1.52875
H     4.64524  -2.38546   0.06946
H     3.57313  -3.79666  -0.27221
H     2.22344   1.63424   0.48998
H    -3.21699   1.76044  -2.36007
H    -2.09170   2.90932  -1.57616
H    -3.26010   1.97036  -0.58103
H    -4.29184  -1.04297   1.95087
H    -3.65736   0.50384   2.59820
H    -3.08945  -1.06034   3.24758
H    -3.55526  -3.03031   1.06587
H    -2.26650  -3.25351   2.25747
H    -2.04782  -3.88019   0.59876
H    -0.04966  -0.07238  -3.56090
H    -1.04621  -1.25766  -2.66791
H     0.53103  -1.76117  -3.35174
