17
Generated by autodE on: 2022-06-22. E = -638.812388 Ha
C     4.17139  -0.21863   0.31912
O     2.83764  -0.50076  -0.14381
C     1.85241   0.17863   0.41876
O     1.96954   1.02057   1.29015
C     0.52868  -0.19412  -0.13229
C     0.39136  -1.17282  -1.14142
N     0.33006  -1.98380  -1.97518
N    -0.49065   0.47058   0.40732
C    -1.81926   0.44488   0.21568
C    -2.44518  -0.41776  -0.71845
N    -3.01473  -1.10344  -1.46793
C    -2.63134   1.31889   0.98276
N    -3.31749   2.02768   1.60205
H     4.83281  -0.86293  -0.26996
H     4.25650  -0.45490   1.38910
H     4.41343   0.83993   0.15015
H    -0.15527   1.13760   1.12385
