26
Generated by autodE on: 2022-06-22. E = -689.460866 Ha
C     3.10420  -0.87956  -0.39497
O     2.05483  -0.26102  -1.14663
C     0.85236  -0.14603  -0.50967
C     0.35552   1.04352  -0.06729
O     0.90729   2.25591  -0.10954
C     2.22507   2.48904  -0.61766
C    -1.01419   1.09669   0.55562
O    -1.44540   2.17488   0.94045
C    -1.80123  -0.15462   0.70160
C    -3.15151  -0.05507   1.34158
C    -1.29212  -1.33450   0.26813
C    -2.04631  -2.61979   0.40045
C     0.04944  -1.38202  -0.38831
O     0.49051  -2.43728  -0.84047
H     3.99094  -0.88661  -1.04264
H     3.32292  -0.29938   0.51693
H     2.84546  -1.91256  -0.11932
H     2.39197   3.56743  -0.50136
H     2.97563   1.93707  -0.03409
H     2.29468   2.21321  -1.67771
H    -3.19446  -0.66801   2.25721
H    -3.39193   0.98239   1.60205
H    -3.93264  -0.44192   0.66688
H    -2.99730  -2.57163  -0.15624
H    -1.46020  -3.46506   0.02155
H    -2.30953  -2.80991   1.45385
