20
Generated by autodE on: 2022-10-20. E = -678.128619 Ha
C     2.95330   0.21531  -2.35406
O     1.55839  -0.04155  -2.11732
C     1.16465  -0.08113  -0.84615
O     1.89109   0.11334   0.10892
C    -0.25805  -0.47629  -0.74853
C    -0.85755  -1.09909  -1.87142
N    -1.34219  -1.59942  -2.80559
N    -0.94974  -0.43458   0.41023
C    -2.12980  -1.32320   0.53427
C    -0.67185   0.40774   1.43789
C     0.06875   1.60176   1.26246
N     0.60506   2.63041   1.15660
C    -1.21846   0.19372   2.72858
N    -1.62877   0.07342   3.81271
H     3.23755   1.18601  -1.92397
H     3.07320   0.22785  -3.44284
H     3.56688  -0.58113  -1.90949
H    -1.85745  -2.32760   0.19358
H    -2.93630  -0.91131  -0.08736
H    -2.45484  -1.35465   1.57740
