50
Generated by autodE on: 2022-06-08. E = -3815.317829 Ha
C     6.06163   0.56385  -0.33607
N     4.75453  -0.04891  -0.47521
C     3.67940   0.66366  -0.85968
O     3.74242   1.87181  -1.13488
C     2.37951  -0.03383  -0.95211
C     1.82105  -1.06917  -0.29796
Br    2.51379  -2.19434   1.03366
C     0.33961  -1.06099  -0.65674
O     0.38997  -0.56494  -1.99743
C     1.20296   0.58559  -1.70940
C     0.33191   1.33721  -0.66488
C    -0.88643   2.02717  -1.30254
C    -1.26001   3.35166  -0.61585
C    -2.34665   4.15601  -1.27285
O    -0.67187   3.75132   0.37496
N    -2.01434   1.07743  -1.23774
C    -1.80155   0.30405  -0.00399
C    -2.31932   1.13325   1.20673
O    -1.81819   1.03962   2.32972
N    -3.36693   1.92195   0.92754
C    -3.87800   2.88607   1.87927
C    -2.57849  -1.00532   0.01836
C    -2.35097  -1.91667   1.06349
C    -3.05301  -3.12108   1.12223
C    -3.99863  -3.43337   0.13909
C    -4.23674  -2.52841  -0.89739
C    -3.53474  -1.31932  -0.95617
C    -0.26327   0.14000   0.13817
H     6.76881  -0.19150   0.02673
H     6.42394   0.95651  -1.29965
H     6.03274   1.39931   0.38060
H     4.65426  -1.03832  -0.27929
H    -0.19232  -2.01435  -0.59503
H     1.44986   1.14376  -2.61824
H     0.92933   2.03105  -0.06580
H    -0.71047   2.28128  -2.35972
H    -3.10183   3.51740  -1.74918
H    -1.87178   4.75447  -2.07038
H    -2.80871   4.84155  -0.55013
H    -1.92099   0.43744  -2.02534
H    -3.63333   1.97736  -0.05224
H    -4.18588   2.39182   2.81288
H    -3.11088   3.63913   2.12743
H    -4.74673   3.39396   1.44333
H    -1.61737  -1.68113   1.83631
H    -2.85950  -3.81989   1.93946
H    -4.54739  -4.37697   0.18336
H    -4.97591  -2.75861  -1.66833
H    -3.74370  -0.62064  -1.76649
H     0.02856   0.11320   1.19224
