30
Generated by autodE on: 2022-07-27. E = -726.002230 Ha
C    -1.67192   1.74896   2.51561
N    -1.26099   0.86203   1.44600
C     0.01726   0.81386   1.03332
O     0.92320   1.44969   1.58366
C     0.31996  -0.15166  -0.07443
N     1.22383   0.17208  -0.99457
C     1.72295   1.37003  -1.41641
C     1.02018   2.59822  -1.31228
C     1.67733   3.81509  -1.92905
O    -0.10893   2.71191  -0.78195
C    -0.19622  -1.52163  -0.06403
C    -0.57693  -2.15154   1.14247
C    -1.03268  -3.46798   1.14325
C    -1.11996  -4.19002  -0.05277
C    -0.75002  -3.57932  -1.25495
C    -0.30083  -2.25910  -1.26498
H    -1.11731   1.53378   3.44215
H    -1.49065   2.80273   2.24726
H    -2.74336   1.60850   2.70325
H    -1.96432   0.34524   0.92882
H     1.60879  -0.62996  -1.50074
H     2.61240   1.28732  -2.03807
H     2.61631   3.58416  -2.45067
H     1.88548   4.54752  -1.13087
H     0.97556   4.29462  -2.63041
H    -0.49349  -1.61375   2.08721
H    -1.31375  -3.93847   2.08823
H    -1.48055  -5.22099  -0.04752
H    -0.82859  -4.12813  -2.19618
H    -0.05959  -1.78598  -2.21938
