50
Generated by autodE on: 2022-06-08. E = -3815.221871 Ha. Imaginary frequency = -275.0 cm-1
C     6.17288   0.28760  -1.03300
N     4.81924  -0.21534  -0.90130
C     3.74941   0.57080  -1.13017
O     3.85744   1.75415  -1.48848
C     2.40685  -0.01035  -0.94332
C     1.88919  -0.97152  -0.15771
Br    2.70470  -2.14065   1.05848
C     0.35345  -0.84093  -0.26434
O     0.25261  -0.42415  -1.63214
C     1.14771   0.69772  -1.50637
C     0.50060   1.45077  -0.33128
C    -1.58585   2.19724  -1.51284
C    -1.41246   3.37371  -0.70239
C    -0.68425   4.51714  -1.37797
O    -1.80280   3.49372   0.46936
N    -2.21967   1.04297  -1.18272
C    -2.37022   0.44801   0.02254
C    -2.89114   1.23642   1.21187
O    -2.39341   1.17951   2.33946
N    -4.07030   1.84544   0.96703
C    -4.66252   2.73446   1.94759
C    -2.69938  -0.99475   0.04358
C    -2.72819  -1.68615   1.27365
C    -2.95760  -3.06077   1.31854
C    -3.17173  -3.78425   0.14155
C    -3.16054  -3.11030  -1.08341
C    -2.92865  -1.73596  -1.13412
C    -0.03068   0.46405   0.46725
H     6.36686   0.64546  -2.05663
H     6.35670   1.12524  -0.34165
H     6.87483  -0.52259  -0.80242
H     4.67951  -1.18021  -0.62451
H    -0.22424  -1.74596  -0.05699
H     1.28303   1.23217  -2.45102
H     0.80723   2.44866  -0.02882
H    -1.33902   2.26533  -2.57153
H    -1.42971   5.21027  -1.80481
H    -0.02546   4.18189  -2.19121
H    -0.10269   5.07089  -0.62713
H    -2.16333   0.37707  -1.95090
H    -4.33522   1.97151  -0.00461
H    -4.77433   2.21961   2.91203
H    -4.04047   3.63146   2.10536
H    -5.65414   3.04589   1.59613
H    -2.54639  -1.13975   2.19809
H    -2.96464  -3.57075   2.28471
H    -3.34954  -4.86126   0.17772
H    -3.33915  -3.65645  -2.01250
H    -2.94806  -1.25375  -2.11333
H    -0.24719   0.52071   1.53091
