50
Generated by autodE on: 2022-06-02. E = -1166.681041 Ha
C    -0.77574   3.82555  -1.92111
N    -0.51961   3.05447  -0.71648
C    -0.33850   1.73275  -0.76530
O    -0.39302   1.08383  -1.81439
C     0.06356   0.98802   0.54753
C    -0.30339   1.78382   1.73283
N    -0.58219   2.43005   2.65483
N     1.49618   0.72824   0.55763
C     2.38476   1.87661   0.53057
C     1.79247  -0.52175  -0.15818
C     3.13789  -1.10665   0.30070
C     1.97826  -0.32067  -1.69300
C     1.51474  -1.38986  -2.64573
O     2.59267   0.65323  -2.09603
C     0.57484  -1.41833   0.18996
C     0.70763  -2.32688   1.43606
C    -0.52910  -3.25353   1.46723
C    -1.66976  -2.30211   1.93026
C    -0.96010  -0.93555   2.03437
C     0.40669  -1.36128   2.59632
C    -0.58705  -0.44821   0.58932
C    -1.85311  -0.45007  -0.24417
O    -2.74012   0.36451  -0.06631
O    -1.94273  -1.45249  -1.11303
C    -3.14926  -1.52754  -1.88752
H    -0.92670   4.87516  -1.64323
H     0.07113   3.75646  -2.62145
H    -1.67656   3.45599  -2.43382
H    -0.42477   3.54589   0.16674
H     2.33536   2.47412  -0.39475
H     2.14652   2.53693   1.38048
H     3.42065   1.53862   0.66113
H     3.28806  -2.10314  -0.13907
H     3.16996  -1.19343   1.39454
H     3.96917  -0.46660  -0.02527
H     1.92274  -1.18471  -3.64405
H     1.83324  -2.38685  -2.30449
H     0.41592  -1.39530  -2.69507
H     0.29712  -2.02680  -0.67088
H     1.65640  -2.87255   1.48407
H    -0.72674  -3.70204   0.48261
H    -0.37851  -4.07384   2.18416
H    -2.53865  -2.30069   1.25801
H    -2.03899  -2.58048   2.92781
H    -1.53011  -0.18874   2.59827
H     1.12720  -0.54022   2.68684
H     0.30993  -1.87014   3.56745
H    -4.02268  -1.63014  -1.22823
H    -3.04418  -2.41355  -2.52355
H    -3.25617  -0.62397  -2.50443
