27
Generated by autodE on: 2022-07-27. E = -665.770541 Ha
C    -0.54621   2.19087  -2.41680
N    -0.10710   1.59359  -1.17004
C    -1.00478   1.11489  -0.28300
O    -2.21333   1.37490  -0.36696
C    -0.49695   0.37798   0.90267
C    -1.32942   0.45389   2.04104
N    -2.04634   0.52151   2.96222
N     0.72029  -0.24122   1.00229
C     1.39514  -0.23138   2.31809
C     1.35239  -0.84892  -0.02553
C     2.81979  -1.12954   0.08267
C     0.55605  -1.46473  -1.09765
C     1.26828  -2.46393  -1.97838
O    -0.65104  -1.25724  -1.24794
H    -1.10075   1.46796  -3.03899
H     0.33476   2.53273  -2.97402
H    -1.20171   3.05385  -2.23003
H     0.85331   1.27151  -1.11969
H     1.84681  -1.20921   2.51508
H     2.17097   0.54660   2.31498
H     0.66346   0.00237   3.09655
H     3.02621  -2.08591   0.59536
H     3.34221  -0.33594   0.63262
H     3.26762  -1.19051  -0.91700
H     0.52410  -2.96309  -2.61167
H     1.99591  -1.94349  -2.62280
H     1.82507  -3.21221  -1.39488
