27
Generated by autodE on: 2022-06-02. E = -665.774292 Ha
C     3.40135  -1.41437  -0.69471
N     2.44078  -0.32992  -0.70167
C     1.31880  -0.38148   0.04807
O     1.03951  -1.37416   0.73346
C     0.48669   0.84729   0.05274
C     1.06944   2.07329  -0.31703
N     1.59975   3.06017  -0.65947
N    -0.75765   0.84514   0.63825
C    -1.15117   2.03210   1.42410
C    -1.59593  -0.20168   0.59271
C    -2.69081  -0.30763   1.60905
C    -1.59674  -1.09571  -0.58391
C    -2.77571  -2.02967  -0.72068
O    -0.74110  -1.05202  -1.46799
H     2.91615  -2.36977  -0.94735
H     4.17803  -1.20396  -1.43993
H     3.88103  -1.52991   0.29137
H     2.64430   0.50037  -1.24766
H    -0.91334   1.86214   2.48348
H    -0.58422   2.89810   1.06851
H    -2.22179   2.22664   1.30540
H    -2.38861   0.11719   2.57468
H    -2.94853  -1.36125   1.77589
H    -3.61265   0.20703   1.28465
H    -3.73762  -1.50948  -0.60063
H    -2.73071  -2.50740  -1.70745
H    -2.72643  -2.80879   0.05825
