23
Generated by autodE on: 2022-06-25. E = -351.521382 Ha
C    -3.65798  -0.95822  -0.02985
C    -2.56159  -0.21043  -0.28397
C    -2.66027   1.09623  -1.02899
C    -1.24786  -0.66357   0.16877
C    -0.07676  -0.00409  -0.01688
C     1.20112  -0.49756   0.45442
C     2.40966   0.10460   0.31819
C     3.65409  -0.53680   0.86390
C     2.62786   1.42617  -0.36223
H    -4.65281  -0.64255  -0.35630
H    -3.58318  -1.90611   0.51202
H    -2.28330   1.93210  -0.41645
H    -2.04866   1.07825  -1.94635
H    -3.69955   1.31622  -1.31104
H    -1.22956  -1.62085   0.70360
H    -0.08753   0.95152  -0.54798
H     1.17311  -1.46192   0.97606
H     4.39237  -0.70582   0.05940
H     3.44575  -1.49967   1.35299
H     4.14813   0.12733   1.59583
H     3.34415   1.31376  -1.19520
H     1.70901   1.87622  -0.75955
H     3.08657   2.14503   0.33966
