35
Generated by autodE on: 2022-07-27. E = -804.414832 Ha
C     3.16932  -2.26109   1.55085
C     2.24928  -1.10268   1.23772
O     2.56581  -0.27930   0.35110
N     1.12698  -1.09568   1.98515
N     0.24792  -0.08269   1.67449
C    -0.09735   0.73120   2.84529
C    -0.24812   0.12122   0.47462
C    -0.11048  -0.88565  -0.59757
C    -0.32912  -2.25209  -0.34647
C    -0.25320  -3.17435  -1.38870
C     0.06004  -2.74999  -2.68596
C     0.28065  -1.39361  -2.94050
C     0.18637  -0.46358  -1.90403
C    -0.98160   1.36401   0.15781
C    -0.40870   2.61953   0.42808
C    -1.08435   3.78769   0.07497
C    -2.33752   3.71459  -0.54206
C    -2.90832   2.46803  -0.82152
C    -2.22876   1.29661  -0.48820
H     3.14027  -2.96545   0.70216
H     2.87532  -2.79369   2.46458
H     4.20517  -1.89974   1.64052
H    -1.01365   1.30376   2.67397
H    -0.23598   0.03409   3.68102
H     0.73670   1.40602   3.08306
H    -0.56156  -2.58710   0.66411
H    -0.43985  -4.23184  -1.18872
H     0.12769  -3.47784  -3.49785
H     0.52414  -1.05659  -3.95046
H     0.35597   0.59598  -2.10212
H     0.57755   2.67436   0.89152
H    -0.62789   4.75896   0.27772
H    -2.86706   4.63078  -0.81328
H    -3.88483   2.40850  -1.30698
H    -2.66702   0.32304  -0.71502
