35
Generated by autodE on: 2022-06-25. E = -804.414829 Ha
C     3.90882   1.26730  -0.80995
C     2.70841   0.38068  -0.56673
O     2.09832  -0.11985  -1.53722
N     2.41111   0.23214   0.74013
N     1.28383  -0.52108   0.97947
C     1.54949  -1.65076   1.87713
C     0.09806  -0.25096   0.48155
C    -1.00352  -1.23205   0.56836
C    -0.82182  -2.55201   0.11854
C    -1.88513  -3.45442   0.14946
C    -3.13355  -3.05210   0.63526
C    -3.32251  -1.73761   1.07591
C    -2.26830  -0.82575   1.02937
C    -0.18900   1.04454  -0.16794
C     0.25031   2.25631   0.39500
C    -0.08417   3.46781  -0.20735
C    -0.84133   3.48588  -1.38529
C    -1.27902   2.28469  -1.94988
C    -0.96354   1.06971  -1.33960
H     4.57216   0.80032  -1.55389
H     4.46590   1.47964   0.11178
H     3.55378   2.21970  -1.23914
H     0.62360  -2.03520   2.31501
H     2.07027  -2.44510   1.32446
H     2.21415  -1.27530   2.66509
H     0.14679  -2.85878  -0.27927
H    -1.73973  -4.47455  -0.21250
H    -3.96364  -3.76176   0.66236
H    -4.29765  -1.41992   1.45140
H    -2.41609   0.20355   1.36109
H     0.85033   2.24566   1.30458
H     0.24778   4.40520   0.24456
H    -1.09245   4.43763  -1.85922
H    -1.87124   2.29230  -2.86753
H    -1.30658   0.13136  -1.77819
