58
Generated by autodE on: 2022-06-25. E = -1155.893894 Ha. Imaginary frequency = -331.2 cm-1
C     4.72336  -3.13886  -1.51875
C     3.58311  -2.42469  -1.63739
C     2.61742  -2.65635  -2.77070
C     3.25777  -1.40881  -0.63769
C     2.14433  -0.64031  -0.64615
C     1.81990   0.33568   0.38179
N     0.55963  -0.72536   1.70650
C     0.73540  -1.83299   2.43769
C     2.12630  -2.42395   2.39910
O    -0.17870  -2.40130   3.07441
N    -0.57509  -0.01183   1.77937
C    -0.87618   0.62375   3.07011
C    -1.02981   0.47982   0.58732
C    -1.14289  -0.46856  -0.56467
C    -1.04420  -1.86335  -0.39526
C    -1.16725  -2.72515  -1.48670
C    -1.40105  -2.21957  -2.76905
C    -1.55680  -0.84054  -2.94015
C    -1.44534   0.02170  -1.84873
C    -2.20084   1.42708   0.67431
C    -2.20535   2.72906   0.15960
C    -3.35936   3.51825   0.22610
C    -4.52692   3.01762   0.80406
C    -4.53824   1.71298   1.31001
C    -3.38970   0.92545   1.23977
C     1.00677   1.47164   0.11166
C     1.08073   2.57048   1.15102
C     0.93513   1.96570  -1.31818
H     4.99170  -3.91162  -2.24446
H     5.41495  -2.96569  -0.68860
H     2.46733  -1.73628  -3.35942
H     2.97779  -3.44489  -3.44620
H     1.62438  -2.94798  -2.39153
H     3.97979  -1.28560   0.17660
H     1.42372  -0.76087  -1.45607
H     2.53241   0.40815   1.20693
H     2.90365  -1.66707   2.23909
H     2.18791  -3.15906   1.58083
H     2.30877  -2.95318   3.34483
H    -1.61827   0.02432   3.61701
H     0.04944   0.66237   3.65756
H    -1.26144   1.63889   2.93394
H    -0.90460  -2.28524   0.59755
H    -1.08527  -3.80317  -1.32859
H    -1.48510  -2.89564  -3.62298
H    -1.77539  -0.43098  -3.92921
H    -1.59833   1.08976  -1.99639
H    -1.31236   3.14024  -0.30234
H    -3.33837   4.53226  -0.17989
H    -5.42589   3.63623   0.85557
H    -5.44752   1.30403   1.75692
H    -3.41068  -0.09687   1.62310
H     0.21297   3.24339   1.12687
H     1.97481   3.19628   0.96886
H     1.17328   2.16461   2.16782
H     0.13570   2.70278  -1.47004
H     0.79864   1.16133  -2.04959
H     1.88506   2.47242  -1.57127
