48
Generated by autodE on: 2022-06-01. E = -1185.620710 Ha
C     3.09667   3.54890  -0.11670
N     1.97642   2.66618   0.13580
C     2.14424   1.40885   0.55898
O     3.24193   0.92875   0.86883
C     0.85842   0.59959   0.75654
O    -0.28256   1.33463   0.34140
C    -1.03104   0.68133  -0.68151
C    -0.71061   1.29691  -2.04572
C    -2.53279   0.93137  -0.43221
O    -3.37189   0.49826  -1.23246
N    -2.83635   1.65594   0.64929
C    -4.20263   1.93185   1.04363
C    -0.66545  -0.85052  -0.51619
C    -0.82700  -1.64131  -1.81272
C    -1.58090  -1.38725   0.62291
C    -2.69014  -2.33946   0.28921
O    -1.41143  -0.98702   1.76323
C     0.81120  -0.79192   0.05802
C     1.07515  -1.97623   1.01668
C     2.06657  -1.79826   2.12510
O     0.50555  -3.03711   0.82872
C     1.84489  -0.90536  -1.10770
C     2.44309  -2.24521  -1.41653
O     2.15450   0.08251  -1.74351
H     3.65211   3.25064  -1.02200
H     3.79593   3.53250   0.73159
H     2.72567   4.57238  -0.25211
H     1.04007   2.92832  -0.15724
H     0.77181   0.45346   1.84235
H    -0.93288   2.37349  -1.99118
H    -1.33670   0.85738  -2.83117
H     0.34556   1.16632  -2.29852
H    -2.06783   1.88270   1.27321
H    -4.81155   2.15268   0.15630
H    -4.65622   1.07294   1.56668
H    -4.21864   2.80003   1.71480
H    -0.14833  -1.27707  -2.59409
H    -1.85032  -1.53643  -2.19324
H    -0.62197  -2.70593  -1.64743
H    -2.26446  -3.27889  -0.09420
H    -3.27726  -2.54026   1.19420
H    -3.33515  -1.92404  -0.49733
H     2.45058  -2.77825   2.43657
H     1.53543  -1.34556   2.98040
H     2.87216  -1.10813   1.84295
H     1.68272  -3.03426  -1.47490
H     3.12884  -2.52176  -0.59762
H     3.01092  -2.18003  -2.35283
