24
Generated by autodE on: 2022-07-27. E = -609.391517 Ha
C     3.35363   1.73299  -1.07664
N     2.22463   1.02726  -0.50374
C     2.39994  -0.15648   0.14460
O     3.52656  -0.68425   0.23781
C     1.27475  -0.75740   0.84749
O    -0.02199  -0.54748   0.68344
C    -0.75588  -0.21893  -0.34926
C    -0.22057  -0.19769  -1.72084
C    -2.19784  -0.09419  -0.06562
O    -3.00395   0.13577  -0.98435
N    -2.58704  -0.22934   1.22114
C    -3.98329  -0.15904   1.59552
H     3.91540   1.07332  -1.75414
H     4.05338   2.09807  -0.30456
H     2.98181   2.59230  -1.64913
H     1.36514   1.54629  -0.36241
H     1.49011  -1.31178   1.76058
H    -1.05238  -0.32200  -2.42497
H     0.32378   0.72470  -1.98680
H     0.50702  -1.02507  -1.83291
H    -1.88906  -0.42805   1.92914
H    -4.43023   0.79938   1.28662
H    -4.57136  -0.96741   1.12985
H    -4.06385  -0.24969   2.68556
