24
Generated by autodE on: 2022-06-01. E = -609.408695 Ha
C    -4.62296   0.56739  -0.34881
N    -3.50105  -0.27593   0.00127
C    -2.21991   0.15347  -0.13048
O    -1.94572   1.29121  -0.56388
C    -1.20348  -0.80185   0.26766
O     0.02904  -0.36645   0.13888
C     1.16540  -0.94203   0.40187
C     1.20465  -2.31333   0.93852
C     2.35112  -0.11951   0.11871
O     3.49714  -0.55461   0.33011
N     2.12285   1.11786  -0.37900
C     3.21166   2.01887  -0.68812
H    -5.55354   0.01837  -0.15946
H    -4.63538   1.49478   0.24766
H    -4.59641   0.85641  -1.41250
H    -3.67561  -1.20629   0.36556
H    -1.38752  -1.80517   0.65142
H     2.24214  -2.62729   1.09795
H     0.65087  -2.37522   1.89508
H     0.70986  -3.01963   0.24435
H     1.16448   1.41988  -0.52002
H     3.80200   2.26594   0.20984
H     3.89924   1.57959  -1.42899
H     2.79753   2.94674  -1.10110
