49
Generated by autodE on: 2022-06-03. E = -1390.008154 Ha
C     3.06841   3.00945  -1.73971
N     2.13281   2.20853  -0.97642
C     2.28100   0.89471  -0.79618
O     3.23954   0.21960  -1.18431
C     1.12280   0.19197  -0.06999
C     1.72639  -0.64942   1.07520
O     1.43975  -1.79660   1.33474
O     2.55081   0.09966   1.80090
C     3.07058  -0.48630   3.00666
N     0.13448   1.11046   0.46239
C    -1.15701   0.45993   0.60338
C    -2.31510   1.49931   0.47947
C    -1.93377   2.94354   0.38055
O    -3.46869   1.11888   0.47550
C    -1.27873  -0.11440   2.04351
O    -0.39484   0.02642   2.86398
O    -2.43450  -0.69750   2.30094
C    -2.60901  -1.24884   3.61832
C    -1.20090  -0.64009  -0.55104
C    -1.76486  -1.99125  -0.13782
C    -1.90777  -0.06197  -1.83942
C    -1.80805  -1.08131  -2.95983
C    -0.54531  -1.01232  -3.39485
C     0.11379   0.03440  -2.50861
O    -0.95514   0.93166  -2.24713
C     0.30533  -0.66451  -1.07694
C     0.88129  -1.98672  -1.28974
N     1.32620  -3.02207  -1.56671
H     4.08523   2.61878  -1.60222
H     2.83203   2.99085  -2.81682
H     3.03173   4.04928  -1.38970
H     1.24051   2.60133  -0.68184
H     3.71592   0.27575   3.45736
H     3.65010  -1.38986   2.77153
H     2.24310  -0.73985   3.68392
H     0.44230   1.53287   1.33810
H    -2.84169   3.55961   0.36769
H    -1.34870   3.10080  -0.53789
H    -1.28753   3.23130   1.22439
H    -2.51980  -0.45772   4.37562
H    -3.61564  -1.68071   3.63007
H    -1.85441  -2.02628   3.80293
H    -1.69868  -2.69571  -0.97763
H    -2.81961  -1.88907   0.14673
H    -1.21190  -2.42207   0.70695
H    -2.89480   0.36836  -1.66441
H    -2.60605  -1.75520  -3.26854
H    -0.03474  -1.61740  -4.14232
H     1.00142   0.54224  -2.89461
