17
Generated by autodE on: 2022-06-03. E = -439.145383 Ha
C    -2.27527  -0.69173  -0.62318
C    -0.94346  -0.41469  -0.04614
C    -0.18855   0.70618  -0.02592
C    -0.48240   1.97213  -0.56668
N    -0.71348   3.02867  -1.00587
C     1.15846   0.27653   0.63193
C     1.85743  -0.66925  -0.36735
C     1.10359  -1.77277  -0.38089
C    -0.03692  -1.48217   0.61728
O     0.65215  -0.66979   1.58388
H    -2.95376  -1.09430   0.14786
H    -2.72648   0.20430  -1.07153
H    -2.18610  -1.47435  -1.39759
H     1.75273   1.06921   1.09675
H     2.73738  -0.41656  -0.95771
H     1.19039  -2.67335  -0.98735
H    -0.54950  -2.33563   1.07357
