32
Generated by autodE on: 2022-06-03. E = -950.811974 Ha
C     1.74189   3.70686  -0.53925
N     1.81145   2.26305  -0.63092
C     0.87295   1.48582  -0.06390
O    -0.13784   1.95220   0.48792
C     1.11197   0.02057  -0.07996
N     0.12943  -0.82732   0.24644
C    -1.19647  -0.73387   0.31832
C    -1.83479  -1.94610   0.86607
C    -3.33165  -2.03736   0.91334
O    -1.11186  -2.86517   1.25999
C    -1.92251   0.35930  -0.37522
O    -1.66041   0.70651  -1.51132
O    -2.93903   0.83714   0.33634
C    -3.74421   1.84530  -0.29463
C     2.44964  -0.56801  -0.22496
O     3.45063   0.04995  -0.56293
O     2.46249  -1.88190   0.03799
C     3.72230  -2.56033  -0.07104
H     1.90389   4.06291   0.49242
H     0.75572   4.06540  -0.86815
H     2.51306   4.14152  -1.18691
H     2.67739   1.80777  -0.91713
H     0.44326  -1.77532   0.52419
H    -3.77460  -1.80142  -0.06651
H    -3.72655  -1.30180   1.63097
H    -3.62064  -3.04922   1.22417
H    -3.12914   2.72641  -0.52603
H    -4.19366   1.45563  -1.21908
H    -4.52493   2.10373   0.42940
H     3.51836  -3.61029   0.16684
H     4.11668  -2.46954  -1.09307
H     4.44622  -2.14095   0.64215
