32
Generated by autodE on: 2022-07-27. E = -950.808275 Ha
C     3.90989   2.46214  -1.49169
N     3.02666   1.47937  -0.89901
C     1.69144   1.54345  -0.97694
O     1.07455   2.45768  -1.56090
C     0.88152   0.46579  -0.33303
N    -0.42827   0.70733  -0.50291
C    -1.55878   0.16454  -0.06545
C    -2.84182   0.68317  -0.56310
C    -2.82594   1.70745  -1.67198
O    -3.89620   0.28413  -0.07179
C    -1.55344  -0.77736   1.09164
O    -0.98890  -0.51974   2.13670
O    -2.27928  -1.86739   0.87940
C    -2.36002  -2.80359   1.96614
C     1.34379  -0.82591   0.16876
O     0.63694  -1.81910   0.25212
O     2.64508  -0.83810   0.49548
C     3.20375  -2.10053   0.89311
H     4.53059   2.94471  -0.72046
H     3.31265   3.22905  -1.99708
H     4.57979   1.99076  -2.22780
H     3.42587   0.69410  -0.39147
H    -0.50770   1.55228  -1.10686
H    -2.32886   1.31122  -2.57144
H    -2.28485   2.61832  -1.36495
H    -3.86112   1.97722  -1.91414
H    -2.99239  -3.62448   1.60979
H    -1.35649  -3.17488   2.21838
H    -2.81101  -2.32928   2.84941
H     3.10791  -2.83480   0.08077
H     4.26003  -1.90430   1.10799
H     2.69286  -2.47484   1.79114
