42
Generated by autodE on: 2022-06-19. E = -1011.789792 Ha
C    -1.24081   2.56498   2.87928
N    -0.78217   1.59447   1.90901
C    -1.50178   1.18499   0.85772
O    -2.63794   1.58277   0.58022
C    -0.79142   0.17459  -0.06982
C    -1.80460  -0.92752  -0.45730
O    -1.85096  -1.46709  -1.54237
O    -2.56951  -1.28430   0.56930
C    -3.47729  -2.37714   0.35867
C    -0.23322   0.86034  -1.35656
C    -0.89122   2.16399  -1.78524
C     1.27524   0.98089  -1.09938
C     2.12954   1.16796  -2.34247
C     1.56283  -0.31271  -0.28208
C     1.69207  -1.48942  -1.17888
N     1.70527  -2.44029  -1.84358
C     2.89159  -0.14069   0.49307
C     2.85935   0.65857   1.76041
O     3.91045  -0.61001   0.02530
N     0.39744  -0.42027   0.57135
C     0.25888  -1.62896   1.37088
H    -0.52554   3.39713   2.96522
H    -2.21082   2.96146   2.55508
H    -1.36010   2.10632   3.87374
H     0.13026   1.15651   2.01181
H    -4.00599  -2.51638   1.30823
H    -4.18807  -2.13177  -0.44296
H    -2.92102  -3.28724   0.09252
H    -0.36933   0.12425  -2.16182
H    -0.45511   2.50156  -2.73699
H    -0.74048   2.96084  -1.04077
H    -1.97179   2.03293  -1.93275
H     1.44642   1.81791  -0.40545
H     1.90997   2.13936  -2.80842
H     3.20148   1.14892  -2.09454
H     1.93216   0.38066  -3.08651
H     2.31554   0.10215   2.53998
H     3.88725   0.84541   2.09556
H     2.33015   1.61167   1.61387
H     1.21576  -1.85156   1.86392
H    -0.02631  -2.51571   0.77376
H    -0.49712  -1.47461   2.15094
