12
Generated by autodE on: 2022-06-19. E = -157.300301 Ha
C     1.96333   0.03728   0.04123
C     0.52837   0.20424  -0.35753
C    -0.52836  -0.20431   0.35749
C    -1.96333  -0.03723  -0.04119
H     2.06084  -0.47835   1.00957
H     2.52425  -0.54134  -0.71413
H     2.47320   1.01402   0.11978
H     0.34725   0.70704  -1.31792
H    -0.34725  -0.70713   1.31787
H    -2.52398   0.54211   0.71382
H    -2.47350  -1.01387  -0.11898
H    -2.06083   0.47776  -1.00988
