30
Generated by autodE on: 2022-07-27. E = -854.413507 Ha
C    -2.83258   3.22485   1.28220
N    -1.82172   2.35846   0.70239
C    -1.84680   1.03347   0.89109
O    -2.73439   0.43344   1.50118
C    -0.73223   0.24024   0.25524
C    -1.22819  -0.76645  -0.73135
O    -2.17561  -0.53303  -1.45345
O    -0.59253  -1.92798  -0.66462
C    -0.98370  -2.93760  -1.61212
N     0.53138   0.38275   0.61073
C     0.85038   1.20005   1.80703
C     1.60477  -0.09506  -0.14270
C     1.40007  -0.21916  -1.53424
N     1.24658  -0.29436  -2.69020
C     2.88656  -0.51525   0.41566
C     3.91865  -0.97172  -0.59233
O     3.14721  -0.53979   1.62298
H    -2.69096   4.24097   0.89601
H    -3.83982   2.87403   1.01333
H    -2.75707   3.24431   2.38143
H    -1.03977   2.77345   0.20369
H    -0.83438  -2.56665  -2.63551
H    -0.33260  -3.79650  -1.41678
H    -2.03745  -3.21095  -1.46266
H    -0.00236   1.19842   2.49160
H     1.09915   2.21885   1.48264
H     1.71475   0.73940   2.29011
H     3.57242  -1.87401  -1.12116
H     4.85219  -1.19870  -0.06223
H     4.10286  -0.19677  -1.35259
