42
Generated by autodE on: 2022-06-19. E = -1011.696286 Ha. Imaginary frequency = -278.9 cm-1
C    -2.78737   2.66298   2.38816
N    -1.69176   1.85132   1.88967
C    -1.90477   0.91338   0.95324
O    -3.04334   0.64317   0.54463
C    -0.74129   0.19772   0.30155
C    -1.35670  -0.80929  -0.67854
O    -1.68155  -0.61137  -1.82467
O    -1.54845  -1.95992  -0.03403
C    -2.12602  -3.03428  -0.79288
C     0.09038   1.67224  -1.16918
C     0.30425   2.89696  -0.31350
C     1.20421   1.02182  -1.68519
C     1.22574   0.20144  -2.93023
C     1.46140  -0.70850   0.23393
C     1.24800  -1.80283  -0.63727
N     1.14079  -2.71203  -1.36309
C     2.84395  -0.31009   0.50770
C     3.92343  -1.04320  -0.25378
O     3.12704   0.61780   1.27034
N     0.40184  -0.15419   0.95300
C     0.63447   0.18230   2.37332
H    -3.21431   3.29300   1.59021
H    -3.58982   2.02572   2.78680
H    -2.40940   3.30775   3.19074
H    -0.74829   2.15492   2.09585
H    -1.46154  -3.29833  -1.62780
H    -2.21944  -3.87634  -0.09806
H    -3.11270  -2.74028  -1.17732
H    -0.83703   1.61308  -1.74491
H     0.76044   3.69866  -0.91909
H    -0.63254   3.29607   0.09463
H     0.99775   2.68790   0.51700
H     2.17935   1.35935  -1.32160
H     2.01040  -0.56876  -2.90434
H     0.25970  -0.27639  -3.13511
H     1.46528   0.86263  -3.78445
H     4.89821  -0.61559   0.01255
H     3.91197  -2.11856  -0.01734
H     3.76715  -0.94632  -1.33988
H     0.98202   1.21238   2.51406
H     1.40131  -0.49291   2.76150
H    -0.29271   0.00808   2.92876
