30
Generated by autodE on: 2022-10-21. E = -896.338501 Ha
C    -2.81071   2.59215  -0.53406
O    -2.73907   1.16449  -0.58864
C    -1.57575   0.59804  -0.22203
C    -0.41061   1.04541   0.26939
F    -0.00753   2.29417   0.43339
N     0.48455   0.03105   0.64212
C     1.86322   0.18685   0.26656
C     2.44414  -0.56737  -0.76017
C     3.79398  -0.38255  -1.07086
C     4.56121   0.55788  -0.37725
C     3.97318   1.30839   0.64656
C     2.63222   1.11514   0.98187
N    -0.12614  -1.19158   0.17871
C     0.14564  -2.31866   1.05933
C    -1.53599  -0.91469  -0.12451
C    -2.48500  -1.34948   0.94909
N    -3.19370  -1.65855   1.81265
C    -1.93458  -1.58531  -1.38798
N    -2.21402  -2.09391  -2.39099
H    -3.81464   2.86293  -0.88273
H    -2.05426   3.04583  -1.19341
H    -2.66820   2.94879   0.49825
H     1.84238  -1.29390  -1.30423
H     4.24553  -0.97699  -1.86871
H     5.61499   0.69966  -0.62706
H     4.56563   2.03922   1.20181
H     2.17610   1.67648   1.79841
H    -0.22348  -2.15813   2.08722
H    -0.33133  -3.21169   0.63140
H     1.22978  -2.49160   1.08745
