22
Generated by autodE on: 2022-10-26. E = -605.061414 Ha
C    -1.47624  -2.71187   0.38829
N    -0.77957  -1.42884   0.13883
N     0.48960  -1.49353   0.21299
C     1.25905  -0.31286   0.19581
C     2.27505  -0.19174  -0.76347
C     3.10019   0.93297  -0.75485
C     2.94356   1.91615   0.22796
C     1.95649   1.76959   1.20886
C     1.10953   0.66294   1.19810
C    -1.57901  -0.34880  -0.17476
C    -1.09091   0.86080  -0.72100
N    -0.81053   1.88492  -1.20534
C    -2.98130  -0.47590  -0.05722
N    -4.14329  -0.54132   0.03228
H    -2.11768  -2.59900   1.27146
H    -2.08310  -2.97048  -0.48799
H    -0.70455  -3.46351   0.57025
H     2.39288  -0.97176  -1.51751
H     3.87573   1.03794  -1.51680
H     3.59673   2.79136   0.23583
H     1.84094   2.52594   1.98834
H     0.33444   0.54979   1.95838
