48
Generated by autodE on: 2022-06-22. E = -1239.777810 Ha
C    -0.21114   4.59836   1.92046
O     0.28907   3.69098   0.92511
C    -0.51015   2.68545   0.56556
O    -1.62813   2.52076   1.01372
C     0.16280   1.76642  -0.45060
C     1.10043   0.76229   0.23971
C     2.19233   0.28206  -0.72647
C     2.68969  -1.09474  -0.37738
C     3.96318  -1.62207  -0.88331
N     4.66136  -0.81653  -1.72636
O     4.41278  -2.74528  -0.57422
C     1.92174  -1.92776   0.38470
N     0.69454  -1.63702   0.87918
C     0.02425  -2.53075   1.80982
C     0.10264  -0.32625   0.68286
C    -1.08691  -0.26470  -0.35868
C    -1.14475  -1.57392  -1.19134
C    -0.27410  -1.69956  -2.40212
O    -1.88299  -2.47073  -0.82025
C    -2.47480  -0.14758   0.31674
O    -3.48709   0.08401  -0.31218
O    -2.46652  -0.33098   1.63486
C    -3.71518  -0.16127   2.32162
N    -0.75743   0.90543  -1.15609
C    -1.70865   1.51413  -2.06093
H    -1.12515   5.09326   1.56218
H    -0.42820   4.06018   2.85439
H     0.58192   5.33713   2.08288
H     0.71661   2.40533  -1.15567
H     1.57159   1.19222   1.13355
H     3.01422   1.01495  -0.69408
H     1.79981   0.30500  -1.75779
H     5.51712  -1.17591  -2.13474
H     4.29036   0.05732  -2.07725
H     2.29481  -2.92503   0.62685
H     0.53601  -3.50164   1.81660
H     0.03278  -2.11690   2.83336
H    -1.02195  -2.68626   1.51135
H    -0.31625  -0.01826   1.64632
H    -0.43989  -0.85782  -3.08887
H    -0.48390  -2.65386  -2.90177
H     0.78504  -1.66798  -2.10228
H    -4.07286   0.87124   2.19996
H    -4.46743  -0.86106   1.93129
H    -3.50952  -0.37108   3.37739
H    -2.47311   2.13563  -1.56001
H    -2.23213   0.73813  -2.63667
H    -1.15877   2.15367  -2.77016
