20
Generated by autodE on: 2022-06-22. E = -457.715336 Ha
C    -3.07783  -0.78643   0.02316
N    -1.82447  -0.06028   0.14528
C    -1.84580   1.32820   0.32795
C    -0.72919   2.07292   0.35409
C     0.65365   1.49225   0.18832
C     0.57560  -0.00961  -0.03219
C     1.78962  -0.81611  -0.23648
N     2.96491  -0.13859  -0.21383
O     1.77352  -2.04996  -0.42305
C    -0.61879  -0.66600  -0.04433
H    -2.87476  -1.86474   0.02375
H    -3.74111  -0.55566   0.87086
H    -3.60646  -0.52855  -0.91039
H    -2.84094   1.75954   0.45102
H    -0.82663   3.14999   0.50836
H     1.17624   1.98949  -0.65430
H     1.27531   1.73064   1.07594
H     3.01822   0.85990  -0.05782
H     3.82652  -0.65607  -0.34838
H    -0.64618  -1.74436  -0.20882
