48
Generated by autodE on: 2022-06-22. E = -1239.721278 Ha. Imaginary frequency = -371.5 cm-1
C    -1.36879   3.95688   2.10982
O    -0.71690   3.28004   1.02429
C    -0.63672   1.95129   1.11612
O    -1.00290   1.31854   2.08471
C     0.06063   1.39751  -0.10073
C     1.85740   1.02327   0.75860
C     2.83069   0.84056  -0.39321
C     2.88282  -0.60577  -0.82852
C     3.46488  -1.01833  -2.13556
N     4.04635  -0.04096  -2.86173
O     3.41523  -2.18986  -2.54012
C     2.41324  -1.58326  -0.02872
N     1.84580  -1.32664   1.22152
C     1.44779  -2.46960   2.04480
C     1.61074  -0.07059   1.60266
C    -1.59801  -0.40005  -0.32482
C    -1.40611  -1.81317  -0.28715
C    -2.51728  -2.74915   0.16008
O    -0.31508  -2.34408  -0.61848
C    -2.79793   0.34445  -0.05048
O    -2.91956   1.56597  -0.21582
O    -3.83751  -0.37596   0.44657
C    -5.03156   0.34748   0.73750
N    -0.52222   0.40939  -0.81975
C    -0.00883   0.14021  -2.15669
H    -2.41637   3.62990   2.17871
H    -0.85377   3.74991   3.05869
H    -1.31863   5.02571   1.87321
H     0.51109   2.18022  -0.71782
H     1.91713   1.98522   1.27381
H     3.84078   1.18185  -0.09571
H     2.53827   1.48999  -1.23559
H     4.12707   0.91380  -2.53446
H     4.46381  -0.28217  -3.75483
H     2.45659  -2.63135  -0.31655
H     2.32964  -3.08390   2.27632
H     1.00118  -2.10538   2.97666
H     0.71583  -3.07233   1.49263
H     1.13461   0.05924   2.57416
H    -2.14705  -3.77867   0.05858
H    -2.79857  -2.56427   1.20726
H    -3.42889  -2.62674  -0.44108
H    -4.85349   1.11460   1.50658
H    -5.43478   0.83433  -0.16335
H    -5.75028  -0.39256   1.11191
H     0.50815   1.02858  -2.54551
H    -0.84787  -0.11105  -2.82065
H     0.69534  -0.70483  -2.15213
