24
Generated by autodE on: 2022-07-27. E = -518.092676 Ha
C    -3.40126   1.23040  -0.84747
C    -2.13396   0.58122  -0.32845
O    -2.21415  -0.46249   0.35403
C    -0.91186   1.25640  -0.62759
N     0.32169   0.82335  -0.22415
C     1.27975   1.89931   0.10026
C     0.68606  -0.47097  -0.21770
C    -0.01973  -1.44559  -1.08641
C     1.80913  -0.98568   0.60226
C     2.27255  -0.27782   1.85671
O     2.31134  -2.07206   0.30887
H    -4.13588   1.30612  -0.03045
H    -3.84087   0.57573  -1.61915
H    -3.23294   2.22323  -1.28681
H    -0.94334   2.27151  -1.01948
H     1.11102   2.26680   1.12014
H     2.30736   1.54891  -0.02620
H     1.10086   2.72291  -0.60247
H    -0.41893  -0.93040  -1.97660
H     0.68348  -2.23690  -1.37525
H    -0.88793  -1.90312  -0.58110
H     3.15688   0.34193   1.64064
H     2.58095  -1.05219   2.57287
H     1.50311   0.35855   2.31098
