36
Generated by autodE on: 2022-06-29. E = -1233.993499 Ha
C     2.42941  -4.17832  -1.10179
N     2.00101  -2.79413  -1.03936
C     2.86239  -1.77953  -1.20781
O     4.06339  -1.95580  -1.43995
C     2.30604  -0.35209  -1.07220
C     2.69601   0.45114  -2.32754
C     0.86344  -0.28191  -0.85511
C    -0.21639   0.06790  -0.43371
C    -1.15919   0.74245   0.45540
C    -2.22136   1.50440  -0.37359
F    -1.62273   2.31690  -1.25609
F    -3.01053   2.26169   0.39972
F    -3.01122   0.67445  -1.06980
C    -1.85068  -0.30336   1.36465
F    -2.77615   0.26063   2.15360
F    -0.95851  -0.90761   2.16164
F    -2.45659  -1.26376   0.65225
C    -0.34343   1.77460   1.31170
C     1.07074   1.35444   1.75954
C     2.24795   1.54912   0.76121
C     2.93337   0.27672   0.22384
H     1.55011  -4.82728  -1.01049
H     3.13335  -4.41857  -0.28868
H     2.93113  -4.39197  -2.05809
H     1.02931  -2.58536  -0.83273
H     3.78382   0.39518  -2.47014
H     2.20006   0.04341  -3.22082
H     2.40298   1.50443  -2.21514
H    -0.26397   2.69389   0.71430
H    -0.95389   2.02437   2.19165
H     1.05936   0.31892   2.12802
H     1.28121   1.97544   2.64358
H     1.93397   2.19286  -0.07684
H     3.03049   2.11850   1.28571
H     2.92905  -0.49084   1.01475
H     3.98799   0.48459  -0.01101
