29
Generated by autodE on: 2022-06-16. E = -592.702757 Ha
C    -2.80195   1.12668   0.73219
C    -1.44396   0.63365   0.37415
N    -0.42813   1.41996   0.34403
C     0.75582   0.61868  -0.04870
C     1.92572   1.05386   0.73664
N     2.83739   1.41000   1.35714
C     1.07710   0.91968  -1.45964
N     1.31792   1.17919  -2.56357
C     0.37183  -0.90627   0.18934
C     1.09611  -1.86438  -0.75231
C     0.72387  -1.27705   1.63752
C    -1.18952  -0.81661  -0.01341
C    -1.98737  -1.81286   0.83654
C    -1.61844  -0.99394  -1.48690
H    -2.80841   2.21742   0.85294
H    -3.52930   0.83534  -0.04185
H    -3.13119   0.65650   1.67288
H     2.17976  -1.83541  -0.55999
H     0.74909  -2.89246  -0.56873
H     0.93375  -1.63458  -1.81285
H     0.38923  -2.30021   1.85129
H     0.25720  -0.60110   2.36885
H     1.81241  -1.25126   1.78674
H    -1.65731  -2.84056   0.62111
H    -3.05637  -1.74830   0.58565
H    -1.88158  -1.63270   1.91437
H    -2.69078  -0.77180  -1.59005
H    -1.45913  -2.03463  -1.80413
H    -1.07142  -0.33466  -2.17446
