11
Generated by autodE on: 2022-06-16. E = -356.653537 Ha
C     3.39928   0.12699   0.16146
C     1.96247   0.06653   0.09284
N     0.80521   0.02637   0.03781
C    -0.55232  -0.02132  -0.02648
C    -1.19537  -1.27380   0.01722
N    -1.74037  -2.30809   0.05275
C    -1.27448   1.18335  -0.13355
N    -1.88375   2.17776  -0.22276
H     3.70581   1.15587  -0.08918
H     3.75094  -0.12223   1.17453
H     3.83704  -0.56316  -0.57684
