18
Generated by autodE on: 2022-06-16. E = -235.968069 Ha
C     1.52619   1.17073   0.43130
C     0.67657  -0.00959   0.02535
C     1.52065  -1.21291  -0.32012
C    -0.67659   0.00956  -0.02532
C    -1.52622  -1.17078  -0.43113
C    -1.52061   1.21298   0.31993
H     0.95578   2.06627   0.70515
H     2.21575   1.44672  -0.38680
H     2.16758   0.90395   1.29037
H     2.15719  -1.49389   0.53806
H     0.94636  -2.09926  -0.61496
H     2.21477  -0.97066  -1.14500
H    -2.21634  -1.44610   0.38672
H    -0.95584  -2.06663  -0.70404
H    -2.16701  -0.90440  -1.29077
H    -0.94624   2.09942   0.61432
H    -2.15727   1.49367  -0.53826
H    -2.21462   0.97105   1.14500
