29
Generated by autodE on: 2022-06-16. E = -592.611342 Ha. Imaginary frequency = -377.5 cm-1
C    -2.90405   1.23287   0.19252
C    -1.47976   0.89949   0.08263
N    -0.41950   1.47052   0.05821
C     0.92789   1.26997   0.00433
C     1.67387   1.27391   1.20114
N     2.28823   1.24735   2.19571
C     1.58581   1.36427  -1.23941
N     2.12407   1.40330  -2.27667
C     0.18088  -1.46825  -0.00423
C     0.97799  -1.71266  -1.25322
C     0.86983  -1.75824   1.29767
C    -1.20292  -1.30780  -0.05569
C    -2.02579  -1.65810   1.17373
C    -1.90839  -1.50833  -1.38610
H    -3.05964   2.29485  -0.04740
H    -3.50907   0.60166  -0.47035
H    -3.22499   1.04358   1.22866
H     2.05090  -1.53690  -1.09371
H     0.85843  -2.76994  -1.56222
H     0.65083  -1.10053  -2.10443
H     0.71624  -2.82119   1.56876
H     0.47605  -1.16213   2.13277
H     1.95338  -1.58954   1.23320
H    -1.98832  -2.74798   1.35248
H    -3.08245  -1.38865   1.04045
H    -1.66049  -1.16788   2.08713
H    -2.97705  -1.26110  -1.31753
H    -1.84094  -2.56657  -1.69667
H    -1.47010  -0.90545  -2.19431
