35
Generated by autodE on: 2022-05-29. E = -1338.260796 Ha
C    -3.25610   0.36988  -1.48165
C    -1.78656   0.10232  -1.33954
O    -1.08129  -0.13882  -2.30289
C    -1.16030  -0.00022   0.08323
C    -1.91505   0.88094   1.09343
C    -2.27044   0.33072   2.43779
O    -2.14985   2.03037   0.76161
N    -1.06592  -1.41934   0.43349
C    -2.24328  -2.26067   0.26667
C     0.11327  -1.97123  -0.21844
C     1.16902  -0.86666  -0.17084
Cl    2.19328  -0.90452  -1.65012
C     2.06538  -0.89560   1.11355
C     3.06820   0.24301   1.01456
C     2.36067   1.35407   1.24883
C     0.93774   0.87770   1.49283
O     1.13624  -0.40184   2.08300
C     0.34475   0.46572   0.06369
C     0.56778   1.55092  -0.87878
N     0.76007   2.46642  -1.56488
H    -3.60535  -0.02403  -2.44511
H    -3.84470  -0.04785  -0.65337
H    -3.40476   1.46181  -1.46445
H    -3.08752  -0.40106   2.32888
H    -2.59996   1.14649   3.09374
H    -1.41946  -0.21052   2.87377
H    -2.05201  -3.23086   0.74918
H    -2.49040  -2.46056  -0.79528
H    -3.12007  -1.81224   0.75063
H    -0.08478  -2.24274  -1.27144
H     0.45149  -2.87893   0.30457
H     2.43098  -1.89549   1.36883
H     4.11287   0.14113   0.72557
H     2.67107   2.39645   1.19579
H     0.29075   1.52072   2.09504
