14
Generated by autodE on: 2022-05-29. E = -859.428378 Ha
N     3.19245   0.31604  -0.68861
C     2.04554   0.13077  -0.58894
C     0.66391  -0.10900  -0.48623
C    -0.27606   0.57855   0.19358
Cl   -0.11588   1.96687   1.16708
C    -1.58894  -0.22178   0.02204
C    -1.41088  -1.52418   0.83254
C    -0.49614  -2.22335   0.15539
C    -0.12452  -1.33541  -1.05067
O    -1.38508  -0.70067  -1.31415
H    -2.51820   0.34397   0.14000
H    -1.90728  -1.74265   1.77680
H    -0.03471  -3.18195   0.38844
H     0.30393  -1.81315  -1.93659
