23
Generated by autodE on: 2022-06-06. E = -3112.268665 Ha
Br   -0.79125  -2.13115   0.04648
C    -1.01628  -0.29124  -0.23919
C    -0.12504   0.71933  -0.28013
C     1.32610   0.79463  -0.16511
C     2.16331  -0.30094  -0.46585
C     3.54686  -0.19778  -0.32944
C     4.12876   0.99624   0.11209
C     3.31250   2.09225   0.40747
C     1.92771   1.99684   0.26408
C    -1.05292   1.97594  -0.31560
C    -1.72030   2.09160   1.07170
C    -2.58044   1.07037   1.12297
C    -2.41974   0.35618  -0.23989
O    -2.15179   1.47409  -1.09727
H     1.72779  -1.23397  -0.82268
H     4.17721  -1.05624  -0.57334
H     5.21315   1.07269   0.22003
H     3.75616   3.02997   0.75017
H     1.30541   2.86150   0.50201
H    -0.62027   2.88187  -0.75148
H    -1.46199   2.82816   1.83154
H    -3.22414   0.73419   1.93493
H    -3.24900  -0.26379  -0.59668
