28
Generated by autodE on: 2022-06-06. E = -761.863106 Ha
C     3.53048  -1.88189   0.34053
N     2.21455  -1.39404  -0.02101
C     1.68906  -0.33142   0.59732
O     2.25840   0.31880   1.47709
C     0.30074   0.09207   0.13486
O    -0.53623  -0.70454  -0.41130
N    -0.27168  -2.05043  -0.72418
C    -1.44299  -2.59696  -1.14231
C    -1.26903  -4.03800  -1.56189
O    -2.54650  -2.03404  -1.18870
C    -0.20311   1.44109   0.32881
C     0.65491   2.53404   0.58971
C     0.12545   3.81445   0.72512
C    -1.25261   4.02522   0.61365
C    -2.11149   2.94879   0.35026
C    -1.59604   1.66872   0.20091
H     4.27020  -1.06983   0.28375
H     3.81590  -2.68042  -0.35425
H     3.54260  -2.27916   1.36908
H     1.56043  -1.97001  -0.56673
H    -1.95737  -4.66436  -0.97328
H    -1.55786  -4.13467  -2.62057
H    -0.24087  -4.39978  -1.43074
H     1.72723   2.37596   0.67338
H     0.79415   4.65550   0.91814
H    -1.66108   5.03165   0.72961
H    -3.18706   3.11425   0.26276
H    -2.25689   0.82747  -0.00967
