48
Generated by autodE on: 2022-05-31. E = -1132.148901 Ha
C    -4.04005   0.22308   0.65163
C    -2.74346  -0.30350   1.18698
O    -2.63911  -0.88099   2.25851
C    -1.54203  -0.23836   0.28891
C    -0.70025   0.80671   0.16097
C    -0.90677   2.05396   0.94717
C     0.13299   3.13634   0.96949
O    -1.92634   2.15338   1.62573
C     0.44001   0.46523  -0.80101
C     0.34997   1.46530  -2.00183
C    -0.64663   1.14683  -3.07875
O     1.03048   2.47438  -2.03868
C     1.82175   0.49200  -0.13401
C     2.99039   0.58782  -0.90489
C     4.25102   0.52147  -0.30631
C     4.36608   0.35730   1.07712
C     3.20902   0.24808   1.85333
C     1.95024   0.30805   1.25007
N     0.04225  -0.86941  -1.25084
C     0.98751  -1.72086  -1.92757
C    -1.07958  -1.43472  -0.51695
C    -2.17156  -1.96025  -1.46622
C    -0.62241  -2.53648   0.50719
C    -1.56696  -3.64890   0.86088
O     0.50114  -2.47998   0.96861
H    -4.43987  -0.53154  -0.04840
H    -4.75818   0.36301   1.47117
H    -3.89447   1.15508   0.08995
H    -0.33875   4.08310   1.26473
H     0.87791   2.86838   1.73794
H     0.66833   3.23953   0.01939
H    -1.62182   0.88329  -2.64500
H    -0.74493   2.01198  -3.74712
H    -0.30555   0.27199  -3.65347
H     2.92350   0.71515  -1.98572
H     5.14748   0.59839  -0.92629
H     5.35154   0.31063   1.54665
H     3.28339   0.11169   2.93486
H     1.05946   0.20006   1.87031
H     1.44189  -1.18776  -2.77858
H     1.80693  -2.08949  -1.28239
H     0.46121  -2.59626  -2.33668
H    -2.49590  -1.14864  -2.13047
H    -3.04715  -2.33425  -0.91990
H    -1.77572  -2.78098  -2.08156
H    -1.69544  -4.30427  -0.01626
H    -1.14799  -4.23233   1.69091
H    -2.56149  -3.26498   1.12722
