14
Generated by autodE on: 2022-05-31. E = -382.806822 Ha
C    -2.83620   1.02440   0.24376
C    -1.99380   0.06819  -0.54432
O    -2.41296  -0.62244  -1.45967
C    -0.58889  -0.01234  -0.16185
C     0.58440  -0.08367   0.15525
C     1.98800  -0.17669   0.54035
C     2.93142   0.73618  -0.18201
O     2.32636  -0.96771   1.40657
H    -2.42127   2.04196   0.15489
H    -2.80226   0.75349   1.31184
H    -3.87036   1.00029  -0.12426
H     2.88397   0.53360  -1.26471
H     3.95340   0.58599   0.19016
H     2.61934   1.78325  -0.03494
