69
Generated by autodE on: 2022-06-30. E = -1517.214110 Ha. Imaginary frequency = -350.3 cm-1
C     3.76673  -1.38337 -12.77885
C     3.01711  -2.44878 -12.01754
C     1.64577  -2.83998 -12.40292
C     1.12798  -2.46062 -13.65451
C    -0.14433  -2.87935 -14.05187
C    -0.92581  -3.67043 -13.20687
C    -0.42294  -4.04235 -11.95301
C     0.84689  -3.63448 -11.55455
N     3.29468  -2.48540 -10.70669
N     3.83147  -3.02912  -9.83977
C     4.72141  -4.70150 -11.07270
C     4.26548  -4.48902 -12.20684
C     4.17999  -5.04120 -13.59164
C     2.79952  -5.49956 -13.84592
N     1.76068  -5.97203 -14.05410
C     4.62930  -4.01938 -14.64303
C     5.87451  -3.39818 -14.46801
C     6.32622  -2.44906 -15.38448
C     5.53598  -2.10544 -16.48786
C     4.29899  -2.72715 -16.67011
C     3.84872  -3.68401 -15.75313
C     5.07729  -6.32766 -13.68165
C     4.80038  -7.36676 -12.57849
C     5.93857  -7.57532 -11.56655
C     6.54340  -6.34469 -10.88218
C     5.57323  -5.40524 -10.08226
C     6.43577  -4.34310  -9.36008
C     7.21322  -3.47182 -10.14361
C     8.00717  -2.48617  -9.55613
C     8.03651  -2.34345  -8.16424
C     7.25832  -3.19336  -7.37670
C     6.46398  -4.18266  -7.96966
C     4.72327  -6.24354  -9.12054
C     3.32313  -6.19677  -9.13479
C     2.56687  -6.99190  -8.26625
C     3.20013  -7.85461  -7.36981
C     4.59804  -7.91896  -7.35333
C     5.34885  -7.12449  -8.22139
H     3.81790  -1.65039 -13.83942
H     3.26297  -0.40504 -12.69901
H     4.79236  -1.28942 -12.39844
H     1.72197  -1.84606 -14.33064
H    -0.52546  -2.58061 -15.03132
H    -1.92089  -3.99523 -13.51922
H    -1.02575  -4.65906 -11.28216
H     1.22581  -3.93936 -10.57692
H     6.48187  -3.64291 -13.59395
H     7.29470  -1.96719 -15.23178
H     5.88509  -1.35556 -17.20146
H     3.67434  -2.46728 -17.52790
H     2.87583  -4.15487 -15.90207
H     4.92756  -6.75726 -14.68358
H     6.11895  -5.98071 -13.64062
H     3.87712  -7.10394 -12.03984
H     4.59612  -8.34129 -13.04885
H     6.77324  -8.08260 -12.08114
H     5.58582  -8.28276 -10.79898
H     7.06053  -5.72203 -11.62610
H     7.32281  -6.69085 -10.18582
H     7.18373  -3.55281 -11.23218
H     8.60115  -1.82245 -10.18932
H     8.65524  -1.57144  -7.70059
H     7.25986  -3.08763  -6.28894
H     5.85527  -4.82204  -7.33145
H     2.81304  -5.53849  -9.83830
H     1.47597  -6.93571  -8.29769
H     2.61140  -8.47712  -6.69183
H     5.10776  -8.59425  -6.66178
H     6.43800  -7.18980  -8.19516
