33
Generated by autodE on: 2022-07-27. E = -803.195739 Ha
C     3.86260  -1.08961   1.11802
N     3.54112  -2.01708   0.04653
C     2.28837  -2.34497  -0.31323
O     1.99187  -3.06832  -1.27348
C     1.21106  -1.85593   0.58058
N     0.48077  -0.90618   0.35224
C    -0.36085   0.05010   0.16167
C    -1.55010  -0.25253  -0.66696
C    -2.77574   0.40917  -0.46232
C    -3.89514   0.07731  -1.22761
C    -3.81498  -0.92007  -2.20452
C    -2.60440  -1.59202  -2.40670
C    -1.48170  -1.26285  -1.64782
C    -0.06697   1.36581   0.77117
C     0.76300   1.44416   1.90773
C     1.07884   2.67842   2.47412
C     0.57822   3.86014   1.91595
C    -0.23630   3.79413   0.78145
C    -0.55661   2.56093   0.21054
H     4.92405  -1.19516   1.37436
H     3.26863  -1.31968   2.01575
H     3.67152  -0.04124   0.83641
H     4.28253  -2.34685  -0.56678
H    -2.86153   1.17150   0.31265
H    -4.83954   0.59786  -1.05209
H    -4.69211  -1.17453  -2.80388
H    -2.53140  -2.37431  -3.16588
H    -0.53949  -1.78982  -1.81397
H     1.15717   0.52807   2.35210
H     1.71816   2.71774   3.35921
H     0.82549   4.82672   2.36074
H    -0.62197   4.71108   0.32969
H    -1.17487   2.53045  -0.68695
