57
Generated by autodE on: 2022-06-26. E = -1341.441017 Ha
C     1.13257  -0.76179   3.85076
N     1.43439  -0.69475   2.43673
C     0.93268   0.25660   1.64815
O     0.30952   1.24040   2.06850
C     1.20828   0.05885   0.13453
C     2.37012   0.95815  -0.29568
C     3.13467   0.63491  -1.42894
C     4.18985   1.45122  -1.84133
C     4.50160   2.61398  -1.13168
C     3.74330   2.95095  -0.00858
C     2.68819   2.13306   0.40415
N     1.46123  -1.35486  -0.12429
C     0.19940  -2.07877  -0.46120
C     0.31823  -2.63732  -1.88796
C     0.03161  -3.26952   0.49493
C    -0.92024  -0.95290  -0.41328
O    -1.88662  -1.07805  -1.44326
C    -2.89771  -2.06858  -1.29358
C    -1.73022  -0.76830   0.89185
O    -1.79829  -1.59945   1.78061
C    -2.56444   0.46502   0.97732
C    -3.78824   0.33047   1.82964
C    -2.10630   1.62871   0.44524
C    -2.75514   2.96551   0.61604
C    -0.81242   1.65880  -0.27927
O    -0.32794   2.71862  -0.65564
C    -0.11393   0.35635  -0.67975
O     0.27853   0.41914  -2.02795
C    -0.57893   1.02747  -2.98972
H     0.07458  -1.02778   4.01742
H     1.32130   0.20873   4.33121
H     1.76829  -1.52228   4.32083
H     1.79610  -1.50564   1.93485
H     2.90754  -0.25253  -2.01981
H     4.76752   1.17519  -2.72657
H     5.32791   3.25233  -1.45309
H     3.97045   3.85825   0.55613
H     2.10330   2.42240   1.27556
H     2.13295  -1.47105  -0.87481
H    -0.53984  -3.27221  -2.14593
H     1.22096  -3.26663  -1.93781
H     0.40527  -1.83882  -2.63246
H     0.11390  -2.97606   1.54531
H    -0.93470  -3.77307   0.35359
H     0.83030  -3.99536   0.27449
H    -2.48047  -3.07118  -1.11502
H    -3.59999  -1.82601  -0.47818
H    -3.45501  -2.08056  -2.23993
H    -4.31268  -0.61091   1.60643
H    -3.49963   0.28751   2.89380
H    -4.48377   1.16708   1.69790
H    -3.76771   2.89525   1.02775
H    -2.79177   3.49927  -0.34574
H    -2.14606   3.58668   1.29480
H    -1.63646   0.97545  -2.70081
H    -0.29948   2.08163  -3.14430
H    -0.44638   0.47619  -3.93200
