31
Generated by autodE on: 2022-07-27. E = -651.945270 Ha
C    -0.75787  -0.52028   3.82061
N    -0.33287  -0.76663   2.45994
C    -0.23872   0.24948   1.54432
O    -0.30111   1.43432   1.95449
C    -0.01525  -0.10421   0.15590
N    -0.29412  -1.40444  -0.29532
C    -1.35851  -2.15743  -0.12276
C    -1.32825  -3.55923  -0.62074
C    -2.56022  -1.63604   0.56960
C     0.64714   0.75434  -0.81043
C     0.65352   0.41447  -2.19103
C     1.33273   1.18707  -3.13514
C     2.01522   2.34584  -2.75488
C     2.00529   2.71201  -1.40115
C     1.34376   1.94079  -0.44968
H    -1.72258   0.01383   3.85757
H    -0.02453   0.08395   4.38067
H    -0.87481  -1.48285   4.33543
H    -0.24620  -1.72791   2.15783
H     0.41851  -1.81676  -0.90727
H    -1.34414  -4.26307   0.23042
H    -2.22906  -3.76699  -1.22015
H    -0.42806  -3.76157  -1.21959
H    -2.63609  -0.54392   0.43890
H    -3.45875  -2.13678   0.18133
H    -2.51459  -1.82543   1.65638
H     0.09718  -0.45820  -2.53928
H     1.31053   0.88404  -4.18566
H     2.53701   2.95647  -3.49523
H     2.53136   3.61512  -1.07865
H     1.35657   2.24730   0.59442
