31
Generated by autodE on: 2022-06-26. E = -651.950480 Ha
C    -1.24318   3.80801  -0.68562
N    -0.65170   2.48811  -0.68429
C    -1.31706   1.41670  -0.16033
O    -2.51603   1.55045   0.21205
C    -0.63251   0.14895  -0.01750
N    -1.43484  -0.76372   0.65294
C    -1.40763  -2.06619   0.80761
C    -0.40666  -2.92373   0.11983
C    -2.43604  -2.69512   1.68828
C     0.80530  -0.06339  -0.20415
C     1.59395  -0.65753   0.81064
C     2.97020  -0.82167   0.65716
C     3.61460  -0.38662  -0.50714
C     2.85550   0.21112  -1.51849
C     1.47485   0.36231  -1.37524
H    -2.23626   3.79128  -1.15894
H    -1.36779   4.22339   0.33125
H    -0.59791   4.48731  -1.25842
H     0.34932   2.41431  -0.82190
H    -2.26281  -0.27866   1.02761
H    -0.80863  -3.94109   0.00884
H    -0.15130  -2.51909  -0.87134
H     0.53899  -2.99930   0.68644
H    -1.95202  -3.19462   2.54664
H    -3.15022  -1.95566   2.08009
H    -2.98879  -3.47752   1.14108
H     1.11814  -0.97498   1.74070
H     3.54879  -1.28235   1.46222
H     4.69332  -0.51323  -0.62400
H     3.33925   0.54899  -2.43874
H     0.89798   0.79563  -2.19456
