26
Generated by autodE on: 2022-06-26. E = -689.460859 Ha
C     2.30674   2.47855  -0.26513
O     0.90734   2.22051  -0.41994
C     0.36102   1.03215  -0.16335
C     0.94442  -0.09776   0.32724
O     2.25885  -0.16040   0.69200
C     3.11074  -0.91972  -0.17232
C     0.13498  -1.31177   0.56742
O     0.66650  -2.30558   1.05974
C    -1.31869  -1.31604   0.22264
C    -2.08240  -2.58195   0.45122
C    -1.91121  -0.19578  -0.25994
C    -3.36913  -0.14624  -0.59840
C    -1.11251   1.03827  -0.47319
O    -1.61962   2.06324  -0.90778
H     2.44274   3.52323  -0.57240
H     2.90224   1.82405  -0.91752
H     2.61894   2.35369   0.77964
H     4.12236  -0.85615   0.25001
H     2.79944  -1.97377  -0.21746
H     3.11207  -0.49252  -1.18893
H    -2.89159  -2.42121   1.18323
H    -2.56564  -2.91906  -0.48047
H    -1.42721  -3.37921   0.82089
H    -3.98270  -0.40198   0.28098
H    -3.66008   0.84898  -0.95460
H    -3.61325  -0.88597  -1.37878
