56
Generated by autodE on: 2022-06-06. E = -1379.040975 Ha
C    -1.45764  -0.78894  -3.92842
C    -1.75205  -0.00307  -2.67811
O    -2.34200   1.06015  -2.70679
C    -1.54167  -0.73853  -1.31918
C    -2.95937  -1.15280  -0.91243
O    -0.81899  -1.96250  -1.54257
N     0.55645  -1.72373  -1.26222
C     1.36967  -2.36146  -2.09326
N     2.10330  -2.97296  -2.76668
C     0.82136  -0.36144  -0.72720
C     1.36155   0.43446  -1.96543
C     2.84375   0.58622  -2.13431
O     0.58645   0.82925  -2.81219
C     1.83966  -0.42818   0.41140
C     2.34105   0.75555   0.97380
C     3.21052   0.71680   2.06409
C     3.59653  -0.50833   2.61425
C     3.11039  -1.69179   2.05505
C     2.24204  -1.65233   0.96099
C    -0.66380   0.01014  -0.23441
C    -0.77843  -0.64028   1.17300
C    -0.95525  -2.02030   1.36914
C    -0.90678  -2.58069   2.64848
C    -0.65515  -1.78163   3.76462
C    -0.46376  -0.40963   3.58493
C    -0.53203   0.15018   2.30843
C    -1.04709   1.49260  -0.13099
C    -0.24374   2.58101  -0.48848
C    -0.69653   3.89831  -0.33973
C    -1.96747   4.15893   0.16809
C    -2.77810   3.08308   0.54589
C    -2.31865   1.77622   0.40487
H    -1.59729  -0.13523  -4.79901
H    -0.45251  -1.22678  -3.93716
H    -2.17849  -1.62241  -3.98591
H    -3.33504  -1.87832  -1.64893
H    -3.61906  -0.27903  -0.93504
H    -2.99437  -1.61020   0.08063
H     3.19241   1.42380  -1.50928
H     3.39159  -0.30679  -1.80374
H     3.05700   0.81187  -3.18685
H     2.04215   1.72550   0.57979
H     3.58050   1.65267   2.48856
H     4.27185  -0.53958   3.47229
H     3.40211  -2.65802   2.47268
H     1.85888  -2.58670   0.55493
H    -1.11414  -2.68274   0.52271
H    -1.05390  -3.65704   2.76424
H    -0.60433  -2.22246   4.76286
H    -0.25511   0.23488   4.44200
H    -0.36258   1.21980   2.19873
H     0.75759   2.45301  -0.88697
H    -0.03798   4.72083  -0.62771
H    -2.32112   5.18646   0.27937
H    -3.77311   3.26118   0.96025
H    -2.95966   0.96078   0.73692
