41
Generated by autodE on: 2022-06-06. E = -924.838479 Ha
C     1.83777  -2.78570  -1.29007
C     0.67847  -1.84142  -1.48598
O    -0.18391  -2.06136  -2.32640
C     0.64527  -0.60758  -0.62715
C    -0.51841  -0.16220  -0.07050
C    -0.60662   1.15187   0.62058
C    -0.08070   2.31766   0.03470
C    -0.17506   3.54638   0.68864
C    -0.78875   3.63109   1.94332
C    -1.32336   2.48030   2.53158
C    -1.24404   1.25333   1.87022
C    -1.76433  -0.97490  -0.06213
C    -1.74801  -2.31638   0.35828
C    -2.92477  -3.06622   0.38999
C    -4.13797  -2.48673   0.00378
C    -4.16798  -1.14825  -0.40212
C    -2.99304  -0.39477  -0.42308
C     1.95593   0.06375  -0.40948
C     2.75821   0.43210  -1.50297
C     3.98750   1.06461  -1.30395
C     4.43848   1.32928  -0.00679
C     3.65411   0.95368   1.08934
C     2.42375   0.32579   0.88986
H     1.59416  -3.75989  -1.73490
H     2.73322  -2.38292  -1.78970
H     2.08536  -2.89429  -0.22343
H     0.39641   2.25792  -0.94437
H     0.23119   4.44360   0.21570
H    -0.85676   4.59271   2.45742
H    -1.80745   2.53885   3.50928
H    -1.66656   0.35833   2.33137
H    -0.80501  -2.76754   0.67513
H    -2.89571  -4.10584   0.72482
H    -5.05905  -3.07381   0.02812
H    -5.11264  -0.68739  -0.70050
H    -3.02158   0.65156  -0.73434
H     2.40674   0.23302  -2.51858
H     4.59436   1.35382  -2.16525
H     5.40025   1.82337   0.14997
H     4.00386   1.14917   2.10589
H     1.81342   0.03414   1.74665
