15
Generated by autodE on: 2022-06-06. E = -454.175793 Ha
C    -2.04449  -1.31635  -0.36215
C    -1.89080   0.12610   0.00539
O    -2.81826   0.89539   0.18392
C    -0.49456   0.66664   0.16690
C    -0.19019   2.04926   0.53204
O     0.41984  -0.19664  -0.04552
N     1.74676   0.19475   0.07330
C     2.49636  -0.86374  -0.18965
N     3.27888  -1.71497  -0.39868
H    -1.52946  -1.52175  -1.31409
H    -1.57173  -1.95245   0.40331
H    -3.11102  -1.55699  -0.44829
H    -1.11344   2.61855   0.67888
H     0.43361   2.50421  -0.25863
H     0.43081   2.05515   1.44587
