15
Generated by autodE on: 2022-07-27. E = -454.159899 Ha
C    -0.78319   1.82061  -1.00671
C    -0.76451   0.36312  -0.70817
O    -0.84983  -0.53958  -1.51442
C    -0.78676  -0.06974   0.75790
C    -1.96480   0.24024   1.58587
O     0.11039  -0.79550   1.27963
N     1.36718  -1.18883   0.69854
C     1.79350  -0.31211  -0.18230
N     2.28863   0.41756  -0.96650
H    -0.62996   1.98036  -2.08165
H    -0.01813   2.34283  -0.41291
H    -1.76587   2.22587  -0.70770
H    -2.88273  -0.00164   1.02459
H    -1.98111   1.33038   1.76755
H    -1.92843  -0.30199   2.53894
