56
Generated by autodE on: 2022-06-06. E = -1378.972989 Ha. Imaginary frequency = -264.6 cm-1
C    -2.38900   0.69606  -3.05147
C    -1.76000  -0.61399  -2.70210
O    -1.36252  -1.39872  -3.54669
C    -1.82069  -1.14302  -1.27858
C    -3.14411  -1.15905  -0.59728
O    -1.09478  -2.19634  -0.95049
N     0.27370  -2.27517  -1.13163
C     0.75543  -2.43093  -2.35238
N     1.43318  -2.63805  -3.29115
C     0.86561  -0.21344  -0.28880
C     1.32120   0.34049  -1.62033
C     2.78887   0.56919  -1.84666
O     0.51578   0.56574  -2.51301
C     1.94678  -0.70295   0.62516
C     2.19041   0.03801   1.79715
C     3.24688  -0.29105   2.64803
C     4.08050  -1.37067   2.34508
C     3.85538  -2.10750   1.17746
C     2.80342  -1.77432   0.32373
C    -0.36397   0.27243   0.25425
C    -0.86115  -0.30789   1.53117
C    -0.61855  -1.66176   1.86088
C    -1.09558  -2.21327   3.04713
C    -1.82034  -1.43124   3.95317
C    -2.05312  -0.08658   3.65690
C    -1.58106   0.46643   2.46535
C    -0.77631   1.68006  -0.05193
C     0.21581   2.66898  -0.20263
C    -0.12021   4.00652  -0.41803
C    -1.46105   4.39629  -0.46192
C    -2.45897   3.43509  -0.27403
C    -2.11971   2.09819  -0.06675
H    -2.12641   0.94185  -4.08809
H    -2.07558   1.49692  -2.37379
H    -3.48484   0.60026  -2.97465
H    -3.72373  -2.01538  -0.98647
H    -3.71542  -0.24988  -0.80915
H    -3.02408  -1.29698   0.48673
H     3.28320   1.00499  -0.96787
H     3.26947  -0.40297  -2.04499
H     2.91583   1.21020  -2.72841
H     1.54984   0.88678   2.03991
H     3.41649   0.29957   3.55126
H     4.90360  -1.63575   3.01268
H     4.50304  -2.95135   0.92872
H     2.64978  -2.35858  -0.58196
H    -0.04340  -2.29051   1.18684
H    -0.89440  -3.26407   3.26806
H    -2.19141  -1.86505   4.88456
H    -2.60050   0.54476   4.36064
H    -1.75658   1.52371   2.27696
H     1.26953   2.39837  -0.12070
H     0.67339   4.74802  -0.53512
H    -1.72679   5.44301  -0.62619
H    -3.51191   3.72505  -0.29222
H    -2.91418   1.37051   0.08216
