44
Generated by autodE on: 2022-06-02. E = -1237.996513 Ha
C    -2.17601  -2.41371   2.28036
N    -1.73795  -1.86694   1.01160
C    -1.76048  -0.54911   0.77342
O    -2.29755   0.25448   1.54400
C    -1.09162  -0.08585  -0.52668
C    -1.56100  -1.04644  -1.70269
C    -1.19263  -0.43062  -3.03316
C     0.13439  -0.56710  -3.12323
C     0.55859  -1.27825  -1.84716
O    -0.58670  -2.09499  -1.57215
C     0.48947  -0.30713  -0.58500
C     1.12574  -0.91114   0.66541
C     1.95432  -2.04087   0.62024
C     2.51091  -2.57081   1.78921
C     2.24994  -1.98320   3.02717
C     1.42708  -0.85448   3.08711
C     0.87594  -0.32585   1.92100
C     1.03326   1.14359  -0.89938
C     2.07870   1.12813  -1.95325
N     2.93380   1.13599  -2.73454
C     1.71617   1.83013   0.23451
N     2.33516   2.42443   1.01291
O    -0.05914   1.89852  -1.36019
C    -1.30151   1.41366  -0.83143
C    -1.74104   2.31978   0.33668
C    -3.19455   2.68914   0.37859
O    -0.90165   2.84024   1.05034
H    -1.50439  -2.10333   3.09902
H    -3.19254  -2.07142   2.52086
H    -2.17402  -3.50854   2.21506
H    -1.19476  -2.45005   0.37825
H    -2.58117  -1.42202  -1.58381
H    -1.88315   0.05901  -3.71818
H     0.80306  -0.23153  -3.91224
H     1.47420  -1.86674  -1.91623
H     2.18050  -2.53714  -0.32131
H     3.15163  -3.45296   1.72320
H     2.68192  -2.40111   3.93927
H     1.20903  -0.38011   4.04643
H     0.23154   0.54848   2.00078
H    -2.03398   1.53982  -1.64018
H    -3.83879   1.86170   0.05337
H    -3.33962   3.52698  -0.32716
H    -3.47278   3.02596   1.38564
