14
Generated by autodE on: 2022-07-27. E = -491.086435 Ha
C    -3.41041   0.15068   0.67055
C    -1.92642   0.26244   0.49599
O    -1.16819   0.73313   1.33995
C    -1.40101  -0.14497  -0.81022
O    -0.14894  -0.15803  -1.11708
C     1.00129  -0.09555  -0.44947
C     2.14321  -0.02160  -1.28137
N     3.09952   0.06159  -1.94418
C     1.17052  -0.31859   0.93294
N     1.44639  -0.57774   2.03729
H    -3.71672  -0.90419   0.57182
H    -3.93029   0.71304  -0.12215
H    -3.69900   0.53636   1.65629
H    -2.04759  -0.30419  -1.67561
