48
Generated by autodE on: 2022-06-01. E = -1053.230472 Ha
C     2.45648  -1.56063   3.20286
N     1.55338  -0.74156   2.41837
C     1.76085   0.57237   2.23991
O     2.70097   1.17814   2.76725
C     0.74152   1.31577   1.36121
C     0.47883   0.66698   0.00400
C    -0.72080   0.07238   0.12011
O    -1.31907   0.28786   1.35752
N    -0.57983   1.35271   2.02047
C    -1.30673   2.58370   1.71973
C    -1.60598  -0.75151  -0.79427
C    -2.73921  -1.29131  -0.02187
N    -3.65660  -1.76964   0.50368
C    -0.92087  -2.08404  -1.29900
C    -0.06347  -2.81404  -0.30881
O    -1.16086  -2.49792  -2.41026
C    -2.22575   0.08973  -1.95811
C    -1.35784   1.19701  -2.54887
C    -0.06894   0.78285  -3.26098
C     1.04064   0.11546  -2.43795
C     1.49362   0.78783  -1.12354
C     1.79646   2.28050  -1.37886
C     2.81048   0.10330  -0.69059
H     2.56655  -1.15999   4.22207
H     3.45848  -1.60390   2.74471
H     2.05200  -2.57842   3.26338
H     0.80203  -1.19410   1.90939
H     1.12241   2.34029   1.27800
H    -1.36909   2.79063   0.63588
H    -0.78332   3.41338   2.21452
H    -2.31995   2.51138   2.13628
H     0.09079  -3.84732  -0.64380
H    -0.51440  -2.79294   0.69521
H     0.91073  -2.30670  -0.23580
H    -3.14138   0.55464  -1.56628
H    -2.53175  -0.62708  -2.73328
H    -1.13884   1.94169  -1.76862
H    -1.99284   1.71830  -3.28429
H    -0.32354   0.10050  -4.09018
H     0.34676   1.68713  -3.73427
H     1.93095   0.06762  -3.08554
H     0.80375  -0.93508  -2.23352
H     2.30376   2.73901  -0.51720
H     0.88408   2.85951  -1.58139
H     2.46571   2.37838  -2.24798
H     3.56014   0.20816  -1.49008
H     3.23227   0.56092   0.21510
H     2.66085  -0.97002  -0.50245
