32
Generated by autodE on: 2022-06-01. E = -635.812130 Ha
C     2.60235  -1.49745   0.98057
C     2.59152  -0.59747  -0.21350
O     3.54580  -0.42120  -0.94178
C     1.24543   0.10906  -0.54109
C     1.53202   1.38335  -1.21819
N     1.72993   2.38921  -1.76081
C     0.35316   0.33909   0.59749
C    -0.71085   0.37785   1.17787
C    -2.13688   0.21822   1.47883
C    -2.35086  -1.02201   2.36658
C    -2.72907   1.45943   2.16386
C    -2.79650   0.02000   0.07509
C    -2.11758  -0.96819  -0.89640
C    -0.99287  -0.43507  -1.82912
C     0.46276  -0.84098  -1.53114
H     2.57764  -0.87185   1.88858
H     3.51244  -2.11049   0.97999
H     1.70330  -2.13092   1.00633
H    -1.96650  -1.93338   1.88525
H    -1.83833  -0.90335   3.33333
H    -3.42665  -1.15718   2.55911
H    -2.28782   1.60618   3.16167
H    -2.54753   2.36603   1.56688
H    -3.81681   1.33587   2.28324
H    -3.83192  -0.31067   0.26164
H    -2.86652   1.00649  -0.41262
H    -1.75331  -1.85088  -0.34448
H    -2.91703  -1.34879  -1.55094
H    -1.06144   0.66232  -1.92067
H    -1.19655  -0.82291  -2.83910
H     1.05007  -0.87473  -2.46062
H     0.48849  -1.84922  -1.09047
