16
Generated by autodE on: 2022-06-01. E = -417.352635 Ha
C    -2.77875   0.20126  -0.68456
N    -1.34751   0.07029  -0.51921
C    -0.76583   0.19919   0.68565
O    -1.39487   0.43820   1.72991
C     0.70414   0.04475   0.75365
N     1.49741  -0.21162  -0.25947
C     2.95066  -0.34190  -0.04145
O     1.12728  -0.36683  -1.47037
H    -3.13251   1.18758  -0.34323
H    -3.32271  -0.56550  -0.10876
H    -3.02681   0.08563  -1.74666
H    -0.72035  -0.13050  -1.30134
H     1.16568   0.15154   1.73287
H     3.24500  -1.34387  -0.38009
H     3.19782  -0.19768   1.01528
H     3.44513   0.41306  -0.66665
