43
Generated by autodE on: 2022-06-19. E = -884.208761 Ha
C    -4.79169   0.97875   0.81687
C    -3.64089   0.95076   0.11461
C    -3.40395   1.86039  -1.06222
C    -2.57227   0.02534   0.50631
C    -1.39134  -0.10087  -0.12547
C    -0.31862  -1.04093   0.30913
C     1.08577  -0.37126   0.57041
C     1.36754  -0.35596   2.02214
N     1.60532  -0.34703   3.15848
C     1.24373   1.04731   0.02845
C     0.59653   2.10841   0.67788
C     0.67566   3.40254   0.16115
C     1.41146   3.64945  -1.00325
C     2.06986   2.59562  -1.64161
C     1.98779   1.29651  -1.12885
O     2.03859  -1.23844  -0.07103
N     1.44280  -2.51624  -0.35098
C     1.62398  -3.37130   0.81864
C     0.04806  -2.17057  -0.71366
C     0.03179  -1.67470  -2.16314
C    -0.89885  -3.35805  -0.57044
H    -4.94819   0.31584   1.67332
H    -5.60430   1.66220   0.55500
H    -3.20591   1.28093  -1.97924
H    -2.51821   2.49634  -0.89511
H    -4.27055   2.51134  -1.24448
H    -2.76741  -0.59083   1.39170
H    -1.17989   0.50805  -1.00579
H    -0.63676  -1.52795   1.24009
H     0.01957   1.92150   1.58581
H     0.16231   4.22078   0.67114
H     1.47504   4.66241  -1.40736
H     2.65361   2.78145  -2.54616
H     2.50259   0.47530  -1.62586
H     1.04525  -3.06929   1.70962
H     1.34345  -4.39820   0.55042
H     2.69157  -3.36894   1.07511
H    -0.98967  -1.40996  -2.47031
H     0.39319  -2.47534  -2.82501
H     0.67036  -0.79341  -2.30672
H    -0.95603  -3.72772   0.46216
H    -0.59196  -4.18452  -1.22923
H    -1.90870  -3.04112  -0.86899
