23
Generated by autodE on: 2022-06-19. E = -351.521383 Ha
C     3.45049  -1.47924  -0.45120
C     2.44589  -0.82263   0.16972
C     2.62317  -0.24537   1.55086
C     1.15653  -0.66096  -0.49929
C     0.07340  -0.02436   0.01304
C    -1.18374   0.10702  -0.69490
C    -2.30659   0.73067  -0.25691
C    -2.43375   1.41226   1.07586
C    -3.54130   0.78121  -1.11182
H     4.42513  -1.61442   0.02597
H     3.31870  -1.89733  -1.45398
H     3.63534  -0.43539   1.93482
H     1.89700  -0.67841   2.25878
H     2.45102   0.84380   1.55146
H     1.07891  -1.09955  -1.50145
H     0.14261   0.41592   1.01150
H    -1.21666  -0.35214  -1.69036
H    -2.70833   2.47293   0.93703
H    -1.51925   1.37272   1.68143
H    -3.25374   0.95877   1.66040
H    -4.39786   0.31763  -0.59007
H    -3.83645   1.82699  -1.31207
H    -3.40172   0.26855  -2.07492
