20
Generated by autodE on: 2022-06-19. E = -532.602438 Ha
C    -3.72254   0.81021   0.28439
N    -2.29185   0.85680   0.09110
O    -1.84585  -0.36684   0.31004
C    -0.58803  -0.74481   0.23993
C    -0.47573  -2.13240   0.53743
N    -0.37638  -3.26836   0.77976
C     0.56997   0.06076  -0.08311
C     0.50060   1.43527  -0.41561
C     1.66575   2.14037  -0.72152
C     2.91070   1.50872  -0.70285
C     2.99189   0.14826  -0.37248
C     1.84278  -0.56818  -0.06728
H    -3.99532   0.51406   1.31466
H    -4.21592   0.10687  -0.41208
H    -4.10721   1.82077   0.09582
H    -0.46452   1.93027  -0.43057
H     1.59409   3.19982  -0.97769
H     3.81669   2.06933  -0.94351
H     3.96078  -0.35525  -0.35370
H     1.92311  -1.62639   0.18780
