20
Generated by autodE on: 2022-07-27. E = -532.597685 Ha
C     0.25656  -3.59010  -0.42236
N     0.37872  -2.62665  -1.47623
O     0.25279  -1.37594  -1.08476
C     0.03877  -0.76635   0.06106
C    -0.11746  -1.40701   1.32068
N    -0.26181  -1.77356   2.41888
C    -0.03603   0.69366  -0.01553
C    -0.24306   1.46185   1.14873
C    -0.31376   2.85238   1.07250
C    -0.18062   3.50113  -0.15867
C     0.02479   2.74458  -1.31944
C     0.09717   1.35576  -1.25539
H    -0.72905  -3.54662   0.07805
H     0.36884  -4.57785  -0.88645
H     1.04065  -3.47494   0.34973
H    -0.34856   0.96991   2.11695
H    -0.47433   3.43186   1.98430
H    -0.23671   4.59037  -0.21556
H     0.12927   3.24330  -2.28570
H     0.25643   0.77541  -2.16456
