23
Generated by autodE on: 2022-06-20. E = -351.521383 Ha
C     3.61007  -1.02278  -0.47132
C     2.57294  -0.25003  -0.08005
C     2.79675   1.06185   0.62789
C     1.20135  -0.68211  -0.34132
C     0.07908  -0.00018  -0.00016
C    -1.25994  -0.47500  -0.28353
C    -2.42876   0.14205   0.02437
C    -3.74647  -0.48236  -0.33864
C    -2.53162   1.46155   0.73538
H     3.44417  -1.97486  -0.98488
H     4.64597  -0.72371  -0.28869
H     3.86882   1.26588   0.75856
H     2.32020   1.06320   1.62231
H     2.35081   1.89852   0.06479
H     1.09207  -1.64275  -0.85897
H     0.18062   0.95794   0.51650
H    -1.31945  -1.43862  -0.80392
H    -4.33299   0.19116  -0.98918
H    -3.62258  -1.44504  -0.85601
H    -4.36293  -0.64717   0.56340
H    -3.09061   2.18599   0.11702
H    -1.56017   1.90560   0.98776
H    -3.11018   1.34735   1.66920
