24
Generated by autodE on: 2022-06-20. E = -705.242778 Ha
C     3.93956   0.07632   0.67512
O     2.62648   0.32010   0.14934
C     1.61441  -0.35013   0.71708
O     1.77690  -1.13264   1.63890
C     0.31832  -0.02813   0.09866
O     0.23860   0.82338  -0.89563
C     1.02522   1.58171  -1.61433
C     0.38817   2.33875  -2.61016
N    -0.10893   2.98471  -3.45018
C    -0.97031  -0.59359   0.49499
C    -2.14041  -0.20270  -0.20108
C    -3.38447  -0.71900   0.14683
C    -3.50378  -1.63855   1.19623
C    -2.35792  -2.03255   1.89203
C    -1.10490  -1.52212   1.55229
H     4.61760   0.70724   0.08953
H     3.98248   0.35141   1.73849
H     4.20641  -0.98376   0.55916
H     2.09735   1.61714  -1.44212
H    -2.06653   0.51215  -1.02092
H    -4.27107  -0.40110  -0.40672
H    -4.48173  -2.04260   1.46726
H    -2.43559  -2.74898   2.71323
H    -0.22407  -1.83937   2.10323
