24
Generated by autodE on: 2022-07-27. E = -705.238881 Ha
C    -1.71896   3.17040   0.15917
O    -1.05625   1.96240   0.56201
C    -0.66108   1.13075  -0.40214
O    -0.93620   1.27243  -1.57915
C     0.09932  -0.01361   0.15187
O     0.83281   0.11373   1.22703
C     1.32915   1.06490   1.99124
C     1.26608   2.43762   1.73130
N     1.29852   3.59704   1.56389
C     0.04699  -1.35616  -0.40606
C     0.92374  -2.35411   0.08181
C     0.87720  -3.64913  -0.42478
C    -0.03666  -3.98413  -1.43169
C    -0.90737  -3.00638  -1.92350
C    -0.87307  -1.70710  -1.42074
H    -1.06702   3.75831  -0.50203
H    -2.65742   2.93250  -0.36109
H    -1.92241   3.72395   1.08220
H     1.93953   0.68159   2.80816
H     1.64641  -2.10170   0.85844
H     1.56463  -4.40380  -0.03583
H    -0.06785  -5.00045  -1.83053
H    -1.62636  -3.25776  -2.70647
H    -1.56190  -0.96149  -1.81353
