10
Generated by autodE on: 2022-05-29. E = -156.052991 Ha
C     2.06134   0.15435  -0.05524
C     0.60545   0.04568  -0.01644
C    -0.60548  -0.04538   0.01600
C    -2.06132  -0.15457   0.05555
H     2.51646  -0.73284  -0.52562
H     2.38131   1.03829  -0.63124
H     2.48273   0.24711   0.95931
H    -2.37920  -1.18691   0.27624
H    -2.49070   0.49979   0.83204
H    -2.51059   0.13359  -0.90913
