53
Generated by autodE on: 2022-05-31. E = -1093.874047 Ha
C    -8.54491  -4.55642   4.82018
N    -7.13906  -4.21709   4.71828
C    -6.33715  -4.79418   3.81745
O    -6.76993  -5.65257   3.02781
C    -4.86922  -4.29291   3.73682
C    -3.84755  -5.45578   3.63444
O    -2.65366  -5.25569   3.90000
N    -4.27770  -6.63190   3.16525
C    -3.36676  -7.73308   2.92904
C    -4.76847  -3.58507   2.33488
C    -3.52626  -2.69973   2.11265
C    -3.84164  -1.20464   1.98186
C    -4.20857  -0.46134   3.26892
C    -5.37064  -1.07291   4.09861
C    -6.17687   0.02677   4.80085
C    -4.81666  -2.08486   5.07575
C    -4.53099  -3.39333   4.91672
C    -3.83528  -3.91562   6.18711
C    -4.35734  -5.25492   6.69890
C    -2.29092  -3.85455   6.02702
C    -1.45310  -4.90558   6.70258
O    -1.77389  -2.88626   5.48880
N    -4.08679  -2.86341   7.20700
C    -4.38665  -1.63660   6.45955
H    -8.98908  -3.97911   5.64012
H    -9.08008  -4.31995   3.88679
H    -8.67867  -5.63001   5.02515
H    -6.73556  -3.51583   5.33343
H    -5.26410  -6.68798   2.90385
H    -2.83508  -8.01285   3.85211
H    -3.94097  -8.59900   2.57694
H    -2.60978  -7.47679   2.16975
H    -5.68224  -2.99763   2.17767
H    -4.81018  -4.38366   1.58191
H    -3.03220  -3.02677   1.18458
H    -2.79190  -2.85819   2.91582
H    -2.96692  -0.69808   1.53979
H    -4.66238  -1.08452   1.25163
H    -3.31907  -0.38177   3.91676
H    -4.48081   0.57208   2.99643
H    -6.06147  -1.57919   3.41191
H    -6.65862   0.67436   4.05191
H    -6.96758  -0.39700   5.44031
H    -5.53595   0.66582   5.42886
H    -5.45223  -5.20960   6.79110
H    -3.94370  -5.47928   7.69223
H    -4.10441  -6.09167   6.03649
H    -1.71427  -5.90966   6.34236
H    -1.64628  -4.88291   7.78717
H    -0.38967  -4.70388   6.51802
H    -4.94133  -3.13958   7.69133
H    -3.50283  -0.97797   6.38663
H    -5.16354  -1.05947   6.98001
