37
Generated by autodE on: 2022-05-31. E = -767.726804 Ha
C     2.02790  -3.56499   0.87622
N     1.18813  -2.40856   0.62934
C     1.68394  -1.26856   0.13044
O     2.87262  -1.11892  -0.16996
C     0.69308  -0.10102  -0.05265
C     0.83189   0.34294  -1.53617
O     1.49714   1.32591  -1.86159
N     0.20688  -0.44260  -2.42774
C     0.26211  -0.17756  -3.85272
C    -0.70028  -0.40157   0.27541
C    -1.80691  -0.20217   0.73343
C    -2.89903   0.46590   1.44001
C    -4.26677   0.34654   0.76275
C    -2.44442   1.94406   1.58991
C    -0.99725   2.17312   2.07653
C     0.14079   2.23880   1.01612
C     1.12006   1.05245   0.90459
H     2.57500  -3.85188  -0.03467
H     2.76763  -3.36379   1.66784
H     1.39465  -4.40373   1.18937
H     0.20198  -2.44403   0.87032
H    -0.35466  -1.21727  -2.08859
H    -0.28161  -0.96912  -4.38217
H    -0.19725   0.79363  -4.09751
H     1.30318  -0.16063  -4.21063
H    -2.96663   0.02447   2.45044
H    -4.23443   0.75994  -0.25774
H    -5.02351   0.90434   1.33570
H    -4.58956  -0.70374   0.69847
H    -2.58412   2.44726   0.61735
H    -3.14441   2.42472   2.29320
H    -0.74548   1.42526   2.84878
H    -0.99966   3.14162   2.60094
H    -0.28348   2.46166   0.02316
H     0.76366   3.11194   1.26620
H     2.09589   1.40718   0.54685
H     1.27966   0.61123   1.90127
