16
Generated by autodE on: 2022-07-27. E = -326.046171 Ha
C    -0.95685   2.12203   0.09907
N    -1.25710   0.85022   0.23050
C    -0.52051  -0.30806   0.13233
C    -1.25841  -1.59789   0.36419
C     0.86242  -0.25112  -0.17690
C     1.59924  -1.57561  -0.26980
O     1.49374   0.82167  -0.37402
H     0.06295   2.40811  -0.13427
H    -1.76624   2.83849   0.23521
H    -2.24100   0.67528   0.45155
H    -1.23676  -2.26006  -0.51870
H    -2.31692  -1.40741   0.60083
H    -0.83740  -2.17714   1.20390
H     1.15956  -2.22735  -1.04255
H     1.54819  -2.13087   0.68125
H     2.65222  -1.38418  -0.51745
