20
Generated by autodE on: 2022-06-24. E = -457.715328 Ha
C    -3.12746   0.37906  -0.42430
N    -1.80284   0.27035   0.16428
C    -1.66620   0.26905   1.55812
C    -0.48162   0.11234   2.16983
C     0.81438  -0.07854   1.42110
C     0.56638  -0.07620  -0.07859
C     1.67050  -0.24869  -1.03578
N     2.90653  -0.40301  -0.49744
O     1.51420  -0.25645  -2.27396
C    -0.68512   0.08874  -0.59298
H    -3.75249  -0.49307  -0.16915
H    -3.03578   0.43609  -1.51605
H    -3.63943   1.28683  -0.06799
H    -2.59732   0.40802   2.11049
H    -0.45478   0.12752   3.26183
H     1.30264  -1.02204   1.74088
H     1.53687   0.71438   1.70403
H     3.69557  -0.53059  -1.12148
H     3.07257  -0.40839   0.50069
H    -0.83485   0.08377  -1.67377
