28
Generated by autodE on: 2022-06-24. E = -803.642154 Ha
O    -1.03474   2.95978  -0.29916
C    -0.57968   1.83632  -0.18838
O     0.90260   1.65495  -0.18690
C     1.15707   0.38870  -0.05831
C     2.47679  -0.18391  -0.01241
C     2.63851  -1.57791   0.12682
C     3.92029  -2.11694   0.17247
C     5.03994  -1.28016   0.08036
C     4.87944   0.10379  -0.05882
C     3.60367   0.65811  -0.10569
O     0.06951  -0.32004   0.02819
C    -1.03812   0.52881  -0.04707
C    -2.36528  -0.02956   0.02937
C    -2.56984  -1.41868   0.17400
C    -3.86249  -1.93753   0.24742
C    -4.97548  -1.09235   0.17883
C    -4.78011   0.28658   0.03481
C    -3.49404   0.81848  -0.03953
H     1.76194  -2.22323   0.19773
H     4.05051  -3.19543   0.28076
H     6.04347  -1.70961   0.11715
H     5.75456   0.75249  -0.13028
H     3.46794   1.73505  -0.21354
H    -1.71049  -2.08897   0.22861
H    -4.00107  -3.01567   0.35993
H    -5.98562  -1.50359   0.23719
H    -5.64068   0.95784  -0.01988
H    -3.35033   1.89393  -0.15123
