48
Generated by autodE on: 2022-06-24. E = -1261.359310 Ha. Imaginary frequency = -357.3 cm-1
C    -0.12477  -3.45141  -0.37200
N     0.70852  -2.27727  -0.61571
C     1.92512  -2.16160   0.02905
C     2.73098  -1.08096  -0.09593
C     4.01670  -1.10131   0.63667
N     4.81348  -0.01998   0.47015
O     4.36192  -2.04701   1.36726
C     2.34226   0.07618  -0.99228
C     0.87106   0.02242  -1.35554
C     0.18257  -1.18551  -1.25020
C    -1.74581  -0.22834   0.39058
C    -2.98932  -0.86311   0.03394
C    -3.44612  -1.99991   0.73929
C    -4.63453  -2.62671   0.37068
C    -5.39654  -2.14050  -0.69933
C    -4.95296  -1.01356  -1.40000
C    -3.76290  -0.37907  -1.04369
O    -1.39295   0.97271  -0.20441
C    -0.11510   1.20574   0.13249
C     0.44524   2.54262  -0.05624
C    -0.06276   3.37831  -1.06623
C     0.50325   4.63409  -1.27497
C     1.58157   5.06134  -0.48960
C     2.09069   4.22834   0.51093
C     1.52797   2.96985   0.73087
O     0.18568   0.50831   1.24637
C    -0.78239  -0.52889   1.37487
O    -0.61716  -1.41719   2.20237
H     0.49416  -4.35756  -0.41401
H    -0.89916  -3.51324  -1.14678
H    -0.60629  -3.38731   0.61397
H     2.21437  -3.01183   0.64662
H     4.55148   0.77065  -0.10471
H     5.69936   0.01160   0.96360
H     2.57115   1.03915  -0.50544
H     2.95827   0.06987  -1.91289
H     0.53440   0.68814  -2.15135
H    -0.76143  -1.35042  -1.76696
H    -2.86150  -2.38003   1.57719
H    -4.97198  -3.50444   0.92740
H    -6.32734  -2.63632  -0.98361
H    -5.53864  -0.62466  -2.23667
H    -3.42300   0.49582  -1.60003
H    -0.89820   3.03954  -1.68122
H     0.10346   5.28441  -2.05600
H     2.02452   6.04523  -0.65964
H     2.93036   4.55902   1.12597
H     1.91911   2.31902   1.51381
