24
Generated by autodE on: 2022-05-28. E = -679.501184 Ha
C    -2.76744   1.08020  -0.28664
C    -1.84026   0.02659   0.28945
N    -1.79607  -1.19858  -0.51564
C    -0.65570  -1.96988  -0.02384
C     0.42425  -0.92290   0.23815
F     1.16593  -1.25676   1.35838
C     1.35698  -0.55372  -0.95290
C     2.37737   0.43858  -0.41489
C     1.70556   1.58609  -0.25205
C     0.28036   1.28978  -0.69718
O     0.47918   0.29227  -1.71042
C    -0.36126   0.41976   0.42433
F    -0.13957   0.99264   1.66642
H    -3.81059   0.72825  -0.25826
H    -2.70827   2.00995   0.30044
H    -2.51272   1.30341  -1.33367
H    -2.14922  -0.18553   1.33481
H    -2.66343  -1.72205  -0.40595
H    -0.33937  -2.73730  -0.74580
H    -0.84764  -2.46890   0.94636
H     1.71543  -1.40101  -1.54775
H     3.40640   0.20415  -0.14427
H     2.04819   2.52325   0.18543
H    -0.32625   2.12383  -1.06339
