13
Generated by autodE on: 2022-05-28. E = -506.057104 Ha
F     1.75914  -0.72863   1.24650
C     0.80815  -0.39401   0.37993
C     0.56786   0.75203  -0.25535
F     1.20397   1.91883  -0.22032
C    -0.78131   0.53910  -0.96576
C    -1.88006   0.45068   0.12525
C    -1.63942  -0.69873   0.76101
C    -0.39658  -1.29386   0.04928
O    -0.64862  -0.85793  -1.30335
H    -0.97335   1.17314  -1.83835
H    -2.63500   1.21247   0.31507
H    -2.14130  -1.14410   1.61895
H    -0.22800  -2.37369   0.12613
