64
Generated by autodE on: 2022-06-27. E = -1513.208618 Ha
C     3.03924   0.59606   3.81590
O     2.77804   0.67519   2.40894
C     1.62437   0.15724   1.98767
O     0.77959  -0.26083   2.75593
C     1.39449   0.29644   0.45762
C     2.59857   0.95456  -0.23015
C     2.48096   2.22408  -0.80764
C     3.56841   2.82508  -1.45253
C     4.79267   2.15987  -1.53491
C     4.92130   0.89085  -0.95864
C     3.83797   0.29725  -0.30944
N     0.17623   1.07731   0.25692
C    -1.05112   0.27370   0.15193
C    -2.01307   0.65401   1.29479
C    -2.41191  -0.19940   2.33006
C    -3.27354   0.24818   3.33901
C    -3.74605   1.56140   3.33744
C    -3.35343   2.42658   2.31029
C    -2.50523   1.97268   1.30005
C    -1.78198   0.54445  -1.17464
C    -3.03938  -0.03829  -1.40271
C    -3.71311   0.16255  -2.60805
C    -3.14910   0.96878  -3.60415
C    -1.91217   1.57515  -3.37467
C    -1.23545   1.36290  -2.16787
C    -0.50967  -1.20826   0.21488
N    -1.23347  -2.19407  -0.54244
C    -2.17416  -3.05174   0.14776
C    -0.88238  -2.44353  -1.84745
C     0.21164  -1.92691  -2.44775
C     1.16338  -1.02095  -1.72556
C     1.00107  -1.07897  -0.18230
C     1.79030  -2.25271   0.40510
N     1.57615  -3.44755  -0.16750
O     2.56300  -2.11904   1.36395
H     4.01519   1.07100   3.96971
H     3.07326  -0.45591   4.13517
H     2.26250   1.12598   4.38560
H     1.52524   2.74445  -0.75978
H     3.45106   3.81726  -1.89540
H     5.64169   2.62418  -2.04236
H     5.87399   0.35821  -1.01320
H     3.95922  -0.68380   0.14786
H     0.09154   1.85588   0.90281
H    -2.05698  -1.22722   2.37641
H    -3.57210  -0.44133   4.13242
H    -4.41627   1.90885   4.12720
H    -3.71573   3.45731   2.29076
H    -2.22375   2.65392   0.49373
H    -3.50028  -0.65146  -0.62709
H    -4.68667  -0.30722  -2.76928
H    -3.67683   1.12941  -4.54747
H    -1.46654   2.21827  -4.13787
H    -0.27002   1.83438  -1.98813
H    -0.52738  -1.51703   1.26264
H    -1.67385  -3.68602   0.90243
H    -2.95715  -2.46871   0.65815
H    -2.66611  -3.71099  -0.58029
H    -1.55218  -3.12281  -2.38089
H     0.40112  -2.15988  -3.49673
H     1.02759   0.02085  -2.05099
H     2.20347  -1.27097  -1.98567
H     2.10609  -4.24735   0.16568
H     1.01792  -3.53152  -1.01500
