44
Generated by autodE on: 2022-06-27. E = -1055.476857 Ha
C     3.81068  -3.02943  -1.99056
O     3.13475  -1.87963  -1.48083
C     1.85181  -2.05672  -1.08869
O     1.30126  -3.16595  -1.14713
C     1.21763  -0.87329  -0.57288
N    -0.04444  -1.14387  -0.10239
C    -1.08249  -0.41285   0.29884
C    -1.12707   1.04179   0.08609
C    -0.76362   1.60337  -1.15266
C    -0.75613   2.98602  -1.32843
C    -1.10793   3.83232  -0.27094
C    -1.48996   3.28468   0.95835
C    -1.50559   1.90107   1.13453
C    -2.18849  -1.11948   0.95416
C    -1.98252  -2.34272   1.63023
C    -3.04971  -3.02550   2.21328
C    -4.34393  -2.49864   2.15276
C    -4.56093  -1.28024   1.49849
C    -3.50032  -0.59821   0.90520
C     1.86481   0.43522  -0.43073
C     2.55741   1.02772  -1.50546
C     3.11772   2.29973  -1.38310
C     2.99378   3.01514  -0.18727
C     2.32318   2.43309   0.89443
C     1.77204   1.15811   0.77690
H     3.88436  -3.81644  -1.22472
H     4.81490  -2.69041  -2.27337
H     3.29139  -3.43523  -2.87201
H    -0.19834  -2.16036  -0.09733
H    -0.48124   0.95039  -1.97925
H    -0.46673   3.40653  -2.29406
H    -1.08827   4.91610  -0.40664
H    -1.76762   3.93921   1.78774
H    -1.78507   1.47807   2.10119
H    -0.97425  -2.75026   1.72994
H    -2.86470  -3.96732   2.73519
H    -5.17711  -3.02991   2.61825
H    -5.56851  -0.86158   1.44202
H    -3.68835   0.33910   0.38005
H     2.63090   0.49130  -2.45239
H     3.63935   2.74360  -2.23470
H     3.41867   4.01760  -0.09742
H     2.22716   2.97743   1.83697
H     1.25293   0.71699   1.62916
