44
Generated by autodE on: 2022-07-27. E = -1055.476818 Ha
C     4.30607  -1.57644   2.57077
O     3.48135  -0.97882   1.56998
C     2.14495  -1.04943   1.76804
O     1.66459  -1.58649   2.77677
C     1.35535  -0.42111   0.74282
N     0.01840  -0.44090   1.05717
C    -1.11238  -0.16296   0.41148
C    -2.34196  -0.09961   1.20886
C    -2.30950   0.19516   2.59040
C    -3.48160   0.20919   3.34598
C    -4.71594  -0.05157   2.74200
C    -4.76530  -0.33122   1.37131
C    -3.59643  -0.35709   0.61287
C    -1.13225   0.05870  -1.04246
C    -0.43594  -0.80019  -1.91386
C    -0.41287  -0.55104  -3.28501
C    -1.08149   0.56037  -3.81023
C    -1.79326   1.40934  -2.95603
C    -1.82380   1.15818  -1.58427
C     1.89682   0.27805  -0.42716
C     1.43035   1.56136  -0.78085
C     1.88926   2.19955  -1.93206
C     2.83719   1.57895  -2.75357
C     3.32989   0.31784  -2.40148
C     2.86344  -0.32679  -1.25526
H     4.08612  -2.64967   2.67569
H     5.34059  -1.43971   2.23251
H     4.16377  -1.08488   3.54510
H    -0.10137  -0.77931   2.02068
H    -1.36420   0.44570   3.07675
H    -3.43124   0.44409   4.41175
H    -5.63384  -0.03092   3.33369
H    -5.72342  -0.54009   0.88956
H    -3.64861  -0.59834  -0.44946
H     0.09311  -1.66465  -1.51103
H     0.13619  -1.22388  -3.94746
H    -1.05097   0.76166  -4.88350
H    -2.31907   2.27779  -3.35939
H    -2.36329   1.83419  -0.91840
H     0.69240   2.05834  -0.14935
H     1.50319   3.18839  -2.19098
H     3.19095   2.07620  -3.65973
H     4.07080  -0.17654  -3.03471
H     3.22932  -1.32379  -1.00645
