64
Generated by autodE on: 2022-06-27. E = -1513.150118 Ha. Imaginary frequency = -459.7 cm-1
C     4.31912  -0.02431   3.06654
O     3.47759   0.23277   1.93493
C     2.18729   0.45252   2.18476
O     1.72986   0.50308   3.31868
C     1.34846   0.60849   0.96551
C     1.99527   1.11572  -0.26895
C     1.60979   2.36768  -0.78325
C     2.20705   2.89092  -1.92940
C     3.22715   2.18519  -2.57475
C     3.65735   0.96463  -2.04476
C     3.05245   0.43641  -0.90330
N     0.06874   0.94405   1.30896
C    -1.09659   0.61162   0.60705
C    -2.31720   0.71578   1.48512
C    -2.24574   0.30849   2.83406
C    -3.36938   0.33655   3.66103
C    -4.60446   0.75673   3.15917
C    -4.69793   1.14027   1.81869
C    -3.57151   1.11801   0.99398
C    -1.21866   1.21772  -0.77650
C    -0.91051   0.55299  -1.96835
C    -0.96771   1.21913  -3.19774
C    -1.33640   2.56287  -3.26044
C    -1.65338   3.24027  -2.07781
C    -1.59498   2.57373  -0.85508
C    -0.81203  -1.41908   0.49518
N    -1.66336  -2.01906  -0.46242
C    -3.09842  -1.85996  -0.34773
C    -1.13454  -2.79690  -1.47464
C     0.18534  -2.88809  -1.72550
C     1.17168  -2.03761  -0.96244
C     0.60632  -1.66854   0.39636
C     1.22721  -2.16709   1.64104
N     2.49554  -2.66487   1.57104
O     0.62613  -2.17331   2.73439
H     3.94536  -0.88823   3.63410
H     5.31330  -0.23869   2.65812
H     4.35939   0.85633   3.72362
H     0.84489   2.94139  -0.26548
H     1.87795   3.85982  -2.31201
H     3.69553   2.59081  -3.47457
H     4.46848   0.41329  -2.52613
H     3.40428  -0.51010  -0.49933
H    -0.04016   0.89116   2.32235
H    -1.30913  -0.06678   3.25232
H    -3.27755   0.01620   4.70143
H    -5.48629   0.77534   3.80362
H    -5.65740   1.46036   1.40544
H    -3.68051   1.40601  -0.05022
H    -0.60771  -0.48625  -1.96470
H    -0.71197   0.67549  -4.11023
H    -1.37501   3.08200  -4.22097
H    -1.93823   4.29467  -2.10662
H    -1.82041   3.12002   0.06254
H    -1.19727  -1.55645   1.50677
H    -3.60111  -2.72224  -0.80928
H    -3.39528  -1.81325   0.71043
H    -3.46006  -0.94512  -0.84576
H    -1.87416  -3.35834  -2.05043
H     0.54276  -3.56853  -2.50063
H     1.41076  -1.12896  -1.54146
H     2.12830  -2.56900  -0.86965
H     2.96045  -2.82873   2.45846
H     3.09350  -2.44192   0.78537
