45
Generated by autodE on: 2022-06-01. E = -1569.451956 Ha
C    -3.90753  -0.87583  -0.99370
C    -2.53949  -0.29474  -1.24615
O    -2.18925   0.03000  -2.36052
C    -1.58203  -0.21874  -0.03156
C    -2.30574   0.22677   1.27181
C    -2.92653   1.62048   0.98507
C    -1.69305   2.56859   1.00560
C    -0.50980   1.59994   1.22638
C    -1.16357   0.62357   2.22290
C    -0.31936   0.74612  -0.05453
Cl   -0.07432   1.83497  -1.48327
C     0.89527  -0.27218  -0.04476
C     2.21640   0.32084   0.35494
C     2.53160   0.43616   1.71891
C     3.72285   1.04196   2.12106
C     4.61048   1.54821   1.16643
C     4.29695   1.44532  -0.19095
C     3.10648   0.83632  -0.59813
C     0.79681  -1.00459  -1.41996
O     1.46661  -0.95907  -2.41335
O    -0.29090  -1.82247  -1.31467
C    -0.81145  -1.58803   0.04814
C    -1.58172  -2.75717   0.46541
N    -2.19922  -3.67150   0.81607
N     0.36345  -1.33484   0.83182
C     1.23454  -2.49044   1.06713
H    -3.82684  -1.86264  -0.51328
H    -4.43212  -0.97403  -1.95244
H    -4.49465  -0.24055  -0.31572
H    -3.01526  -0.52181   1.64437
H    -3.46772   1.67082   0.03066
H    -3.64569   1.87116   1.77716
H    -1.73650   3.26346   1.85581
H    -1.59633   3.16506   0.09162
H     0.41941   2.08989   1.53731
H    -0.52864  -0.20003   2.54794
H    -1.54793   1.15938   3.10308
H     1.83990   0.05324   2.46969
H     3.95596   1.12060   3.18531
H     5.54284   2.02298   1.48087
H     4.98264   1.84105  -0.94365
H     2.87274   0.76081  -1.65782
H     2.10729  -2.16694   1.64513
H     1.58577  -2.97496   0.13867
H     0.68631  -3.22988   1.66647
