23
Generated by autodE on: 2022-06-01. E = -684.220661 Ha
C     1.17510   1.54424   1.33785
N     1.16795   0.49095   0.32216
C     2.27432   0.06138  -0.29589
C     3.59140   0.48452  -0.07927
N     4.69164   0.83325   0.09708
O     1.95843  -0.87036  -1.20699
C     0.55465  -1.05679  -1.19217
O     0.03324  -1.85471  -1.95164
C     0.07334  -0.16962  -0.17871
C    -1.31907  -0.00611   0.22676
C    -1.70387   0.26936   1.55526
C    -3.05243   0.40086   1.88890
C    -4.04304   0.24891   0.91413
C    -3.67356  -0.04177  -0.40349
C    -2.32851  -0.16815  -0.74686
H     1.14772   1.09924   2.34016
H     0.30064   2.18700   1.18897
H     2.09027   2.13605   1.22312
H    -0.95427   0.35327   2.34119
H    -3.32996   0.61242   2.92410
H    -5.09747   0.35021   1.18079
H    -4.43913  -0.16504  -1.17309
H    -2.04860  -0.38883  -1.77715
