45
Generated by autodE on: 2022-06-01. E = -1569.404755 Ha. Imaginary frequency = -358.4 cm-1
C    -3.95277  -0.71612  -1.01891
C    -2.58210  -0.12877  -1.25816
O    -2.23107   0.20052  -2.38286
C    -1.67235  -0.01747  -0.07616
C    -2.28713   0.06170   1.33146
C    -2.95909   1.46827   1.42411
C    -1.74132   2.43626   1.47828
C    -0.52228   1.46824   1.39508
C    -1.06338   0.29783   2.23042
C    -0.54035   0.89068  -0.01725
Cl   -0.15579   2.06986  -1.27105
C     1.16745  -0.57007  -0.15854
C     2.35980   0.09522   0.37168
C     2.58168   0.21337   1.76034
C     3.69099   0.90580   2.24425
C     4.59393   1.50459   1.36046
C     4.37572   1.40680  -0.01649
C     3.27230   0.71108  -0.51011
C     0.86565  -0.74302  -1.59523
O     1.35851  -0.30759  -2.60711
O    -0.23800  -1.57908  -1.64677
C    -0.61474  -1.83067  -0.33086
C    -1.46984  -2.95563  -0.12410
N    -2.22590  -3.81749   0.06482
N     0.49669  -1.62783   0.45170
C     0.90283  -2.45249   1.58402
H    -3.87943  -1.68786  -0.50768
H    -4.46304  -0.84022  -1.98272
H    -4.55246  -0.05923  -0.37100
H    -2.93985  -0.77891   1.59504
H    -3.56178   1.52636   2.34227
H    -3.62544   1.67953   0.57723
H    -1.69993   2.98249   2.43168
H    -1.73935   3.17355   0.66519
H     0.43595   1.91285   1.68861
H    -1.35029   0.61704   3.24266
H    -0.39576  -0.55487   2.31923
H     1.88389  -0.21493   2.47616
H     3.84481   0.98398   3.32275
H     5.46025   2.04833   1.74396
H     5.07191   1.87399  -0.71670
H     3.11148   0.63952  -1.58348
H     0.44832  -3.44468   1.47089
H     1.99373  -2.56440   1.56123
H     0.60439  -2.03748   2.55585
