31
Generated by autodE on: 2022-12-30. E = -651.922926 Ha
C     4.12128  -2.11252  -0.15971
N     2.76892  -1.75227  -0.52439
C     2.41038  -0.42070  -0.65369
O     3.32247   0.44602  -0.72867
C     1.00024  -0.20177  -0.70378
N     0.36786   1.01634  -0.87467
C     1.07170   2.06423  -1.64404
C    -0.88933   1.26326  -0.50733
C    -1.58677   2.48885  -1.01979
C    -1.62873   0.33150   0.36712
C    -1.06252  -0.16524   1.56141
C    -1.80761  -0.96520   2.42376
C    -3.13056  -1.30662   2.11017
C    -3.70273  -0.82530   0.93078
C    -2.96319  -0.00748   0.07169
H     4.40414  -1.77712   0.85673
H     4.84247  -1.67172  -0.86288
H     4.22596  -3.20533  -0.20041
H     2.03626  -2.39673  -0.24641
H     0.34156  -1.03010  -0.45618
H     2.10791   1.75495  -1.78244
H     0.57307   2.19296  -2.61393
H     1.04374   3.01445  -1.09738
H    -2.60708   2.53654  -0.62305
H    -1.64413   2.50738  -2.12226
H    -1.06984   3.41301  -0.71247
H    -0.03261   0.08952   1.81747
H    -1.35520  -1.32477   3.35114
H    -3.70921  -1.94173   2.78490
H    -4.73284  -1.08438   0.67461
H    -3.42404   0.36597  -0.84518
