31
Generated by autodE on: 2023-01-01. E = -651.925749 Ha
C     1.77114   5.16133   0.22419
N     1.83972   3.73189   0.42333
C     0.83226   2.90636  -0.03307
O    -0.05073   3.39032  -0.78420
C     0.95808   1.54783   0.41268
N     0.12564   0.49633   0.10190
C    -1.07336   0.78780  -0.71409
C     0.32320  -0.73875   0.58004
C     1.42096  -0.94140   1.57192
C    -0.44112  -1.90699   0.11110
C    -0.66247  -2.16581  -1.25920
C    -1.34630  -3.31020  -1.67123
C    -1.82001  -4.22995  -0.73000
C    -1.59433  -3.99704   0.63116
C    -0.90902  -2.85544   1.04622
H     0.93000   5.63415   0.76561
H     1.65071   5.40387  -0.84230
H     2.70570   5.61772   0.57717
H     2.42784   3.39114   1.17535
H     1.82732   1.30048   1.01144
H    -0.79317   0.93790  -1.76324
H    -1.78425  -0.03530  -0.62672
H    -1.52169   1.71212  -0.34430
H     2.40948  -0.73968   1.11673
H     1.43000  -1.97272   1.94151
H     1.32617  -0.25125   2.43000
H    -0.27516  -1.47568  -2.01030
H    -1.49977  -3.48987  -2.73812
H    -2.35488  -5.12534  -1.05492
H    -1.95872  -4.70811   1.37654
H    -0.74724  -2.68253   2.11224
