43
Generated by autodE on: 2022-05-30. E = -1090.790323 Ha
C     3.57661  -0.93483   2.07628
N     2.60765  -1.25362   1.04644
C     2.03144  -0.30189   0.30544
O     2.37279   0.88478   0.32333
C     0.93959  -0.79500  -0.67899
C     1.58302  -0.98025  -2.04846
O     0.43216  -2.05320  -0.24505
O    -0.40198  -1.72280   0.90980
C    -1.09138  -0.49702   0.61635
C    -0.96743   0.32375   1.93285
C    -2.15167   1.10596   2.41927
O     0.05485   0.23459   2.58555
C    -2.53633  -0.70817   0.07823
C    -2.56296  -1.96297  -0.81365
C    -1.77217  -1.51167  -2.07328
C    -1.39702  -0.04582  -1.75965
C    -2.64867   0.40761  -0.98120
C    -0.32162   0.10594  -0.62549
C     0.01178   1.58975  -0.52506
O    -0.27748   2.31366   0.40593
O     0.57591   2.03177  -1.64798
C     0.99305   3.40440  -1.66222
H     4.34428  -0.25480   1.68153
H     3.09337  -0.44634   2.93926
H     4.05933  -1.85958   2.41572
H     2.17813  -2.17339   1.03292
H     2.05045  -0.03264  -2.34381
H     0.84971  -1.26708  -2.81002
H     2.36293  -1.75233  -1.98788
H    -1.81638   1.84056   3.16254
H    -2.84644   0.40182   2.90874
H    -2.69847   1.60156   1.60901
H    -3.29317  -0.71454   0.87039
H    -3.60581  -2.20851  -1.05952
H    -2.12122  -2.83543  -0.31786
H    -0.91673  -2.15762  -2.29043
H    -2.41514  -1.50768  -2.96590
H    -1.13413   0.54239  -2.64536
H    -3.56887   0.32347  -1.57703
H    -2.58341   1.42764  -0.58010
H     1.42163   3.57890  -2.65554
H     1.75177   3.57180  -0.88419
H     0.13563   4.07066  -1.49296
