15
Generated by autodE on: 2022-05-30. E = -437.156730 Ha
C     2.51653   0.00716   1.08839
N     1.34603  -0.12521   0.24788
C     0.13784   0.23850   0.68291
O    -0.11474   0.70705   1.79849
C    -1.00741   0.05061  -0.28569
C    -2.36642   0.43143   0.14536
O    -0.91108  -0.41132  -1.46633
O     0.27772  -0.81036  -2.02802
H     2.67812   1.05822   1.37715
H     3.39379  -0.35251   0.53819
H     2.40538  -0.58082   2.01356
H     1.36280  -0.49211  -0.71815
H    -2.63142  -0.13641   1.05224
H    -2.36998   1.49684   0.42833
H    -3.09562   0.24420  -0.65174
