28
Generated by autodE on: 2022-05-30. E = -653.567862 Ha
C     3.66100  -1.13971  -0.64810
O     2.30305  -1.25926  -0.20525
C     1.58449  -0.12773  -0.14641
O     2.04455   0.96391  -0.44268
C     0.20601  -0.37479   0.30242
C    -0.77760   0.55633   0.37753
C    -0.74255   2.01308   0.07385
C     0.01692   2.91129   1.00441
O    -1.40694   2.43800  -0.86302
C    -2.08418  -0.19587   0.58513
C    -2.36551  -0.90986  -0.78031
C    -1.24198  -1.98067  -0.85274
C    -0.44494  -1.73795   0.47090
C    -1.58986  -1.37997   1.43918
H     4.23261  -0.49120   0.03179
H     3.69973  -0.72309  -1.66522
H     4.07316  -2.15532  -0.63873
H     1.00033   2.48856   1.24818
H    -0.55730   2.97867   1.94544
H     0.11540   3.91608   0.57092
H    -2.91639   0.40849   0.96495
H    -3.36326  -1.37189  -0.75037
H    -2.34485  -0.19438  -1.61292
H    -0.59633  -1.87218  -1.73561
H    -1.65720  -2.99907  -0.85874
H     0.23109  -2.55183   0.75418
H    -1.23344  -1.07394   2.43367
H    -2.34035  -2.17840   1.53925
