36
Generated by autodE on: 2022-06-17. E = -875.088198 Ha
C     2.27312  -2.39791   1.82293
N     1.96224  -1.16469   1.12802
C     1.70967  -1.18260  -0.20362
O     1.97966  -2.13839  -0.93878
N     1.16455  -0.00932  -0.73246
C     0.35777  -0.09835  -1.97294
C     1.04932   0.57026  -3.15410
C    -1.03778   0.48235  -1.56576
C    -1.52190   1.68548  -2.37063
C    -0.85397   0.75578  -0.03384
C    -1.60327   1.91275   0.45334
N    -2.21572   2.82795   0.81532
C    -1.22346  -0.49825   0.79812
O    -1.25413  -1.61546   0.33506
O    -1.40513  -0.20219   2.07565
C    -1.59131  -1.30744   2.98027
N     0.61407   0.90736   0.18302
C     1.16260   2.26014   0.04470
H     1.43151  -3.11212   1.79874
H     3.14692  -2.88760   1.36995
H     2.50794  -2.16718   2.86982
H     1.51255  -0.41160   1.64220
H     0.24485  -1.16528  -2.19784
H     1.23601   1.63825  -2.97490
H     2.01615   0.07514  -3.32958
H     0.44612   0.46938  -4.06854
H    -1.78378  -0.31509  -1.66468
H    -1.59597   1.41864  -3.43414
H    -0.85360   2.55298  -2.28241
H    -2.52469   1.99108  -2.03819
H    -0.68538  -1.93036   2.99450
H    -2.45608  -1.91059   2.67181
H    -1.76502  -0.86080   3.96525
H     0.93501   2.73471  -0.92396
H     0.77271   2.89076   0.85485
H     2.25148   2.18875   0.16219
