24
Generated by autodE on: 2022-07-27. E = -717.729528 Ha
C     3.18668  -1.60051   0.66437
N     2.30045  -1.79199  -0.46944
C     1.38817  -0.89636  -0.88531
O     0.50755  -1.13604  -1.71517
N     1.65532   0.41802  -0.43184
N     0.68338   1.23398  -0.25355
C     1.05058   2.66470  -0.36619
C    -0.61115   0.93247   0.02534
C    -1.57660   1.96090  -0.07793
N    -2.38535   2.79647  -0.16503
C    -1.01008  -0.36195   0.60195
O    -0.24354  -1.17343   1.08816
O    -2.33668  -0.50609   0.58532
C    -2.86624  -1.68384   1.21528
H     3.93317  -2.40483   0.66856
H     2.63694  -1.62081   1.62000
H     3.70875  -0.63721   0.58776
H     2.14005  -2.73996  -0.79861
H     2.13980   2.71171  -0.44107
H     0.59108   3.06885  -1.27836
H     0.68701   3.20888   0.51320
H    -2.47129  -2.58622   0.72752
H    -3.95312  -1.62619   1.08951
H    -2.60494  -1.69689   2.28307
