24
Generated by autodE on: 2022-06-17. E = -717.732154 Ha
C     3.13358   1.29670  -2.09404
N     2.77488   0.70680  -0.82169
C     1.67549  -0.04962  -0.67684
O     0.89755  -0.32300  -1.59480
N     1.60332  -0.61519   0.61655
N     0.46563  -1.01958   1.06122
C     0.55329  -2.08861   2.08258
C    -0.76660  -0.58444   0.70245
C    -1.89074  -1.34743   1.09655
N    -2.82784  -1.96792   1.40768
C    -0.99136   0.73768   0.08622
O    -0.19685   1.65809   0.10785
O    -2.21750   0.81953  -0.43306
C    -2.60526   2.09455  -0.96968
H     3.57466   0.55590  -2.78250
H     2.24270   1.72326  -2.57667
H     3.86521   2.09635  -1.92491
H     3.40253   0.79004  -0.02821
H     1.60517  -2.17479   2.36669
H     0.20774  -3.02783   1.62919
H    -0.07276  -1.83172   2.94467
H    -2.57582   2.86468  -0.18566
H    -1.93468   2.37957  -1.79266
H    -3.62880   1.96481  -1.33847
