25
Generated by autodE on: 2022-06-06. E = -668.367359 Ha
C     3.56719  -1.07303  -0.91822
N     2.22827  -0.89579  -0.39795
C     1.70477   0.32729  -0.23009
O     2.33045   1.37731  -0.45490
C     0.30701   0.41726   0.26506
C    -0.76519  -0.41196   0.30113
C    -0.93619  -1.81136  -0.12389
C    -2.34611  -2.28428  -0.33029
O     0.02112  -2.56804  -0.29769
C    -1.93320   0.50945   0.76287
C    -2.21786   1.48962  -0.39679
C    -1.15289   2.29521  -0.43116
C    -0.24363   1.79156   0.71048
O    -1.22242   1.36363   1.66931
H     3.65108  -0.71793  -1.95932
H     4.29841  -0.51231  -0.31562
H     3.82418  -2.13895  -0.88728
H     1.59787  -1.69764  -0.28582
H    -2.89580  -1.58562  -0.98187
H    -2.34586  -3.29171  -0.76486
H    -2.87393  -2.29993   0.63792
H    -2.78890   0.02052   1.23743
H    -3.08864   1.44816  -1.04980
H    -0.89812   3.09730  -1.12235
H     0.48756   2.48938   1.12802
