24
Generated by autodE on: 2022-07-27. E = -721.557216 Ha
C    -0.76691  -3.43100  -0.30853
O    -0.89171  -2.03191  -0.03149
C     0.23339  -1.30439  -0.11243
O     1.30107  -1.80111  -0.45432
C     0.04696   0.09591   0.26538
C    -1.14767   0.56513   0.97031
O    -1.94515  -0.12429   1.58550
O    -1.30995   1.90017   0.84463
C    -2.37329   2.48976   1.59900
N     1.10363   0.96748   0.07229
C     1.41671   2.00532   1.08885
C     1.94425   0.91041  -0.94729
C     1.66948   0.21517  -2.14329
N     1.47040  -0.29241  -3.17332
H    -0.08247  -3.91199   0.40574
H    -0.39565  -3.59324  -1.33110
H    -1.77516  -3.84834  -0.20158
H    -2.24750   2.28806   2.67324
H    -3.34698   2.09895   1.26934
H    -2.31694   3.56808   1.40853
H     0.98836   1.71503   2.05165
H     1.01352   2.97024   0.76352
H     2.50786   2.07109   1.17301
H     2.86758   1.48849  -0.89147
