49
Generated by autodE on: 2022-06-06. E = -1389.910597 Ha. Imaginary frequency = -238.6 cm-1
C     3.29098  -2.05574  -2.46060
N     2.47355  -1.60332  -1.35531
C     2.73730  -0.45389  -0.72788
O     3.72862   0.24658  -0.99283
C     1.78090  -0.00329   0.34542
C     2.44798   0.88035   1.46067
C     1.47921   1.97225   1.89409
C     0.50166   1.33049   2.54275
C     0.90783  -0.13849   2.51217
O     2.34787  -0.03028   2.57256
C     0.77713  -0.69475   1.06148
C     0.09182  -1.95701   0.82606
C    -0.87656  -2.43654   1.87898
O     0.28101  -2.66183  -0.18084
C    -1.35463   0.65554  -0.21502
C    -1.50499  -0.54563  -1.05043
O    -0.84684  -0.82310  -2.03164
O    -2.51578  -1.29510  -0.59169
C    -2.82822  -2.49200  -1.32202
C    -2.54166   0.94962   0.67695
O    -2.59711   0.63919   1.84567
O    -3.50902   1.56188   0.00887
C    -4.70228   1.89206   0.74740
N    -0.47079   1.63847  -0.44537
C    -0.80392   2.98609   0.08128
C     0.77561   1.49858  -1.02282
C     0.99403   0.98051  -2.33602
N     1.34113   0.72815  -3.41859
H     4.34450  -2.16967  -2.15990
H     2.91571  -3.02788  -2.80482
H     3.25372  -1.34372  -3.30121
H     1.61264  -2.10436  -1.09166
H     3.48029   1.16125   1.24100
H     1.57456   3.02708   1.64610
H    -0.43064   1.71030   2.95528
H     0.51662  -0.78177   3.30352
H    -0.31013  -2.84617   2.73245
H    -1.50709  -1.62056   2.25582
H    -1.50010  -3.23667   1.46060
H    -1.95619  -3.15756  -1.34577
H    -3.65594  -2.96248  -0.78016
H    -3.13636  -2.23984  -2.34680
H    -4.45534   2.57118   1.57533
H    -5.36911   2.38412   0.03131
H    -5.16509   0.97658   1.14113
H    -1.17907   2.92912   1.10751
H    -1.57403   3.41293  -0.57502
H     0.08526   3.61864   0.05310
H     1.40598   2.37664  -0.86974
