12
Generated by autodE on: 2022-06-16. E = -157.299004 Ha
C    -1.54659  -0.62030  -0.21725
C    -0.71063   0.57723   0.12285
C     0.62821   0.64967   0.19141
C     1.61842  -0.44877  -0.05656
H    -2.24005  -0.86110   0.60791
H    -2.17969  -0.41842  -1.09936
H    -0.94754  -1.51755  -0.42864
H    -1.27507   1.49328   0.33903
H     1.06588   1.62006   0.45837
H     2.30923  -0.17629  -0.87405
H     2.24968  -0.61588   0.83408
H     1.14368  -1.40495  -0.31929
