25
Generated by autodE on: 2022-06-16. E = -498.115769 Ha. Imaginary frequency = -298.8 cm-1
C     2.82348   1.54604   0.22397
C     1.94926   0.39654   0.67800
O     2.34882  -0.45667   1.46990
C     0.63432   0.36348   0.08391
N    -0.20084   1.18789  -0.29379
N    -1.41613   1.38415  -0.43382
C    -1.81030   2.46933  -1.32677
C    -1.73595  -1.25083   0.37929
C    -2.56675  -1.70298  -0.78229
C    -0.41514  -1.55750   0.55269
C     0.35088  -2.48184  -0.36102
H     2.78119   1.67483  -0.86734
H     3.85673   1.36074   0.54717
H     2.45660   2.47841   0.68410
H    -1.49598   2.27021  -2.36613
H    -1.37373   3.43204  -1.01196
H    -2.90379   2.55435  -1.30168
H    -2.25083  -0.72339   1.18621
H    -2.90790  -2.74477  -0.62860
H    -2.00035  -1.69584  -1.72644
H    -3.46456  -1.08172  -0.90950
H     0.01456  -1.38817   1.54586
H     0.05674  -3.53273  -0.18797
H     1.43246  -2.40810  -0.18170
H     0.16305  -2.26215  -1.42294
