37
Generated by autodE on: 2022-10-21. E = -1066.354535 Ha
C     3.78728   1.46348   1.84189
N     3.12617   0.87144   0.69211
C     1.85795   1.17160   0.38162
O     1.17637   1.98019   1.01182
C     1.25183   0.41915  -0.84475
C     2.06143   0.61885  -2.11828
O    -0.07025   0.89964  -1.05210
C    -1.02167   0.05458  -0.43059
C    -2.22998  -0.19171  -1.35921
C    -2.03351   0.06196  -2.81664
O    -3.25515  -0.61453  -0.85972
C    -1.51916   0.68637   0.88448
O    -1.48927   0.13544   1.96160
O    -1.98383   1.90868   0.66556
C    -2.40368   2.65810   1.81845
C    -0.27478  -1.25274  -0.18922
C    -0.93181  -2.40746   0.28817
N    -1.52204  -3.33427   0.67711
C     1.04025  -1.03597  -0.46523
O     2.10577  -1.80180  -0.42840
C     1.98946  -3.17219  -0.00908
H     4.82272   1.10482   1.87759
H     3.28046   1.18782   2.78061
H     3.79283   2.56128   1.76678
H     3.60367   0.14045   0.17437
H     3.07709   0.21592  -2.00865
H     2.12932   1.69254  -2.34421
H     1.56386   0.10244  -2.95129
H    -1.86352   1.13942  -2.97317
H    -1.12850  -0.45538  -3.17153
H    -2.91719  -0.26858  -3.37665
H    -2.76203   3.62107   1.43814
H    -3.20985   2.12974   2.34637
H    -1.55060   2.80743   2.49574
H     2.99863  -3.59307  -0.07637
H     1.62835  -3.21867   1.02784
H     1.30844  -3.71350  -0.68097
