28
Generated by autodE on: 2022-10-21. E = -781.997804 Ha
C     3.51625   1.61651   1.68536
N     2.40657   0.97239   1.01435
C     2.54849   0.21270  -0.08251
O     3.61496  -0.05247  -0.64243
C     1.26308  -0.34476  -0.64561
C     1.25056  -1.08647  -1.90195
O     0.21659  -0.01282   0.00935
C    -1.08560  -0.43163  -0.19234
C    -1.33207  -1.83556  -0.36896
C    -2.75364  -2.30832  -0.56537
O    -0.39973  -2.65968  -0.31575
C    -2.05652   0.58062   0.17439
O    -3.27321   0.44014   0.14109
O    -1.47559   1.74504   0.54512
C    -2.36156   2.79980   0.93124
H     3.56691   1.30167   2.73894
H     4.44899   1.33679   1.18254
H     3.40739   2.71193   1.65530
H     1.46658   1.12372   1.37042
H     1.14182  -2.16899  -1.70439
H     2.17507  -0.89423  -2.45748
H     0.34993  -0.79998  -2.47475
H    -2.72716  -3.38398  -0.78568
H    -3.25104  -1.76573  -1.38170
H    -3.34919  -2.13610   0.34396
H    -3.02956   3.07269   0.10083
H    -2.96848   2.50520   1.80041
H    -1.72160   3.65105   1.19269
