37
Generated by autodE on: 2022-10-21. E = -1066.208041 Ha. Imaginary frequency = -312.5 cm-1
C     3.34761   1.74788   2.03421
N     2.75479   0.96143   0.96885
C     1.80328   1.47195   0.18372
O     1.44353   2.65078   0.18462
C     1.27927   0.60095  -0.94932
C     2.21339   0.37645  -2.09199
O     0.02604   0.66833  -1.29752
C    -1.13786   0.56326  -0.65160
C    -2.24404   0.27281  -1.57448
C    -1.88053   0.11606  -3.03361
O    -3.40052   0.11941  -1.18945
C    -1.22207   0.75273   0.80038
O    -0.25282   0.89628   1.53172
O    -2.47213   0.69058   1.26896
C    -2.61911   0.75160   2.69400
C    -0.17749  -1.86777  -0.04735
C    -1.46669  -2.30002   0.03960
N    -2.56912  -2.68997   0.12075
C     1.03168  -1.57934  -0.08751
O     2.29842  -1.79543   0.05099
C     2.67292  -3.11583   0.54299
H     2.61130   1.96673   2.82525
H     3.72715   2.70380   1.64497
H     4.18096   1.18439   2.47077
H     2.94503  -0.03596   0.91301
H     2.53853   1.35033  -2.49930
H     3.11257  -0.14858  -1.74189
H     1.72198  -0.20492  -2.88289
H    -2.79625  -0.10052  -3.59788
H    -1.40459   1.02713  -3.42664
H    -1.16183  -0.70825  -3.16277
H    -3.69547   0.67343   2.88570
H    -2.08641  -0.08317   3.17224
H    -2.23108   1.70364   3.08398
H     2.31170  -3.87430  -0.16469
H     2.23078  -3.26498   1.53750
H     3.76691  -3.11303   0.59371
