39
Generated by autodE on: 2022-05-31. E = -1589.379345 Ha
C    -4.08080   2.56149  -1.65795
N    -3.02700   2.00214  -0.83092
C    -2.01305   1.31649  -1.36039
O    -1.85759   1.07743  -2.55795
C    -0.99940   0.75800  -0.37245
O    -1.07414   1.38807   0.93012
C     0.18629   1.31495   1.45381
O     0.51192   1.80528   2.49244
C     0.97598   0.51999   0.39110
C     2.47933   0.71074   0.40051
O     3.12728   0.33907   1.37800
N     2.99505   1.28254  -0.69166
C     4.42199   1.51415  -0.82260
O     0.31696   1.02151  -0.77948
C     0.45560  -0.95689   0.47736
Cl    0.44990  -1.49567   2.19324
C     1.10509  -1.96821  -0.49282
C     0.46254  -3.35342  -0.26159
C    -0.99690  -3.16082  -0.77259
C    -0.99646  -1.71557  -1.33004
C     0.45197  -1.59581  -1.84473
C    -1.00261  -0.77815  -0.11547
F    -2.01506  -1.06451   0.76457
H    -4.91001   2.87443  -1.01279
H    -3.72315   3.43351  -2.22864
H    -4.44294   1.80826  -2.37206
H    -3.02180   2.18700   0.16793
H     2.36918   1.55386  -1.44387
H     4.61337   2.00276  -1.78494
H     4.98040   0.56603  -0.78455
H     4.79098   2.16120  -0.01206
H     2.20085  -1.95968  -0.44418
H     1.00316  -4.09315  -0.86816
H     0.51416  -3.67796   0.78419
H    -1.74525  -3.29729   0.01828
H    -1.23605  -3.86171  -1.58374
H    -1.79708  -1.49601  -2.04487
H     0.71839  -0.61319  -2.24102
H     0.66828  -2.35790  -2.60654
