22
Generated by autodE on: 2022-05-31. E = -757.542842 Ha
C    -4.52560  -0.94238   0.37189
N    -3.09725  -0.72729   0.22824
C    -2.54556   0.45241   0.53236
O    -3.13737   1.44483   0.94731
C    -1.06171   0.52150   0.33229
O    -0.37905   1.58073   0.58481
C     1.06464   1.27471   0.26444
O     1.90495   2.12667   0.42277
C     0.97838  -0.04908  -0.16693
C     1.97321  -1.00963  -0.63420
O     1.66058  -2.16470  -0.95513
N     3.23959  -0.54143  -0.68692
C     4.33706  -1.38751  -1.10993
O    -0.34734  -0.46047  -0.10458
H    -4.75542  -1.97516   0.08721
H    -5.09202  -0.25420  -0.27450
H    -4.84246  -0.77453   1.41265
H    -2.51004  -1.48550  -0.10924
H     3.42891   0.41374  -0.39722
H     4.47207  -2.24566  -0.43143
H     5.25899  -0.79369  -1.11221
H     4.16934  -1.78287  -2.12418
