39
Generated by autodE on: 2022-05-31. E = -1589.305141 Ha. Imaginary frequency = -322.1 cm-1
C    -4.19783   1.96765  -1.82379
N    -3.07375   1.77611  -0.92558
C    -1.84171   1.54811  -1.39457
O    -1.52274   1.50637  -2.58317
C    -0.81075   1.26806  -0.35006
O    -0.95902   1.59333   0.93579
C     0.33644   1.47883   1.56331
O     0.46295   1.62704   2.75252
C     1.18274   1.16585   0.46119
C     2.62143   0.89990   0.45473
O     3.22547   0.75578   1.52648
N     3.21309   0.80491  -0.75374
C     4.59815   0.39507  -0.87868
O     0.46723   1.31245  -0.69198
C     0.13354  -1.24770   0.56441
Cl    0.25569  -1.55568   2.26292
C     0.94333  -2.04033  -0.43844
C     0.24441  -3.44457  -0.45108
C    -1.14575  -3.14530  -1.08281
C    -1.06632  -1.61970  -1.40953
C     0.42121  -1.47828  -1.77977
C    -1.07377  -0.92947  -0.05587
F    -2.21808  -0.83765   0.64912
H    -3.98345   2.76874  -2.54622
H    -4.41811   1.04621  -2.38673
H    -5.07811   2.24428  -1.23232
H    -3.23601   1.73579   0.07679
H     2.63612   0.84281  -1.58768
H     4.90909   0.50966  -1.92415
H     4.74006  -0.65713  -0.57923
H     5.24497   1.01907  -0.24498
H     2.02604  -2.05891  -0.26922
H     0.83691  -4.12601  -1.07818
H     0.17945  -3.87741   0.55601
H    -1.98147  -3.36928  -0.40516
H    -1.29981  -3.71183  -2.01198
H    -1.80624  -1.24938  -2.12815
H     0.69563  -2.13146  -2.61962
H     0.73012  -0.45538  -2.00611
