58
Generated by autodE on: 2022-06-06. E = -1400.443988 Ha
C     1.89904  -0.98226   3.63352
O     1.34335  -0.78421   2.33020
C     2.16326  -0.37702   1.36137
O     3.36848  -0.33494   1.49242
C     1.40563  -0.21654   0.01552
C     2.35843   0.36743  -1.03621
C     3.11679   1.51913  -0.76563
C     3.92953   2.08571  -1.74777
C     4.00791   1.51120  -3.02088
C     3.26264   0.36436  -3.29860
C     2.44453  -0.19954  -2.31446
N     0.90073  -1.53169  -0.37802
C     1.83685  -2.64315  -0.32743
C    -0.34147  -1.81292   0.31985
C    -1.03244  -0.44964   0.60072
C    -1.36353  -0.36746   2.10436
C    -2.04807  -1.55797   2.72472
O    -1.14152   0.63226   2.76092
C    -2.42358  -0.28894  -0.06102
C    -3.25513   0.77429   0.33020
C    -4.51506   0.96408  -0.24239
C    -4.98634   0.07692  -1.21176
C    -4.18557  -1.00419  -1.58846
C    -2.92523  -1.18751  -1.01570
C     0.06039   0.63331   0.16297
C     0.28110   1.84017   1.13382
C    -0.69615   2.98902   1.20620
O     1.33334   1.93146   1.74519
C    -0.19033   1.26849  -1.23568
C    -0.66233   0.45413  -2.40822
O     0.06556   2.45042  -1.39174
H     2.35366  -0.04850   3.99501
H     1.06026  -1.26840   4.27864
H     2.65603  -1.77908   3.61568
H     3.06392   1.98459   0.21604
H     4.50634   2.98418  -1.51541
H     4.64597   1.95548  -3.78855
H     3.31171  -0.09817  -4.28729
H     1.85528  -1.08384  -2.54869
H     1.39817  -3.50884  -0.84671
H     2.07226  -2.96110   0.70901
H     2.77767  -2.38359  -0.82932
H    -0.95024  -2.49950  -0.27777
H    -0.14367  -2.33100   1.27169
H    -1.28748  -2.14717   3.26295
H    -2.53493  -2.20887   1.98785
H    -2.77976  -1.20202   3.46288
H    -2.92827   1.46476   1.10482
H    -5.13061   1.80619   0.08196
H    -5.97153   0.21922  -1.66166
H    -4.54005  -1.71528  -2.33818
H    -2.33046  -2.03364  -1.35415
H    -0.95814   3.15101   2.26017
H    -0.17631   3.88696   0.84253
H    -1.60305   2.84675   0.61370
H    -0.12155   0.80479  -3.29730
H    -1.73188   0.66172  -2.56219
H    -0.52434  -0.62102  -2.27365
