27
Generated by autodE on: 2022-06-06. E = -632.451017 Ha
C     0.84346   2.58965   0.54607
N    -0.26515   2.03157   0.11303
C    -1.38226   2.95104  -0.20090
C    -0.42560   0.66616  -0.06682
C    -1.66404   0.08365  -0.46826
O    -2.75336   0.62298  -0.69887
O    -1.53827  -1.28142  -0.59532
C    -2.71283  -1.98836  -0.97733
C     0.76130  -0.19081   0.20190
C     1.75332  -0.36642  -0.77816
C     2.87186  -1.16507  -0.52701
C     3.01625  -1.79911   0.71181
C     2.03829  -1.62907   1.69699
C     0.92191  -0.82688   1.44395
H     1.69877   1.97004   0.80469
H     0.88170   3.67230   0.63658
H    -2.23433   2.72720   0.44794
H    -1.03751   3.97653  -0.03847
H    -1.68804   2.81167  -1.24251
H    -2.42927  -3.04778  -1.02512
H    -3.07854  -1.65952  -1.96280
H    -3.52066  -1.85581  -0.24043
H     1.63803   0.12744  -1.74635
H     3.63127  -1.29743  -1.30166
H     3.88947  -2.42596   0.90843
H     2.14543  -2.12313   2.66585
H     0.15632  -0.69326   2.21217
