31
Generated by autodE on: 2022-06-06. E = -767.948258 Ha
C    -3.16319   1.38162   1.63901
C    -2.37134   0.26161   1.03059
O    -2.82272  -0.87746   0.96809
C    -1.01189   0.54772   0.47818
C    -0.50377   1.96690   0.49344
C    -0.23499   2.62397  -0.83081
O    -0.40425   2.57104   1.55080
C    -0.27172  -0.47803  -0.01546
C    -0.81123  -1.89571  -0.08584
C    -0.57482  -2.76158   1.11681
O    -1.23341  -2.32057  -1.14933
C     1.12133  -0.33410  -0.49256
C     2.05739   0.40543   0.25570
C     3.36687   0.55404  -0.20258
C     3.75969  -0.03033  -1.41031
C     2.83955  -0.77863  -2.15280
C     1.53275  -0.94236  -1.69419
H    -4.15882   1.01728   1.92074
H    -3.25243   2.21736   0.92631
H    -2.63664   1.77248   2.52250
H     0.22778   1.94106  -1.55497
H    -1.21654   2.91926  -1.24366
H     0.37660   3.52550  -0.69195
H     0.49037  -3.05265   1.10642
H    -1.19124  -3.66880   1.05597
H    -0.76350  -2.21969   2.05308
H     1.76510   0.84259   1.21125
H     4.08457   1.12523   0.39039
H     4.78410   0.09043  -1.76974
H     3.14188  -1.23914  -3.09597
H     0.81583  -1.52139  -2.27709
