58
Generated by autodE on: 2022-06-06. E = -1400.403082 Ha. Imaginary frequency = -177.8 cm-1
C     2.98453  -0.49901   3.33331
O     2.32284  -0.80574   2.10108
C     2.64986  -0.06060   1.02949
O     3.48867   0.83398   1.10947
C     2.01145  -0.43484  -0.23358
C     2.74057   0.04983  -1.44102
C     2.79721   1.42275  -1.73870
C     3.52426   1.88457  -2.83783
C     4.21805   0.98564  -3.65370
C     4.18889  -0.37967  -3.35425
C     3.46401  -0.84197  -2.25383
N     1.02389  -1.38104  -0.35305
C     0.66083  -1.86490  -1.70843
C     0.25010  -1.84732   0.62903
C    -1.43443  -0.12854   1.02554
C    -1.85615  -0.73290   2.37249
C    -2.83408   0.12207   3.15259
O    -1.66674  -1.89974   2.67360
C    -2.55544  -0.35310   0.06113
C    -3.36408   0.74357  -0.29583
C    -4.47906   0.57128  -1.11592
C    -4.81600  -0.70122  -1.58616
C    -4.04178  -1.80250  -1.20813
C    -2.93210  -1.63372  -0.37860
C    -0.58054   0.97792   0.97831
C     0.07948   1.31163   2.26175
C     0.90843   2.54923   2.45885
O    -0.07314   0.54049   3.21819
C    -0.33980   1.79071  -0.23669
C    -0.66731   1.27279  -1.62136
O     0.14851   2.92220  -0.15986
H     4.06121  -0.70953   3.25292
H     2.83859   0.55437   3.60576
H     2.52765  -1.15029   4.08738
H     2.26124   2.13380  -1.11080
H     3.54700   2.95470  -3.05734
H     4.78616   1.34819  -4.51366
H     4.74146  -1.09019  -3.97361
H     3.46936  -1.90716  -2.01620
H     0.80284  -1.07552  -2.44853
H    -0.38845  -2.17369  -1.69498
H     1.29321  -2.72352  -1.96619
H     0.53618  -1.67520   1.65445
H    -0.40728  -2.67205   0.37644
H    -2.68550   1.19845   3.00349
H    -2.76941  -0.13465   4.21860
H    -3.84524  -0.13697   2.79629
H    -3.12019   1.73687   0.08417
H    -5.08941   1.43664  -1.38406
H    -5.68579  -0.83644  -2.23296
H    -4.30526  -2.80394  -1.55564
H    -2.35595  -2.50647  -0.07674
H     1.26176   2.56354   3.49832
H     0.31564   3.44869   2.24463
H     1.76539   2.56334   1.77171
H     0.21022   1.45690  -2.25712
H    -1.49533   1.87146  -2.03004
H    -0.94902   0.22016  -1.67293
