49
Generated by autodE on: 2022-05-31. E = -1112.243078 Ha
C    -0.57336  -4.17495  -0.83997
N    -0.65535  -2.72884  -0.88505
C     0.19202  -1.95486  -0.18980
O     1.10930  -2.44189   0.48584
C     0.12266  -0.41544  -0.41647
C    -1.17362   0.02800  -1.11320
C    -2.42556  -0.17814  -0.50712
C    -3.60548   0.24118  -1.12724
C    -3.56379   0.87336  -2.37259
C    -2.32674   1.08356  -2.98674
C    -1.14809   0.66783  -2.36208
N     1.31024  -0.07768  -1.22631
C     1.61959  -0.92368  -2.36587
C     2.45580   0.11883  -0.35711
C     1.93001   0.65392   0.97681
C     2.76829   0.08998   2.12454
C     1.89612   2.22722   1.08569
C     1.38962   2.84248  -0.20312
C     0.07343   2.60013  -0.21739
C    -0.20342   1.83246   1.06272
O     0.76053   2.40709   1.95067
C     0.37982   0.32988   0.94900
C    -0.24458  -0.41078   2.14056
C     0.03871   0.00373   3.56235
O    -1.05368  -1.30873   1.95602
H    -1.35091  -4.59624  -1.48902
H     0.41011  -4.52832  -1.18840
H    -0.72360  -4.55176   0.18482
H    -1.39804  -2.28994  -1.41714
H    -2.47695  -0.67379   0.45994
H    -4.56313   0.07138  -0.62907
H    -4.48601   1.20037  -2.85873
H    -2.27323   1.58175  -3.95781
H    -0.19260   0.87153  -2.83943
H     0.73102  -1.10248  -2.98396
H     2.03928  -1.90852  -2.07278
H     2.37249  -0.42117  -2.99378
H     2.99746  -0.83109  -0.18550
H     3.17477   0.81670  -0.82128
H     2.55881   0.58349   3.08102
H     2.61012  -0.99167   2.23755
H     3.83332   0.25475   1.89507
H     2.80291   2.65658   1.52698
H     2.00523   3.30772  -0.97226
H    -0.65860   2.83106  -0.98594
H    -1.21617   1.89035   1.47534
H     0.40515   1.02871   3.65465
H    -0.87837  -0.14571   4.14924
H     0.80306  -0.67898   3.96630
