28
Generated by autodE on: 2022-05-31. E = -612.582855 Ha
C    -1.07186  -2.85247  -1.09271
N    -1.05879  -1.54280  -0.92485
C    -2.14052  -0.79350  -1.60631
C    -0.16896  -0.78133  -0.18691
C     0.90262  -1.39609   0.55609
O     1.12713  -2.63331   0.60713
N     1.72231  -0.54851   1.26275
C     2.89925  -1.04337   1.93845
C    -0.32830   0.70245  -0.16977
C     0.19140   1.50205  -1.20428
C     0.07085   2.89378  -1.16806
C    -0.56180   3.51401  -0.08589
C    -1.07137   2.73560   0.95834
C    -0.95486   1.34370   0.91458
H    -1.86393  -3.27825  -1.70437
H    -0.30178  -3.44864  -0.61683
H    -1.71030  -0.12527  -2.36072
H    -2.68976  -0.19261  -0.87267
H    -2.81833  -1.50585  -2.08560
H     1.62687   0.45013   1.12638
H     2.64323  -1.82995   2.66576
H     3.64329  -1.47126   1.24167
H     3.37290  -0.21416   2.48040
H     0.69550   1.01929  -2.04514
H     0.47721   3.49651  -1.98401
H    -0.65391   4.60239  -0.05445
H    -1.56381   3.21413   1.80844
H    -1.35374   0.73544   1.72997
