21
Generated by autodE on: 2022-05-31. E = -499.581918 Ha
C     2.48960  -1.07764  -0.94265
C     1.80147   0.19510  -0.51629
O     2.34033   1.29278  -0.67332
C     0.47249   0.04956   0.08046
C    -0.47357   0.99258   0.30870
C    -0.50862   2.45413   0.08399
C    -1.70590   0.19242   0.79508
C    -2.23631  -0.58722  -0.42793
C    -1.31285  -1.52622  -0.65634
C    -0.23243  -1.29158   0.42260
O    -1.05369  -0.86107   1.52429
H     3.43136  -0.84413  -1.45611
H     2.69648  -1.70488  -0.05965
H     1.83453  -1.66667  -1.60551
H     0.42489   2.82672  -0.35182
H    -0.69910   2.97934   1.03640
H    -1.35699   2.70458  -0.57779
H    -2.43265   0.74044   1.40499
H    -3.14085  -0.34308  -0.98365
H    -1.25551  -2.26971  -1.45076
H     0.40485  -2.13917   0.69294
