49
Generated by autodE on: 2022-05-31. E = -1112.169660 Ha. Imaginary frequency = -249.7 cm-1
C    -1.22907  -3.82023   0.59418
N    -1.03208  -2.56675  -0.09782
C     0.18936  -2.00907  -0.32167
O     1.24008  -2.60705  -0.00771
C     0.16132  -0.70264  -1.00105
C    -1.07722  -0.33413  -1.75237
C    -2.08709   0.42633  -1.13978
C    -3.25859   0.74316  -1.83456
C    -3.43670   0.30356  -3.14901
C    -2.44518  -0.47005  -3.76227
C    -1.27916  -0.79321  -3.06590
N     1.31321  -0.01732  -1.25164
C     1.31629   0.94249  -2.37345
C     2.42023  -0.08635  -0.48886
C     1.88428   0.79724   1.58941
C     2.97696   0.02260   2.26594
C     2.06743   2.34906   1.47231
C     1.56143   2.81472   0.11050
C     0.23392   2.65809   0.16480
C    -0.04215   2.10752   1.56225
O     0.98706   2.79224   2.32514
C     0.49938   0.65832   1.67959
C    -0.35227  -0.37995   2.21436
C     0.26581  -1.59554   2.86612
O    -1.59242  -0.25011   2.22258
H    -1.86147  -4.50084   0.00154
H    -0.25608  -4.29855   0.75473
H    -1.71320  -3.66675   1.57227
H    -1.85225  -2.00794  -0.30487
H    -1.96045   0.74463  -0.10529
H    -4.03424   1.33604  -1.34412
H    -4.35034   0.55491  -3.69298
H    -2.58287  -0.82727  -4.78562
H    -0.51077  -1.40699  -3.54158
H     1.27358   0.37890  -3.31480
H     2.24249   1.52155  -2.34311
H     0.45672   1.61595  -2.32225
H     2.57230  -1.00478   0.06030
H     3.27955   0.48635  -0.83432
H     3.02131   0.32602   3.32762
H     2.82760  -1.06222   2.23081
H     3.95593   0.25258   1.81922
H     3.03985   2.72275   1.81274
H     2.19177   3.12504  -0.71997
H    -0.51310   2.80036  -0.61397
H    -1.03951   2.26121   1.98471
H     0.88317  -1.28723   3.72456
H    -0.53342  -2.26042   3.21872
H     0.91702  -2.14175   2.17017
