71
Generated by autodE on: 2022-06-15. E = -2055.525567 Ha
C     6.34500  -6.87605   4.05193
O     6.73103  -7.25548   2.72283
C     5.87723  -7.01250   1.75047
O     4.81855  -6.43487   1.90769
C     6.34479  -7.51584   0.36542
C     7.75388  -6.92459   0.05914
C     8.44528  -7.36665  -1.20436
O     8.17505  -5.98707   0.71294
N     5.51142  -6.87786  -0.64309
C     4.93085  -7.88135  -1.53929
C     5.64007  -7.74073  -2.90807
O     6.16245  -8.64470  -3.52565
O     5.65197  -6.47838  -3.32952
C     6.30866  -6.22170  -4.58000
C     3.42288  -7.62130  -1.64290
C     2.77664  -7.24698  -2.82693
C     1.39451  -7.03701  -2.84251
C     0.64254  -7.19238  -1.67549
C     1.28463  -7.54960  -0.48514
C     2.66410  -7.75753  -0.47017
C     5.29875  -9.24881  -0.90417
C     6.13535  -9.03441   0.14623
C     6.79465 -10.00521   1.12878
Cl    8.54999  -9.34536   1.40257
C     6.07927 -10.02472   2.48715
C     6.75271 -10.43054   3.65032
C     6.08031 -10.52896   4.86835
C     4.71560 -10.22994   4.94921
C     4.03644  -9.82939   3.79814
C     4.71326  -9.72794   2.57784
C     7.04256 -11.46792   0.71340
C     7.88132 -11.75730  -0.52334
C     7.32107 -11.22983  -1.83913
C     5.83738 -11.50842  -2.08347
C     4.72404 -10.57135  -1.46399
C     3.70058 -10.38149  -2.61311
C     3.87774 -11.27659  -0.37328
H     6.24872  -5.78299   4.11894
H     5.39157  -7.35043   4.32022
H     7.14703  -7.23048   4.70823
H     9.53171  -7.30726  -1.05543
H     8.16270  -8.37462  -1.52046
H     8.17463  -6.65826  -2.00378
H     4.78812  -6.33047  -0.18240
H     6.21705  -5.14338  -4.75246
H     7.36749  -6.51089  -4.52015
H     5.82056  -6.78137  -5.39076
H     3.33580  -7.13456  -3.75555
H     0.90461  -6.75265  -3.77667
H    -0.43787  -7.03150  -1.69154
H     0.70984  -7.66957   0.43605
H     3.15810  -8.03176   0.46187
H     7.81961 -10.65172   3.60651
H     6.62819 -10.83834   5.76154
H     4.19003 -10.30402   5.90395
H     2.97223  -9.58683   3.84128
H     4.16381  -9.41251   1.69413
H     7.51965 -11.94400   1.58171
H     6.07005 -11.96101   0.62080
H     8.90447 -11.37954  -0.37537
H     7.96149 -12.85610  -0.58691
H     7.88646 -11.70236  -2.65926
H     7.51306 -10.15449  -1.93924
H     5.60461 -12.54589  -1.78895
H     5.69520 -11.47014  -3.17177
H     2.76586  -9.92174  -2.27515
H     4.10053  -9.80555  -3.45423
H     3.44807 -11.38333  -2.99214
H     3.47048 -12.21257  -0.78569
H     4.41006 -11.52536   0.54711
H     3.02859 -10.63669  -0.09215
