36
Generated by autodE on: 2022-06-15. E = -1081.608198 Ha
C    -3.91947  -1.11282   0.48213
C    -3.09889   0.18130   0.59534
C    -3.99520   1.39726   0.29730
C    -1.93438   0.17866  -0.29551
C    -0.79746   0.31639  -0.69709
C     0.61772   0.61323  -0.56750
Cl    1.17067   1.60772  -2.06179
C     1.51197  -0.61693  -0.47772
C     2.90676  -0.46258  -0.41191
C     3.73749  -1.57387  -0.27401
C     3.18818  -2.85988  -0.19835
C     1.80340  -3.02107  -0.26434
C     0.96970  -1.90544  -0.40314
C     0.74999   1.54292   0.66805
C     0.10187   0.99389   1.95815
C    -1.38218   1.35595   2.25208
C    -2.47120   0.28601   2.02360
H    -3.28851  -1.99796   0.65516
H    -4.72625  -1.11155   1.23178
H    -4.37696  -1.20227  -0.51522
H    -4.39337   1.34675  -0.72759
H    -3.44130   2.34167   0.40263
H    -4.84462   1.41167   0.99808
H     3.34519   0.53424  -0.48570
H     4.82039  -1.43660  -0.22754
H     3.83981  -3.73017  -0.09086
H     1.36277  -4.01923  -0.20783
H    -0.11181  -2.03900  -0.44954
H     1.82209   1.72206   0.83590
H     0.29584   2.51083   0.40883
H     0.70156   1.40196   2.78629
H     0.24147  -0.09936   2.00974
H    -1.43548   1.61468   3.32130
H    -1.64719   2.28432   1.71841
H    -2.05999  -0.70243   2.28829
H    -3.30863   0.47181   2.71710
