35
Generated by autodE on: 2022-07-27. E = -973.856181 Ha
C     0.28328   0.37858  -4.03475
O    -0.19773  -0.16274  -2.79437
C    -0.01534   0.58685  -1.71457
O     0.44076   1.71146  -1.71608
C    -0.60106  -0.03680  -0.48079
N     0.06475   0.01546   0.64929
C     1.39713   0.25232   0.95247
C     2.41624  -0.06560  -0.01434
C     3.88035   0.04451   0.33708
O     2.09932  -0.47007  -1.15024
C     1.54681   0.53410   2.37361
O     0.58680   0.55335   3.14540
O     2.79746   0.77456   2.78522
C     2.97509   1.04456   4.18068
C    -1.97681  -0.53231  -0.48536
C    -2.89603  -0.09071  -1.46130
C    -4.21685  -0.53190  -1.43424
C    -4.64419  -1.42301  -0.44359
C    -3.73913  -1.87529   0.52236
C    -2.41561  -1.43988   0.50222
H    -0.23296   1.32089  -4.26737
H     0.06264  -0.37565  -4.79820
H     1.36638   0.55506  -3.97161
H    -0.48339  -0.14286   1.50634
H     4.46377  -0.24378  -0.54714
H     4.14174  -0.60583   1.18391
H     4.13434   1.07328   0.63100
H     4.04886   1.21834   4.31778
H     2.65060   0.18689   4.78768
H     2.40635   1.93717   4.47930
H    -2.58318   0.61453  -2.23209
H    -4.91937  -0.17443  -2.19002
H    -5.67941  -1.77086  -0.42951
H    -4.06194  -2.58382   1.28806
H    -1.71340  -1.83367   1.24004
