19
Generated by autodE on: 2022-06-20. E = -721.999785 Ha
C     3.84415   1.61518   0.39897
O     2.46721   1.20849   0.25289
C     2.22558  -0.08416   0.31770
O     3.01823  -0.97834   0.49013
C     0.76507  -0.36412   0.14080
O     0.28234  -1.54815   0.15343
C    -1.23508  -1.41867  -0.07745
O    -1.89955  -2.41218  -0.10445
C    -1.36020  -0.02603  -0.19255
C    -2.53668   0.78575  -0.40308
C    -2.34123   2.27765  -0.46594
O    -3.63866   0.24801  -0.52104
O    -0.10708   0.56454  -0.05031
H     4.45254   1.15942  -0.39445
H     4.22082   1.30729   1.38415
H     3.84166   2.70613   0.30754
H    -3.31397   2.76391  -0.61223
H    -1.87436   2.64345   0.46260
H    -1.66408   2.53891  -1.29512
