39
Generated by autodE on: 2022-06-20. E = -1179.728105 Ha. Imaginary frequency = -194.2 cm-1
C     4.20821  -0.83136  -1.11211
O     2.86818  -0.29797  -1.13900
C     2.37837   0.12114   0.01325
O     2.94602   0.12516   1.08158
C     0.95787   0.57030  -0.12838
O     0.45859   0.92381  -1.31082
C    -0.71209   1.74643  -1.05916
O    -1.40736   2.08366  -1.99059
C    -0.71058   1.89891   0.34749
C    -1.72234   2.25434   1.29170
C    -2.95898   2.94193   0.77398
O    -1.59353   1.97542   2.49700
O     0.45933   1.30952   0.84580
C    -1.34757  -0.97258   0.10042
N    -1.96375  -1.06166  -1.07652
C    -3.30706  -0.52230  -1.27430
C    -1.29625  -1.62456  -2.19051
C    -0.12226  -2.24892  -2.04863
C     0.53562  -2.41093  -0.70775
C    -0.02558  -1.42371   0.30578
C     0.46802  -1.61136   1.70612
N    -0.06397  -0.86323   2.69994
O     1.33941  -2.46370   1.92859
H     4.26057  -1.67006  -0.40447
H     4.41239  -1.17112  -2.13274
H     4.91664  -0.04581  -0.81566
H    -2.95259   3.98635   1.12809
H    -3.01936   2.94109  -0.32123
H    -3.84579   2.45251   1.20366
H    -1.93654  -0.53992   0.90828
H    -3.64233  -0.03542  -0.35152
H    -4.00288  -1.33281  -1.53706
H    -3.28852   0.21430  -2.08878
H    -1.81806  -1.50672  -3.13985
H     0.35462  -2.68388  -2.92896
H     0.38404  -3.44452  -0.33835
H     1.62575  -2.31036  -0.79992
H     0.37110  -0.96225   3.61262
H    -0.58030   0.00073   2.53842
