36
Generated by autodE on: 2022-06-17. E = -725.769906 Ha
C     0.14889   3.10513   0.42792
N    -0.43709   1.81749   0.12298
C    -1.66362   1.72913  -0.50048
C    -2.23333   0.57477  -0.90254
C    -1.53922  -0.74628  -0.74392
C    -0.35826  -0.69516   0.24883
C    -0.83958  -0.93261   1.68563
N     0.07047  -1.47726   2.50928
O    -1.97188  -0.60462   2.05210
C     0.41230   0.65547   0.19753
C     1.47061   0.43139  -0.95833
C     2.86307   0.82394  -0.46260
C     1.12684   1.18416  -2.24119
N     1.42497  -1.02668  -1.22515
N     0.75681  -1.60704  -0.09447
C     0.40968  -2.98957  -0.35908
H     0.79684   3.49678  -0.37883
H    -0.64682   3.84224   0.60940
H     0.76091   3.03279   1.34139
H    -2.18108   2.68519  -0.61743
H    -3.22839   0.60226  -1.35084
H    -2.24830  -1.52245  -0.41598
H    -1.15593  -1.09023  -1.72236
H     0.97574  -1.74170   2.13362
H    -0.15602  -1.62927   3.48659
H     0.98449   0.73641   1.13294
H     2.88373   1.88002  -0.15125
H     3.61221   0.67993  -1.25683
H     3.15312   0.20716   0.40179
H     1.24687   2.26823  -2.10885
H     0.09377   0.99001  -2.56347
H     1.80736   0.86893  -3.04835
H     0.81282  -1.16478  -2.04089
H    -0.14107  -3.40396   0.49662
H    -0.21130  -3.11688  -1.26886
H     1.33186  -3.57323  -0.49705
