16
Generated by autodE on: 2022-06-17. E = -268.015559 Ha
C     2.55910   0.20531  -0.28426
N     1.20100   0.69562  -0.24774
N     0.35302  -0.30150  -0.06958
C    -0.94406  -0.20910   0.14352
C    -1.76499  -1.45254   0.22521
C    -1.54079   1.15002   0.24251
H     2.68965  -0.69451  -0.92515
H     3.21493   0.98861  -0.69339
H     2.97039  -0.06130   0.71482
H     0.71892  -1.26550  -0.11641
H    -2.34224  -1.48841   1.16620
H    -2.50344  -1.50553  -0.59643
H    -1.13717  -2.35612   0.17289
H    -0.99165   1.76605   0.97747
H    -2.59933   1.09629   0.53221
H    -1.46826   1.69367  -0.71902
