16
Generated by autodE on: 2022-07-27. E = -268.015565 Ha
C    -1.04979  -2.21746  -0.80810
N    -0.06537  -1.40273  -0.13503
N    -0.31997  -0.12002  -0.32130
C     0.28407   0.89987   0.25435
C     1.34100   0.61109   1.26067
C    -0.07180   2.28959  -0.15643
H    -2.03136  -2.26394  -0.28587
H    -0.68003  -3.25209  -0.87082
H    -1.26540  -1.88676  -1.84807
H    -1.05352   0.13695  -1.00040
H     1.68270   1.53380   1.74975
H     2.21608   0.11681   0.79662
H     0.97018  -0.09293   2.02748
H    -0.37018   2.89929   0.71492
H    -0.90107   2.29742  -0.88135
H     0.78801   2.80777  -0.62051
