36
Generated by autodE on: 2022-06-17. E = -725.708069 Ha. Imaginary frequency = -392.0 cm-1
C    -0.10048   3.32001   0.05378
N    -0.61369   1.99763  -0.26199
C    -1.96357   1.87345  -0.55005
C    -2.60677   0.68992  -0.55839
C    -1.83909  -0.58338  -0.31097
C    -0.64338  -0.31633   0.57003
C    -0.46735  -1.12904   1.77215
N     0.50194  -0.77932   2.67373
O    -1.19312  -2.11757   2.01947
C     0.07237   0.89410   0.32572
C     1.58578   0.36696  -1.00517
C     2.78753   0.41599  -0.09117
C     1.60531   1.32665  -2.16539
N     1.14042  -0.88858  -1.34704
N     0.91848  -1.76481  -0.40389
C     0.24583  -2.95100  -0.86740
H     0.99402   3.33436  -0.03297
H    -0.50650   4.06001  -0.65069
H    -0.36324   3.63716   1.08238
H    -2.47187   2.81581  -0.77054
H    -3.67142   0.65270  -0.79896
H    -2.47034  -1.35908   0.14228
H    -1.50753  -0.99940  -1.28943
H     1.24348  -0.14080   2.41430
H     0.74587  -1.48980   3.35604
H     0.74273   1.23872   1.11655
H     2.93882   1.43729   0.28595
H     3.69706   0.12150  -0.64549
H     2.67513  -0.26153   0.76389
H     1.66740   2.36285  -1.81063
H     0.69884   1.23268  -2.78161
H     2.48549   1.14661  -2.80800
H     0.55220  -0.94056  -2.19292
H    -0.36675  -3.34663  -0.04432
H    -0.40457  -2.77212  -1.74681
H     0.97652  -3.73415  -1.14218
