29
Generated by autodE on: 2022-07-27. E = -857.261395 Ha
C     3.89586  -0.11779   1.99977
O     3.13159  -0.81135   1.00387
C     1.96930  -0.25099   0.64389
O     1.55196   0.79393   1.11294
C     1.35653  -1.04503  -0.42726
N     0.19402  -0.78281  -0.99297
C    -0.04452  -1.46584  -2.29360
C    -0.80242  -0.00293  -0.43400
C    -1.02691   0.00136   1.01308
O    -1.65157   0.85320   1.62406
O    -0.52691  -1.09058   1.62684
C    -0.55771  -1.09573   3.05580
C    -1.67197   0.80439  -1.27916
O    -2.74949   1.27903  -0.94686
O    -1.14624   1.02494  -2.50486
C    -1.97573   1.71568  -3.44273
H     4.18496   0.87947   1.63736
H     4.78713  -0.73027   2.17692
H     3.31277  -0.01438   2.92661
H     1.95537  -1.84418  -0.86113
H     0.37870  -2.47468  -2.22131
H     0.45565  -0.91255  -3.09570
H    -1.11888  -1.52920  -2.48226
H    -0.04283  -0.20983   3.45570
H    -0.03209  -2.00674   3.36620
H    -1.59298  -1.11351   3.42681
H    -2.92037   1.17480  -3.60310
H    -2.19817   2.73365  -3.09054
H    -1.40401   1.75872  -4.37747
