29
Generated by autodE on: 2022-06-01. E = -857.256977 Ha
C     5.21225  -0.31105  -0.04321
O     3.81508  -0.60954  -0.12282
C     2.96602   0.40591   0.14455
O     3.36661   1.52446   0.43520
C     1.60371  -0.10360   0.01997
N     0.46918   0.56609   0.20425
C     0.52096   1.99842   0.60320
C    -0.78072   0.03090   0.02899
C    -1.96136   0.82013   0.47494
O    -2.09898   1.30204   1.58492
O    -2.87837   0.95026  -0.48978
C    -4.11632   1.57465  -0.12101
C    -0.98584  -1.31411  -0.48220
O    -0.13159  -2.06042  -0.95138
O    -2.27324  -1.70227  -0.36235
C    -2.60435  -2.99656  -0.87320
H     5.48414   0.47382  -0.76454
H     5.48177   0.02118   0.97049
H     5.73489  -1.24382  -0.28564
H     1.50752  -1.14360  -0.26963
H     0.29253   2.07470   1.67143
H     1.51929   2.38405   0.40353
H    -0.22385   2.55155   0.02200
H    -3.94438   2.61052   0.20500
H    -4.60278   1.01247   0.68953
H    -4.74144   1.55941  -1.02125
H    -2.04210  -3.78075  -0.34485
H    -2.38776  -3.05923  -1.94998
H    -3.67948  -3.12224  -0.69842
