45
Generated by autodE on: 2022-06-01. E = -1303.373537 Ha. Imaginary frequency = -274.3 cm-1
C     3.77275  -0.77080   2.31686
O     3.08212  -1.14540   1.12031
C     1.73237  -1.05146   1.15009
O     1.13125  -0.66943   2.13773
C     1.21459  -1.48997  -0.14537
N    -0.05090  -1.61689  -0.59124
C    -0.14502  -2.36124  -1.86913
C    -1.07489  -0.79287  -0.15643
C    -1.33216  -0.68461   1.31894
O    -1.70550   0.30635   1.90973
O    -1.26088  -1.89702   1.89127
C    -1.47754  -1.94551   3.30608
C    -2.29759  -0.48248  -0.92905
O    -3.18917   0.21930  -0.47103
O    -2.34697  -0.95490  -2.17662
C    -3.43778  -0.50635  -2.98958
C     0.08754   1.16405  -0.97643
F    -0.54638   1.14259  -2.17187
C    -0.19612   2.32539  -0.02168
C     0.56128   3.54334  -0.60781
C     1.85628   3.25228  -0.44076
C     1.87143   1.85769   0.23657
O     0.68273   1.95206   1.04248
C     1.43289   0.86013  -0.86090
C     2.34123   0.51702  -1.99841
H     3.55754   0.27374   2.58464
H     3.48120  -1.42514   3.15184
H     4.84044  -0.89115   2.09908
H     1.94801  -2.04858  -0.72159
H     0.69817  -3.05700  -1.91334
H    -0.10246  -1.67239  -2.72052
H    -1.08179  -2.92284  -1.89797
H    -1.32234  -2.99013   3.60087
H    -2.50300  -1.63196   3.55085
H    -0.76094  -1.29399   3.82489
H    -4.40063  -0.80284  -2.55018
H    -3.40650   0.58745  -3.09910
H    -3.30107  -0.98884  -3.96440
H    -1.22900   2.46391   0.31053
H     0.09536   4.40675  -1.08113
H     2.73925   3.81482  -0.74214
H     2.75331   1.60097   0.83216
H     3.26888   0.04073  -1.64832
H     1.85418  -0.15424  -2.71927
H     2.62435   1.44339  -2.53494
