50
Generated by autodE on: 2022-06-22. E = -1261.746243 Ha
C    -1.30553   0.56994   3.47735
O    -1.41060   0.32608   2.06488
C    -1.11981   1.33881   1.25952
O    -0.81603   2.44587   1.65862
C    -1.19061   0.98119  -0.24766
C    -1.90001   2.15913  -0.93318
N    -1.82640  -0.31631  -0.45113
C    -3.26676  -0.38023  -0.56170
C    -1.00036  -1.25531  -1.19486
C    -1.20067  -1.25539  -2.72955
C    -1.34641  -2.63787  -0.77478
N    -1.77445  -3.70424  -0.60613
C     0.42667  -0.76596  -0.75710
O     1.48754  -1.15312  -1.58579
C     1.85630  -2.53006  -1.62555
C     0.75685  -1.20340   0.69336
O     0.41059  -2.30387   1.08699
C     1.60390  -0.33216   1.54336
C     2.09885  -0.91314   2.83058
C     1.87240   0.95978   1.20442
C     2.68049   1.85129   2.09158
C     1.32818   1.55325  -0.03663
O     1.66799   2.65910  -0.42201
C     0.26871   0.77838  -0.83926
O     0.23625   1.26256  -2.14974
C     1.40763   1.25642  -2.96429
H    -1.50246  -0.39243   3.96234
H    -0.29689   0.92691   3.72639
H    -2.04901   1.31706   3.78860
H    -1.27588   3.05909  -0.87105
H    -2.09220   1.93098  -1.98654
H    -2.85540   2.36600  -0.43167
H    -3.72440   0.17273   0.27225
H    -3.59581  -1.42678  -0.47722
H    -3.66658   0.02884  -1.50805
H    -0.49485  -1.94297  -3.21494
H    -2.22047  -1.59444  -2.95979
H    -1.05528  -0.24783  -3.12856
H     1.00559  -3.17924  -1.88409
H     2.61720  -2.61310  -2.41261
H     2.28917  -2.86944  -0.67150
H     1.71742  -0.33015   3.68453
H     1.78348  -1.95591   2.94492
H     3.19858  -0.86240   2.87908
H     2.88161   2.81324   1.60654
H     2.13566   2.03807   3.03253
H     3.63457   1.37543   2.36584
H     1.43842   2.21969  -3.49556
H     1.34972   0.43932  -3.69904
H     2.33177   1.14095  -2.38560
