24
Generated by autodE on: 2022-07-27. E = -572.245350 Ha
C     0.96420   2.70128   2.25482
O     0.68038   1.57987   1.41492
C     0.00028   1.83279   0.27502
O    -0.26971   2.97950  -0.07401
C    -0.30982   0.65513  -0.52144
C    -0.78191   0.87673  -1.92342
N    -0.22114  -0.60398  -0.00962
C    -0.53766  -0.87065   1.41244
C     0.08692  -1.67134  -0.78609
C     0.88331  -1.54303  -2.04829
C    -0.22542  -2.96882  -0.32604
N    -0.44573  -4.07264  -0.00451
H     1.48592   2.29854   3.13136
H     1.60805   3.42591   1.73452
H     0.03614   3.20340   2.56681
H    -1.33093   1.82862  -1.94929
H     0.01775   0.94712  -2.68028
H    -1.46082   0.06655  -2.22926
H    -1.03966  -0.00603   1.84876
H     0.37854  -1.10760   1.96681
H    -1.21918  -1.72956   1.45092
H     1.43126  -2.47972  -2.22441
H     0.28006  -1.33866  -2.94739
H     1.60925  -0.72084  -1.94040
