26
Generated by autodE on: 2022-06-22. E = -689.460854 Ha
C    -2.88151  -1.45050  -0.41393
O    -2.01566  -0.55083  -1.11398
C    -0.83052  -0.26155  -0.50002
C    -0.55964   0.95036   0.06168
O    -1.34311   2.02261   0.17408
C    -2.70622   2.03565  -0.26222
C     0.80238   1.21624   0.64606
O     1.03113   2.31557   1.13170
C     1.82758   0.14160   0.63228
C     3.16012   0.44429   1.24473
C     1.54424  -1.06351   0.07877
C     2.54592  -2.17412   0.04314
C     0.20756  -1.31419  -0.53994
O    -0.03761  -2.38482  -1.09323
H    -3.77977  -1.56687  -1.03469
H    -2.40774  -2.43261  -0.26941
H    -3.16658  -1.03174   0.56559
H    -3.07831   3.03784  -0.01430
H    -2.77680   1.86970  -1.34486
H    -3.29900   1.28158   0.27480
H     3.19496   1.46859   1.63390
H     3.37817  -0.25518   2.06856
H     3.96694   0.31934   0.50385
H     3.45445  -1.86190  -0.49820
H     2.86632  -2.44126   1.06382
H     2.13375  -3.06546  -0.44380
