14
Generated by autodE on: 2022-06-18. E = -270.683219 Ha
C    -1.43283   0.68597   0.00496
C    -0.63613  -0.57904   0.14963
C    -1.41843  -1.82388   0.42633
C     0.72016  -0.62735   0.04296
C     1.59454   0.50525  -0.22179
O     1.25370   1.67503  -0.38254
H    -1.13788   1.42376   0.76838
H    -2.50993   0.48968   0.09998
H    -1.23974   1.16577  -0.96722
H    -2.00820  -1.69792   1.35145
H    -0.78086  -2.71332   0.52376
H    -2.15361  -1.99176  -0.38037
H     1.22544  -1.59031   0.16156
H     2.67829   0.23984  -0.27665
