23
Generated by autodE on: 2022-07-27. E = -609.192136 Ha
C     3.19057   1.37648   0.55443
O     3.52282   0.44033  -0.47357
C     2.55666  -0.33888  -1.00892
O     2.87934  -1.13486  -1.89952
N     1.31702  -0.15367  -0.49634
N     0.44266  -0.97211  -1.09700
C    -0.83707  -1.07577  -0.86968
C    -1.64037  -0.34062   0.08264
C    -1.14419   0.65482   0.95594
C    -2.01004   1.30141   1.83694
C    -3.37035   0.97513   1.86725
C    -3.87248  -0.00876   1.00663
C    -3.01749  -0.66047   0.12304
H     2.45930   2.11638   0.19748
H     2.78674   0.86700   1.44156
H     4.12948   1.88231   0.81512
H     0.85171  -1.58443  -1.82296
H    -1.33372  -1.82077  -1.49364
H    -0.08610   0.90451   0.92833
H    -1.61866   2.06916   2.50828
H    -4.04042   1.48741   2.56161
H    -4.93367  -0.26613   1.02696
H    -3.40557  -1.42876  -0.54996
