23
Generated by autodE on: 2022-06-18. E = -609.193663 Ha
C     5.11296  -0.08250  -0.31162
O     4.00003   0.18661   0.53996
C     2.77371   0.00976  -0.00454
O     2.61702  -0.36305  -1.17446
N     1.80656   0.29459   0.90040
N     0.59897   0.11351   0.34465
C    -0.53673   0.30215   0.94878
C    -1.83803   0.10171   0.34199
C    -2.02582  -0.34014  -0.98628
C    -3.31147  -0.50593  -1.49332
C    -4.43020  -0.23724  -0.69302
C    -4.25578   0.19932   0.62372
C    -2.97117   0.36764   1.13855
H     6.01037   0.11482   0.28810
H     5.11271  -1.13139  -0.64585
H     5.10482   0.57419  -1.19513
H     0.61709  -0.20064  -0.64151
H    -0.47628   0.63586   1.98720
H    -1.16973  -0.55734  -1.62913
H    -3.44507  -0.84788  -2.52192
H    -5.43593  -0.36933  -1.09819
H    -5.12401   0.40995   1.25190
H    -2.83028   0.70850   2.16688
