37
Generated by autodE on: 2022-06-18. E = -879.842453 Ha. Imaginary frequency = -391.2 cm-1
C     3.82390   2.33379  -0.96629
O     2.47515   1.85666  -0.86575
C     2.03665   1.52971   0.35657
O     2.68108   1.69436   1.37642
N     0.76764   0.95238   0.37430
N     0.16187   0.87635  -0.79156
C    -0.88866  -0.01071  -0.90183
C    -2.04021   0.06809   0.04376
C    -1.91857   0.25382   1.43269
C    -3.05704   0.29230   2.24074
C    -4.33076   0.13457   1.68509
C    -4.46159  -0.05796   0.30688
C    -3.32572  -0.09086  -0.50390
C    -0.01680  -1.67674  -0.70228
C    -1.15424  -2.65412  -0.41258
C     0.57818  -1.89655  -2.09025
C     0.87938  -1.47604   0.39834
C     2.30767  -1.28488   0.34395
O     3.02003  -1.20388  -0.66538
H     3.95619   3.24420  -0.36493
H     3.98858   2.55146  -2.02778
H     4.52071   1.55580  -0.62371
H     0.73657   1.00090  -1.63339
H    -1.22269  -0.06494  -1.94106
H    -0.93235   0.36953   1.87502
H    -2.94574   0.44153   3.31743
H    -5.21674   0.16009   2.32391
H    -5.45059  -0.18186  -0.14043
H    -3.43274  -0.23993  -1.58096
H    -1.97210  -2.54076  -1.13863
H    -0.76677  -3.68197  -0.50133
H    -1.56299  -2.52766   0.59853
H    -0.22898  -2.01930  -2.82800
H     1.22624  -1.07027  -2.40557
H     1.18996  -2.81218  -2.09891
H     0.47480  -1.59757   1.40567
H     2.78006  -1.21063   1.35091
