52
Generated by autodE on: 2022-06-05. E = -1358.902554 Ha
C    -1.81165   4.50618   0.85960
O    -1.56900   3.41664  -0.04733
C    -1.82632   2.19624   0.40148
O    -2.31971   1.95226   1.48229
C    -1.40968   1.13742  -0.63095
O    -0.04865   1.33369  -1.00231
C     0.76612   0.72368  -0.00480
C     0.86545   1.71272   1.11446
N     1.03366   2.63155   1.80362
C     2.20799   0.59984  -0.49151
C     2.66786   1.42205  -1.52737
C     3.99830   1.33958  -1.94373
C     4.87792   0.45012  -1.31889
C     4.42291  -0.35252  -0.26865
C     3.09238  -0.27536   0.14991
C     0.02096  -0.62640   0.32266
C     0.17759  -0.97798   1.80604
O     0.13799  -0.15658   2.69870
O     0.43192  -2.26560   2.02107
C     0.53712  -2.67722   3.39125
C     0.38194  -1.82271  -0.62295
C     0.50622  -1.40958  -2.10752
C    -0.95194  -1.07988  -2.51987
C    -1.74386  -1.38681  -1.23733
C    -0.96114  -2.57822  -0.66718
C    -1.48380  -0.30961  -0.11225
C    -2.58948  -0.57553   0.91029
C    -3.99819  -0.18591   0.52565
O    -2.38706  -1.23721   1.91409
H    -1.16512   4.40365   1.74283
H    -1.56165   5.41862   0.30707
H    -2.86606   4.51992   1.16857
H    -2.01528   1.30238  -1.53197
H     1.98054   2.11463  -2.01327
H     4.34848   1.97537  -2.76003
H     5.91786   0.38585  -1.64686
H     5.10491  -1.04505   0.22944
H     2.75302  -0.90565   0.97347
H    -0.40662  -2.47435   3.91756
H     0.73736  -3.75434   3.36722
H     1.35953  -2.14596   3.89061
H     1.24199  -2.39079  -0.25847
H     1.19899  -0.58576  -2.29191
H     0.88717  -2.27878  -2.66340
H    -1.30670  -1.74533  -3.32037
H    -1.07726  -0.05067  -2.87855
H    -2.81474  -1.54153  -1.41437
H    -0.93401  -3.43233  -1.35932
H    -1.31735  -2.92112   0.31093
H    -4.52940  -1.10566   0.23089
H    -4.50789   0.22466   1.40747
H    -4.05364   0.52758  -0.30590
