28
Generated by autodE on: 2022-06-05. E = -653.567825 Ha
C     3.57618  -1.46324   0.41515
O     2.23037  -1.39409  -0.07307
C     1.57247  -0.24287   0.13102
O     2.07793   0.71684   0.69176
C     0.19729  -0.29655  -0.38800
C    -0.73926   0.67428  -0.24320
C    -0.64428   2.00613   0.41444
C     0.19184   3.06353  -0.24338
O    -1.32138   2.22254   1.41178
C    -2.07415   0.06517  -0.64702
C    -2.42298  -0.94767   0.49587
C    -1.35324  -2.06007   0.31549
C    -0.51277  -1.54041  -0.89690
C    -1.61488  -0.89598  -1.76092
H     3.60066  -1.30125   1.50265
H     4.20457  -0.70746  -0.07833
H     3.93474  -2.47046   0.17345
H     0.32988   3.91764   0.43390
H     1.15826   2.65899  -0.57090
H    -0.34931   3.40204  -1.14482
H    -2.86721   0.78680  -0.87586
H    -3.44032  -1.33588   0.34027
H    -2.38945  -0.46135   1.47969
H    -0.72563  -2.20606   1.20590
H    -1.81608  -3.02559   0.06422
H     0.13091  -2.29332  -1.36425
H    -2.39939  -1.60511  -2.06479
H    -1.21962  -0.37341  -2.64431
