24
Generated by autodE on: 2022-06-05. E = -705.252273 Ha
C     3.80273   1.75988  -1.17723
O     2.69910   1.01684  -0.64758
C     3.00585   0.00694   0.19044
O     4.15304  -0.28757   0.50587
C     1.85311  -0.70421   0.68676
O     0.67273  -0.30691   0.28944
C    -0.53114  -0.75179   0.56117
C    -0.65713  -1.86250   1.42990
N    -0.73048  -2.77902   2.14795
C    -1.65695  -0.07186  -0.04697
C    -2.97481  -0.50110   0.21733
C    -4.05542   0.15457  -0.36913
C    -3.84339   1.24215  -1.22355
C    -2.53655   1.67274  -1.48905
C    -1.44848   1.02699  -0.90953
H     4.37498   2.23731  -0.36792
H     3.36665   2.52426  -1.83099
H     4.47116   1.10503  -1.75582
H     1.94936  -1.55027   1.36927
H    -3.14810  -1.34959   0.88298
H    -5.07117  -0.18638  -0.15734
H    -4.69270   1.75337  -1.68189
H    -2.36560   2.52119  -2.15544
H    -0.43146   1.36286  -1.11680
