52
Generated by autodE on: 2022-06-05. E = -1358.807528 Ha. Imaginary frequency = -251.6 cm-1
C    -3.70396   3.36436   1.11282
O    -2.94377   2.59904   0.16823
C    -1.62364   2.53170   0.37369
O    -1.02825   3.16799   1.22411
C    -1.00579   1.63603  -0.61115
O     0.31804   1.51738  -0.67189
C     1.18817   1.20496   0.26976
C     0.93566   1.38589   1.66092
N     0.88547   1.45023   2.82253
C     2.56336   0.98961  -0.16509
C     2.93675   1.23326  -1.50447
C     4.24290   0.99307  -1.91990
C     5.19745   0.51282  -1.01399
C     4.83744   0.28257   0.31754
C     3.53345   0.52289   0.74616
C    -0.17644  -1.18518   0.34708
C     0.48657  -1.45412   1.64034
O     1.64211  -1.85459   1.70670
O    -0.27769  -1.31502   2.72353
C     0.33047  -1.60062   3.98874
C     0.22214  -2.13811  -0.78665
C     0.54665  -1.37861  -2.09475
C    -0.83782  -0.82969  -2.52038
C    -1.77185  -1.28191  -1.36521
C    -1.18777  -2.69534  -1.11299
C    -1.41916  -0.61999  -0.01133
C    -2.48933  -0.18293   0.94347
C    -3.91372  -0.47501   0.54967
O    -2.24343   0.39121   1.99538
H    -3.39305   4.41873   1.09722
H    -3.56916   2.95331   2.12359
H    -4.75070   3.27279   0.80190
H    -1.45621   1.64892  -1.60155
H     2.20026   1.62078  -2.20859
H     4.52239   1.18829  -2.95746
H     6.22156   0.32694  -1.34493
H     5.57771  -0.08746   1.02998
H     3.26067   0.33507   1.78436
H     1.20293  -0.95456   4.15497
H    -0.43900  -1.39440   4.74194
H     0.63819  -2.65533   4.03946
H     0.99015  -2.85695  -0.48418
H     1.29829  -0.59812  -1.94723
H     0.94910  -2.08503  -2.83554
H    -1.18760  -1.31227  -3.44452
H    -0.83953   0.24840  -2.70864
H    -2.83212  -1.22114  -1.62606
H    -1.20727  -3.34317  -2.00383
H    -1.65507  -3.21430  -0.26358
H    -4.16430   0.07498  -0.37055
H    -4.05683  -1.54662   0.34102
H    -4.58163  -0.15590   1.35973
