49
Generated by autodE on: 2022-06-08. E = -1704.077676 Ha
C     0.38092   4.15260   1.84583
O     0.31243   3.30196   0.68388
C     0.64780   2.03872   0.84885
O     1.05145   1.54001   1.87218
C     0.58066   1.21605  -0.47364
C    -0.05053   1.98135  -1.57279
N    -0.44734   2.57467  -2.48501
C    -0.02230  -0.18262  -0.22618
C     0.94353  -1.11937  -0.30518
C     0.87751  -2.62789  -0.24855
C     2.08724  -3.27181   0.44156
C     0.67026  -3.17946  -1.68991
C    -0.78458  -3.27590  -2.15237
C    -1.63294  -2.00875  -1.99655
C    -2.07065  -1.74396  -0.54088
C    -1.48175  -0.47231   0.15889
C    -1.56888  -0.68476   1.70892
F    -2.70808  -1.29611   2.05867
F    -1.52421   0.47749   2.38034
F    -0.56199  -1.44227   2.16121
C    -2.45852   0.68061  -0.19768
F    -3.66342   0.48119   0.35422
F    -2.63758   0.76425  -1.52095
F    -2.03883   1.88526   0.22995
C     2.30046  -0.42730  -0.54265
C     3.12568  -1.03702  -1.61708
N     3.78998  -1.44683  -2.47288
C     3.11335  -0.45624   0.71287
N     3.76034  -0.39297   1.67192
N     1.93768   0.91583  -0.92956
C     2.94910   1.96225  -0.88608
H     1.41161   4.18800   2.22440
H    -0.29263   3.76889   2.62453
H     0.05825   5.14339   1.50901
H     0.01156  -2.91029   0.35518
H     1.92004  -4.35742   0.49755
H     3.02821  -3.11965  -0.10892
H     2.21408  -2.89702   1.46694
H     1.23759  -2.56509  -2.40511
H     1.11943  -4.18400  -1.73239
H    -1.28574  -4.09619  -1.60903
H    -0.77873  -3.57103  -3.21435
H    -2.54309  -2.12635  -2.60240
H    -1.10234  -1.14248  -2.42022
H    -3.16244  -1.65426  -0.48942
H    -1.84420  -2.61936   0.07632
H     3.83255   1.62646  -1.44686
H     3.26102   2.22355   0.14076
H     2.55693   2.86079  -1.38094
