29
Generated by autodE on: 2022-06-08. E = -1025.872204 Ha
C     3.99686   0.04318  -1.96531
C     2.58041  -0.52908  -2.05961
C     1.81309  -0.47193  -0.81829
C     0.88538  -0.35672  -0.04721
C    -0.48607  -0.06119   0.36351
C    -0.51202   1.24373   1.19577
F    -1.74671   1.53207   1.63329
F     0.28905   1.17183   2.26835
F    -0.09556   2.28574   0.46180
C    -1.05061  -1.23120   1.20423
F    -0.39780  -1.38155   2.36586
F    -0.93185  -2.38488   0.53085
F    -2.34975  -1.06465   1.48824
C    -1.35178   0.09344  -0.93653
C    -0.68535   0.77196  -2.15049
C     0.19995  -0.09731  -3.09079
C     1.71283   0.20656  -3.12008
H     3.97165   1.09736  -1.64752
H     4.48968  -0.00827  -2.94823
H     4.60756  -0.52065  -1.24402
H     2.64757  -1.59269  -2.35014
H    -2.26414   0.64152  -0.65928
H    -1.67115  -0.91634  -1.23118
H    -1.52325   1.15911  -2.75044
H    -0.12566   1.66077  -1.82595
H    -0.17060   0.05389  -4.11651
H     0.04165  -1.16852  -2.87785
H     2.12273  -0.05721  -4.10850
H     1.86598   1.29259  -2.99734
