20
Generated by autodE on: 2022-06-08. E = -678.128492 Ha
C     3.73994  -0.46718   0.29931
O     2.47496  -0.83287  -0.27858
C     1.44005  -0.04229  -0.00485
O     1.48695   0.93301   0.71866
C     0.24162  -0.45945  -0.77037
C     0.43967  -1.30695  -1.88912
N     0.63575  -2.01799  -2.79145
N    -0.98280   0.05911  -0.53565
C    -1.98187   0.09786  -1.63092
C    -1.38546   0.56623   0.65724
C    -2.56980   1.34204   0.73171
N    -3.53647   1.98404   0.83741
C    -0.75836   0.23935   1.88308
N    -0.32274  -0.05491   2.92263
H     3.66593  -0.45648   1.39584
H     4.04978   0.52393  -0.06138
H     4.44992  -1.23351  -0.03024
H    -2.88219  -0.44245  -1.31493
H    -1.55842  -0.35524  -2.52971
H    -2.22158   1.14976  -1.83518
