20
Generated by autodE on: 2022-07-27. E = -678.128622 Ha
C    -2.53345   1.57364   2.32257
O    -1.95627   1.42833   1.01362
C    -0.83112   0.72158   0.93047
O    -0.28519   0.17764   1.87052
C    -0.28951   0.75597  -0.44641
C    -0.75311   1.76917  -1.32179
N    -1.15183   2.59946  -2.03561
N     0.74131  -0.01930  -0.84543
C     1.54213   0.44921  -2.00146
C     1.04850  -1.22300  -0.29797
C     2.30313  -1.83847  -0.53830
N     3.31546  -2.39535  -0.69096
C     0.10833  -1.98441   0.43811
N    -0.64845  -2.68056   0.98542
H    -1.83734   2.10357   2.98819
H    -2.76988   0.58631   2.74361
H    -3.44812   2.15958   2.18095
H     1.79567   1.50454  -1.85625
H     2.45315  -0.14925  -2.08170
H     0.94003   0.31944  -2.91098
