49
Generated by autodE on: 2022-06-08. E = -1703.986060 Ha. Imaginary frequency = -315.4 cm-1
C    -0.66532   2.51960   3.62717
O    -0.21860   2.38200   2.26874
C     0.82485   1.59881   2.05440
O     1.47933   1.06878   2.92702
C     1.16597   1.52009   0.59415
C     0.74636   2.64604  -0.18423
N     0.40406   3.56535  -0.80719
C    -0.07078  -0.34646  -0.34995
C     0.85148  -1.17340  -0.56309
C     1.33548  -2.45732  -1.12971
C     2.04647  -2.20617  -2.46941
C     0.17168  -3.45057  -1.31069
C    -0.65051  -3.79223  -0.06467
C    -1.50941  -2.67374   0.56593
C    -2.18879  -1.73087  -0.44285
C    -1.55121  -0.29763  -0.57487
C    -2.27651   0.62483   0.43470
F    -3.61197   0.54555   0.32714
F    -1.95943   0.26049   1.69000
F    -1.96373   1.91506   0.28176
C    -1.79276   0.21683  -2.01693
F    -1.22528  -0.60461  -2.91428
F    -1.27532   1.43501  -2.22193
F    -3.10176   0.27889  -2.30527
C     2.56590  -0.38884   0.54770
C     3.79860  -0.98662   0.11291
N     4.76435  -1.54418  -0.21386
C     2.05711  -1.08370   1.70110
N     1.71521  -1.84721   2.50903
N     2.34734   0.93328   0.22935
C     2.97802   1.39835  -1.01922
H     0.11066   3.00570   4.23501
H    -0.90350   1.53280   4.04746
H    -1.56394   3.14426   3.58133
H     2.05140  -2.91079  -0.42523
H     2.42951  -3.15616  -2.87184
H     2.89130  -1.51194  -2.36614
H     1.33965  -1.77880  -3.19676
H    -0.48423  -3.07697  -2.11211
H     0.61555  -4.38230  -1.69760
H     0.01778  -4.19864   0.71342
H    -1.32247  -4.61871  -0.35092
H    -2.29635  -3.15759   1.16390
H    -0.91363  -2.09485   1.28347
H    -3.24640  -1.59657  -0.18867
H    -2.18279  -2.18701  -1.43965
H     3.97438   0.95653  -1.11150
H     3.07982   2.48724  -0.98611
H     2.35717   1.09534  -1.87638
