40
Generated by autodE on: 2022-05-31. E = -3587.925948 Ha
C     3.52141  -0.95883   1.75385
O     2.31189  -0.92026   0.98277
C     2.33197  -0.23186  -0.15435
O     3.33617   0.30286  -0.58181
C     1.00248  -0.25213  -0.88505
C     0.55419  -1.73492  -1.14964
C     1.07163  -2.35872  -2.43332
N    -0.90706  -1.75886  -1.08951
C    -1.34772  -0.74912  -0.12837
C    -1.49935  -1.38867   1.29940
C    -0.48012  -2.36952   1.79439
O    -2.49191  -1.12657   1.95369
C    -2.79502  -0.28228  -0.42826
C    -3.71431  -1.28614  -1.06479
O    -3.17135   0.82901  -0.11787
C    -0.26619   0.40381  -0.19192
Br    0.03105   1.23926   1.57401
C    -0.60511   1.52561  -1.24643
C     0.48761   2.57914  -1.22560
C     1.53455   2.01530  -1.83562
C     1.07685   0.61066  -2.19699
O    -0.32384   0.81106  -2.45637
H     3.28945  -1.55337   2.64460
H     4.32820  -1.43167   1.17656
H     3.82121   0.05901   2.04096
H     0.94573  -2.32646  -0.31561
H     0.63842  -1.88054  -3.32505
H     0.80916  -3.42676  -2.45870
H     2.16720  -2.27406  -2.48849
H    -1.25306  -1.48161  -2.00842
H    -0.77351  -2.70202   2.79828
H     0.52053  -1.91990   1.81986
H    -0.44142  -3.23404   1.11493
H    -3.46510  -1.38087  -2.13532
H    -3.59837  -2.28121  -0.61338
H    -4.75013  -0.93451  -0.97398
H    -1.63374   1.87947  -1.20942
H     0.40736   3.55751  -0.75495
H     2.53425   2.41297  -1.99416
H     1.57728   0.12366  -3.03743
