21
Generated by autodE on: 2022-07-27. E = -478.789217 Ha
C     2.11379  -1.23701  -2.58714
C     1.60901  -0.94611  -1.22780
N     0.50377  -0.28881  -1.03927
C    -0.19041   0.11019   0.12119
C     0.34319  -0.23921   1.41183
C    -0.38695   0.17400   2.67088
O     1.40787  -0.88284   1.53379
C    -1.40739   0.85759  -0.10660
C    -1.82152   1.16165  -1.54257
O    -2.13548   1.26832   0.81277
H     1.45832  -0.83560  -3.37451
H     2.21599  -2.32796  -2.71953
H     3.12665  -0.81509  -2.70529
H     2.14289  -1.27262  -0.33718
H     0.03681  -0.00341  -1.90352
H     0.19807  -0.18295   3.52992
H    -0.50908   1.26523   2.72598
H    -1.40010  -0.25244   2.70502
H    -2.75671   1.73432  -1.51214
H    -1.99608   0.24133  -2.12484
H    -1.06239   1.76037  -2.07286
