21
Generated by autodE on: 2022-05-31. E = -478.793427 Ha
C     3.47097  -0.69692  -0.30296
C     2.00849  -0.88321  -0.42948
N     1.17374  -0.00377   0.02286
C    -0.22935   0.10180   0.04919
C    -0.60930   1.33948   0.69852
C    -2.04750   1.75265   0.88904
O     0.28645   2.10446   1.12382
C    -1.02946  -0.94577  -0.52138
C    -2.54299  -0.87015  -0.52380
O    -0.49781  -1.95378  -1.03548
H     3.72845   0.24369   0.20567
H     3.90754  -1.54491   0.25225
H     3.93526  -0.71083  -1.30408
H     1.58762  -1.76610  -0.90880
H     1.55999   0.84145   0.48091
H    -2.57009   1.85292  -0.07290
H    -2.05630   2.72145   1.40480
H    -2.60180   1.01947   1.49229
H    -2.95201  -0.82058   0.49553
H    -2.90801   0.01002  -1.07241
H    -2.91902  -1.77734  -1.01463
