19
Generated by autodE on: 2022-05-31. E = -3109.086210 Ha
C     3.40186   2.10817   1.12721
O     1.99601   1.83257   1.10263
C     1.62295   0.65513   0.56862
O     2.41104  -0.15781   0.12289
C     0.16776   0.50663   0.60024
C    -0.62747  -0.39392  -0.00691
Br   -0.22523  -1.82776  -1.12209
C    -2.07911   0.06462   0.27845
C    -2.28920   1.36641  -0.52901
C    -1.51529   2.26907   0.07945
C    -0.83949   1.50136   1.23747
O    -1.89547   0.58958   1.59884
H     3.93303   1.35135   1.72299
H     3.81142   2.11904   0.10647
H     3.50907   3.09673   1.58851
H    -2.85536  -0.70576   0.22927
H    -2.90224   1.45268  -1.42497
H    -1.31913   3.30910  -0.17789
H    -0.47424   2.07751   2.09218
