40
Generated by autodE on: 2022-05-31. E = -3587.872021 Ha. Imaginary frequency = -286.1 cm-1
C     3.87593  -0.75616   1.13692
O     2.52581  -0.56282   0.70090
C     2.34854   0.02337  -0.48675
O     3.27566   0.33887  -1.22196
C     0.94610   0.21977  -0.85144
C     0.48294  -1.92408  -1.28212
C     1.06895  -2.28173  -2.60240
N    -0.84266  -1.80539  -1.15988
C    -1.49054  -1.30580  -0.04003
C    -1.07444  -1.80347   1.28917
C    -1.94155  -1.54716   2.49506
O    -0.03919  -2.45970   1.42356
C    -2.84104  -0.75340  -0.27246
C    -3.45478  -0.87042  -1.65092
O    -3.45757  -0.17126   0.61901
C    -0.10418   0.67074  -0.02323
Br    0.09728   1.23209   1.78126
C    -0.93362   1.60910  -0.93702
C    -0.06278   2.85170  -1.19742
C     0.92139   2.42019  -1.99454
C     0.64210   0.92313  -2.20191
O    -0.79677   0.90592  -2.17862
H     3.80863  -1.23260   2.12186
H     4.41996  -1.40748   0.43742
H     4.39813   0.20836   1.21773
H     1.01910  -2.19429  -0.37898
H     2.08417  -1.86772  -2.68827
H     0.45525  -1.91539  -3.43915
H     1.15827  -3.37879  -2.68633
H    -1.32905  -1.64925  -2.04161
H    -1.44397  -1.98973   3.36813
H    -2.10442  -0.47434   2.65049
H    -2.93467  -2.00236   2.35900
H    -4.48304  -0.49148  -1.60293
H    -3.46582  -1.91278  -2.00682
H    -2.88804  -0.26773  -2.37762
H    -1.97869   1.76918  -0.65501
H    -0.21937   3.83239  -0.75023
H     1.79044   2.95325  -2.37787
H     1.04307   0.45221  -3.10380
