19
Generated by autodE on: 2022-05-30. E = -535.502988 Ha
C    -3.44147  -0.85115  -0.04784
O    -2.03188  -0.72876   0.17942
C    -1.44840   0.40434  -0.24507
O    -2.06057   1.30454  -0.79490
C    -0.01064   0.40759   0.03135
C     0.90339   1.29233  -0.39758
C     2.25217   0.73207   0.09346
C     2.53012  -0.54865  -0.73043
C     1.62772  -1.43476  -0.30070
C     0.80746  -0.68033   0.77079
O     1.83630   0.14898   1.34469
H    -3.98685  -0.04828   0.46954
H    -3.73072  -1.82756   0.35782
H    -3.66466  -0.80586  -1.12392
H     0.76132   2.17785  -1.01596
H     3.07474   1.44412   0.21706
H     3.27433  -0.63373  -1.52134
H     1.43056  -2.45135  -0.63894
H     0.28003  -1.27355   1.52357
