39
Generated by autodE on: 2022-05-30. E = -1138.659241 Ha. Imaginary frequency = -322.2 cm-1
C    -3.22534   2.78818  -1.93865
N    -2.78435   1.76036  -1.01609
C    -2.05786   2.06676   0.06444
O    -1.74404   3.21776   0.38893
C    -1.59537   0.92059   0.93346
C    -1.08203   1.31896   2.20870
N    -0.61828   1.61384   3.23275
N    -2.09410  -0.33296   0.86832
N    -2.28327  -0.85874  -0.33120
C    -2.53389  -2.23498  -0.28257
C    -2.71282  -2.86860  -1.62864
O    -2.62124  -2.84623   0.77678
C    -0.19723  -0.52262  -1.12386
C     0.53086  -1.75785  -0.55146
C     2.01548  -1.59066  -0.91268
C     2.44339  -0.57996  -0.13842
C     3.73357   0.11258  -0.09200
O     3.93056   1.12221   0.56384
O     4.67178  -0.47429  -0.84637
C     5.96341   0.14841  -0.86641
C     1.20892  -0.13766   0.67081
O     0.55301  -1.40698   0.84479
C     0.23718   0.53158  -0.32305
H    -3.87359   2.32923  -2.69478
H    -2.37216   3.26865  -2.44551
H    -3.79106   3.57095  -1.41164
H    -2.89393   0.76822  -1.23508
H    -1.85580  -0.99040   1.62457
H    -2.43083  -3.92854  -1.58244
H    -3.78191  -2.80648  -1.89542
H    -2.14228  -2.34569  -2.40715
H    -0.55507  -0.45422  -2.14843
H     0.09071  -2.74469  -0.72262
H     2.55066  -2.14638  -1.68110
H     5.89169   1.17397  -1.25718
H     6.39538   0.17386   0.14472
H     6.58492  -0.46618  -1.52783
H     1.39855   0.36771   1.62224
H     0.35370   1.56437  -0.64867
