42
Generated by autodE on: 2022-05-29. E = -1131.846759 Ha
C     5.00345   0.62138   1.55848
O     3.75573   0.60292   0.85245
C     3.49962  -0.48687   0.10961
O     4.26684  -1.42903   0.01249
C     2.19701  -0.38767  -0.54129
C     1.47587  -1.36283  -1.12087
F     1.76958  -2.63529  -1.28823
C     0.10768  -0.78832  -1.42961
O     0.45385   0.57048  -1.70672
C     1.22103   0.79024  -0.50567
C     0.18686   0.47818   0.61564
C    -0.61543  -0.67563  -0.05165
C    -2.07750  -0.14323  -0.12011
C    -2.72244  -0.51661  -1.38407
N    -3.24829  -0.87695  -2.35383
C    -2.97910  -0.85879   0.96454
C    -4.28608  -0.19354   1.27965
O    -2.61442  -1.88680   1.49186
N    -2.05383   1.30371   0.11525
C    -2.33690   2.15912  -1.02995
C    -0.85267   1.58529   0.96074
C    -0.30709   2.99733   0.75495
C    -1.24050   1.42879   2.44178
H     5.06075  -0.22180   2.26221
H     5.84580   0.56487   0.85371
H     5.02836   1.57191   2.10363
H    -0.44687  -1.25891  -2.24747
H     1.67540   1.78326  -0.49922
H     0.71729   0.16435   1.52217
H    -0.59729  -1.62713   0.48864
H    -4.99002  -0.94179   1.66768
H    -4.70625   0.32588   0.40751
H    -4.11310   0.56346   2.06047
H    -3.32581   1.90648  -1.43809
H    -1.59537   2.08601  -1.84647
H    -2.39725   3.20492  -0.70517
H     0.59731   3.12154   1.36855
H    -0.03927   3.20703  -0.28841
H    -1.04002   3.74990   1.08144
H    -0.37534   1.65213   3.08483
H    -1.56425   0.40487   2.67923
H    -2.05599   2.12009   2.69967
