23
Generated by autodE on: 2022-07-27. E = -497.014991 Ha
C    -1.82044  -2.25073   0.28751
C    -1.12478  -0.92777   0.55418
O    -1.34569  -0.30442   1.61312
C    -0.23169  -0.45472  -0.45455
C    -0.06731  -1.10858  -1.68590
N     0.06797  -1.65924  -2.71253
N     0.39442   0.82257  -0.29867
C     0.06257   1.84336  -1.30598
C     1.09272   1.12031   0.76928
C     1.47019   2.53446   1.05636
C     1.56139   0.06852   1.70349
H    -2.42409  -2.20740  -0.63264
H    -1.08662  -3.06218   0.15862
H    -2.47438  -2.48758   1.13717
H    -0.85283   2.37423  -1.00590
H     0.88686   2.55373  -1.42933
H    -0.11803   1.33649  -2.26077
H     1.73992   2.63848   2.11506
H     2.35672   2.80928   0.45747
H     0.66513   3.24060   0.81293
H     2.54777   0.35175   2.09883
H     1.60046  -0.91686   1.22000
H     0.86156  -0.00050   2.55261
