23
Generated by autodE on: 2022-05-29. E = -497.015392 Ha
C     2.78819  -0.20436   0.84551
C     1.32440  -0.53137   0.63339
O     0.82061  -1.49316   1.25326
C     0.57724   0.28490  -0.26600
C     1.13784   1.30755  -1.04982
N     1.58783   2.16369  -1.71279
N    -0.79331  -0.04510  -0.52464
C    -1.12387  -0.43009  -1.90635
C    -1.66587  -0.16694   0.44464
C    -1.38944   0.35603   1.80446
C    -2.98912  -0.80732   0.19257
H     3.17497   0.57450   0.17593
H     3.37965  -1.12393   0.71610
H     2.92476   0.12585   1.88854
H    -0.94344  -1.50668  -2.04180
H    -2.16627  -0.19015  -2.14116
H    -0.46806   0.12823  -2.58393
H    -2.32263   0.74838   2.23435
H    -0.60773   1.12700   1.79501
H    -1.04227  -0.47080   2.44568
H    -3.44566  -1.10595   1.14461
H    -3.66580  -0.08002  -0.29018
H    -2.90927  -1.68234  -0.46669
