19
Generated by autodE on: 2022-05-29. E = -634.779119 Ha
C     3.48718  -1.22955  -0.17471
O     2.13033  -0.98724   0.21717
C     1.50821   0.04908  -0.37169
O     2.04356   0.76815  -1.19989
C     0.13896   0.18864   0.10228
C    -0.84114   0.98001  -0.36588
F    -0.82383   1.85242  -1.34881
C    -2.12326   0.61889   0.39998
C    -2.52714  -0.79956  -0.06827
C    -1.57735  -1.60063   0.42215
C    -0.60074  -0.66136   1.16666
O    -1.53067   0.32223   1.67421
H     4.11835  -0.35967   0.05937
H     3.81741  -2.10209   0.40092
H     3.54684  -1.44148  -1.25234
H    -2.89763   1.39178   0.44799
H    -3.38294  -1.02668  -0.70222
H    -1.44165  -2.67494   0.30374
H     0.02151  -1.09176   1.95658
