42
Generated by autodE on: 2022-05-29. E = -1131.771935 Ha. Imaginary frequency = -336.6 cm-1
C     5.27008   1.25325   0.93303
O     3.94232   0.96248   0.47955
C     3.72814  -0.27179  -0.01054
O     4.59922  -1.12350  -0.08176
C     2.34370  -0.44460  -0.42614
C     1.70274  -1.57183  -0.78332
F     2.15645  -2.80226  -0.88428
C     0.21948  -1.22014  -0.96274
O     0.37123   0.11666  -1.46212
C     1.19581   0.59217  -0.37724
C     0.30810   0.23928   0.83409
C    -0.31769  -0.93952   0.45006
C    -2.56459   0.03910  -0.16953
C    -2.58361  -0.47272  -1.49164
N    -2.61171  -0.94192  -2.56185
C    -3.54015  -0.58185   0.73555
C    -3.84752  -2.04431   0.49608
O    -4.13216   0.04716   1.61484
N    -2.08659   1.34864  -0.00537
C    -2.01021   2.19191  -1.20971
C    -1.31519   1.67262   1.07532
C    -0.65055   3.02240   1.07635
C    -1.67015   1.16319   2.44942
H     5.55578   0.57721   1.75227
H     5.99156   1.14987   0.10930
H     5.24836   2.28983   1.28883
H    -0.35616  -1.86653  -1.63137
H     1.48725   1.63745  -0.51332
H     0.64554   0.45369   1.84677
H    -0.73908  -1.71091   1.09113
H    -4.29652  -2.46493   1.40592
H    -4.58161  -2.13361  -0.32222
H    -2.95695  -2.62142   0.21030
H    -2.82092   1.90913  -1.88881
H    -1.04901   2.06872  -1.72653
H    -2.15467   3.24280  -0.93624
H     0.07523   3.06364   1.89857
H    -0.12811   3.24780   0.13880
H    -1.39865   3.81592   1.25244
H    -0.87615   1.44500   3.15210
H    -1.80944   0.07973   2.49459
H    -2.61179   1.63398   2.77288
