42
Generated by autodE on: 2022-05-29. E = -1363.774389 Ha
C    -1.27386   2.87454   0.73655
C    -1.97635   2.08727  -0.33155
O    -3.18610   2.16215  -0.48812
C    -1.13966   1.14422  -1.22469
C    -1.69813   1.22802  -2.65578
N     0.28156   1.45382  -1.12671
C     1.13129   0.25988  -1.21473
C     1.56359  -0.01389  -2.66932
C     2.37603   0.41623  -0.32924
C     2.47454   1.45644   0.60427
C     3.58833   1.56993   1.44340
C     4.62643   0.63830   1.36831
C     4.53746  -0.40973   0.44577
C     3.42585  -0.51687  -0.39337
C     0.20220  -0.89609  -0.71595
C     0.36450  -1.32609   0.77523
C    -0.54350  -2.53187   0.98920
C    -1.77161  -2.00468   1.01444
Cl   -3.31112  -2.78285   1.04071
C    -1.60701  -0.50166   0.81582
O    -0.35036  -0.27918   1.46283
C    -1.24953  -0.31856  -0.69355
H    -0.63759   2.21372   1.34134
H    -0.60128   3.61111   0.26976
H    -2.01462   3.38983   1.36230
H    -2.78557   1.07386  -2.65150
H    -1.48858   2.21889  -3.08948
H    -1.24134   0.46364  -3.29779
H     0.56306   2.16787  -1.79563
H     0.68653  -0.18052  -3.30900
H     2.20408  -0.90339  -2.74836
H     2.12344   0.84844  -3.06511
H     1.66006   2.17647   0.66762
H     3.64178   2.39254   2.16135
H     5.49662   0.72455   2.02357
H     5.33818  -1.15065   0.37901
H     3.37191  -1.35296  -1.09282
H     0.30705  -1.76667  -1.37332
H     1.38973  -1.41017   1.14427
H    -0.23933  -3.57715   0.99187
H    -2.40070   0.13034   1.22593
H    -1.95958  -0.87858  -1.31278
