29
Generated by autodE on: 2022-07-26. E = -596.549584 Ha
C    -3.12203   1.43473   0.99637
C    -2.04648   0.50848   0.44749
O    -1.43121  -0.24766   1.24498
C    -1.81475   0.54062  -0.94931
C    -2.66200   1.32047  -1.91691
N    -0.90183  -0.31239  -1.54955
C     0.23591  -0.90109  -1.19256
C     0.67893  -2.02352  -2.08638
C     1.09826  -0.47895  -0.09600
C     1.03190   0.81328   0.47295
C     1.95943   1.22284   1.42841
C     2.95089   0.34451   1.87929
C     3.02157  -0.94465   1.34006
C     2.11860  -1.34715   0.35757
H    -4.12677   1.13530   0.65389
H    -2.96882   2.47814   0.67769
H    -3.09923   1.38613   2.09369
H    -3.69540   1.44194  -1.56382
H    -2.26359   2.33328  -2.11395
H    -2.70628   0.80689  -2.89359
H    -1.19280  -0.57702  -2.49490
H     0.07781  -2.04989  -3.00783
H     0.55027  -2.99866  -1.58565
H     1.74162  -1.93328  -2.35542
H     0.27084   1.51472   0.13379
H     1.89825   2.23485   1.83596
H     3.66133   0.66165   2.64622
H     3.78948  -1.64165   1.68383
H     2.20059  -2.35373  -0.05346
