29
Generated by autodE on: 2022-05-29. E = -596.558489 Ha
C    -4.38560  -0.46239  -0.92510
C    -2.87958  -0.32050  -0.87338
O    -2.20804  -0.48530  -1.93308
C    -2.24020  -0.01087   0.36477
C    -2.94025   0.18029   1.67069
N    -0.87644   0.03902   0.21166
C     0.19558   0.28667   0.94187
C     0.13009   0.74765   2.36377
C     1.50659   0.13772   0.29349
C     2.65755   0.70091   0.88885
C     3.91108   0.58136   0.28780
C     4.05675  -0.10753  -0.91947
C     2.92915  -0.68287  -1.51764
C     1.67567  -0.56945  -0.92096
H    -4.73416  -1.28467  -0.27945
H    -4.89007   0.45541  -0.58346
H    -4.68789  -0.67152  -1.95987
H    -4.02076   0.04631   1.54103
H    -2.78812   1.18836   2.09346
H    -2.61228  -0.54788   2.43267
H    -0.70146  -0.17585  -0.78518
H    -0.86610   0.64826   2.79763
H     0.83924   0.18005   2.98522
H     0.42276   1.80968   2.43457
H     2.57364   1.25346   1.82461
H     4.78133   1.03431   0.76877
H     5.03917  -0.20349  -1.38707
H     3.02852  -1.23838  -2.45316
H     0.82984  -1.06438  -1.40371
