13
Generated by autodE on: 2022-05-29. E = -767.141593 Ha
Cl   -0.81650   1.91647   0.99760
C    -0.47945   0.44142   0.17453
C    -1.09783  -0.74046   0.23063
C    -0.19714  -1.65452  -0.63383
C     1.13455  -1.85444   0.13099
C     1.74269  -0.66611   0.08335
C     0.77219   0.23770  -0.71447
O     0.23435  -0.71536  -1.64491
H    -1.96687  -1.05022   0.80747
H    -0.66715  -2.54248  -1.07006
H     1.43418  -2.77231   0.63587
H     2.67731  -0.33692   0.53571
H     1.17909   1.12902  -1.20338
