32
Generated by autodE on: 2022-06-01. E = -1227.739865 Ha
C    -1.05428  -0.55436   3.77580
O    -0.64111  -0.46618   2.39943
C    -1.45321   0.17301   1.57139
O    -2.50929   0.67533   1.89240
C    -0.90812   0.27831   0.13703
C    -2.09981  -0.01925  -0.79155
O    -2.58116   0.76696  -1.57305
O    -2.52876  -1.26581  -0.61345
C    -3.65705  -1.68648  -1.39987
C     0.21817  -0.61039  -0.12814
C     1.37372  -0.92928  -0.30448
C     2.80707  -0.74841  -0.42328
Cl    3.27848  -0.75815  -2.21047
C     3.15864   0.60634   0.21627
C     2.27892   1.80424  -0.19393
C     0.96283   2.07123   0.59215
C    -0.37930   1.73187  -0.08744
H    -0.26059  -1.10680   4.29057
H    -1.16174   0.45236   4.20311
H    -2.00893  -1.09352   3.84972
H    -3.84849  -2.72761  -1.11730
H    -4.53152  -1.06054  -1.17207
H    -3.42056  -1.61733  -2.47098
H     3.39805  -1.56051   0.01704
H     3.10395   0.45849   1.30843
H     4.21281   0.81503  -0.02220
H     2.06679   1.74423  -1.27477
H     2.91149   2.69625  -0.06992
H     0.92450   3.15307   0.79036
H     1.01530   1.59601   1.58602
H    -1.16629   2.41264   0.26936
H    -0.29864   1.87944  -1.17418
