44
Generated by autodE on: 2022-06-01. E = -1584.668769 Ha. Imaginary frequency = -387.1 cm-1
C     1.71074   3.89493   0.19036
N     1.51494   2.65059   0.90775
C     0.32852   2.30572   1.44877
O    -0.67006   3.03418   1.45002
C     0.22826   0.93583   2.03569
N     1.34404   0.33905   2.44421
N     2.19225  -0.39925   2.20566
C     1.26500  -0.99770   0.15860
C     0.14714  -0.45962   0.21056
C    -1.21073  -0.44063  -0.38988
C    -2.22816  -1.07981   0.57793
O    -2.07081  -1.18748   1.77455
O    -3.31155  -1.50699  -0.06185
C    -4.35295  -2.08691   0.74006
C    -1.71495   0.97953  -0.68596
O    -2.78963   1.40801  -0.32422
O    -0.84590   1.66242  -1.42184
C    -1.22709   2.99494  -1.80941
C    -1.14563  -1.23555  -1.73404
C    -0.62853  -2.67748  -1.54716
C     0.72247  -2.99937  -2.21184
C     1.90900  -2.04785  -1.98800
C     2.27854  -1.79133  -0.52310
Cl    3.90058  -0.88458  -0.48825
H     2.74878   4.23234   0.31544
H     1.03619   4.65942   0.59490
H     1.50640   3.78320  -0.88722
H     2.22942   1.93638   0.80272
H    -0.67135   0.71061   2.60893
H    -5.14236  -2.38222   0.03992
H    -3.97318  -2.96477   1.28156
H    -4.73492  -1.34728   1.45808
H    -1.35890   3.61809  -0.91572
H    -2.15929   2.96609  -2.39080
H    -0.40432   3.37411  -2.42509
H    -2.14783  -1.22802  -2.18199
H    -0.49054  -0.66598  -2.40647
H    -1.37069  -3.37884  -1.95845
H    -0.56886  -2.91631  -0.47382
H     0.57392  -3.04932  -3.30396
H     1.01857  -4.01513  -1.89956
H     2.78836  -2.47775  -2.49132
H     1.71807  -1.07104  -2.45937
H     2.48290  -2.72827   0.01364
