16
Generated by autodE on: 2022-05-31. E = -492.395832 Ha
C    -2.41077  -1.28540   0.04125
C    -1.22057  -0.40224   0.03345
C    -1.18336   1.01738   0.08963
O    -2.03096   1.89546   0.15494
O     0.19680   1.34721   0.05352
C     0.90683   0.20828  -0.02000
C     2.30356   0.18698  -0.08605
N     3.47066   0.17376  -0.14016
N     0.06863  -0.83734  -0.03324
C     0.46642  -2.23940  -0.11179
H    -2.47314  -1.89860  -0.87321
H    -3.31207  -0.66043   0.10057
H    -2.40704  -1.97206   0.90416
H     0.08937  -2.76906   0.77251
H     0.03407  -2.68429  -1.01733
H     1.55922  -2.30464  -0.14846
