41
Generated by autodE on: 2022-05-31. E = -1160.750570 Ha. Imaginary frequency = -345.7 cm-1
C     4.04513  -0.65577   1.65062
N     3.06540  -0.21928   0.67560
C     1.80906   0.12680   1.06232
O     1.51273   0.18812   2.26400
C     0.86146   0.39595  -0.03648
C     1.38049   0.87184  -1.42440
C     1.57054   2.39290  -1.30345
C     0.32788   2.89096  -1.27237
C    -0.59017   1.66445  -1.36033
O     0.18424   0.80249  -2.19914
C    -0.46830   0.93163   0.02042
C    -1.17564   1.68385   1.11318
C    -1.16150   1.28234   2.55811
O    -1.80983   2.67633   0.76522
C    -1.60631  -0.76047  -0.08898
C    -2.99402  -0.41040  -0.09192
N    -4.09315  -0.03517  -0.07703
O    -1.14239  -1.40274   1.04763
C     0.04201  -2.04469   0.69448
O     0.73524  -2.60937   1.51100
C     0.15329  -1.88690  -0.74570
C     1.18164  -2.52381  -1.59513
N    -1.03650  -1.40247  -1.17311
C    -1.54704  -1.36695  -2.53636
H     5.00315  -0.82267   1.14249
H     3.73672  -1.59144   2.14726
H     4.18589   0.10864   2.42869
H     3.23120  -0.45462  -0.29632
H     2.18952   0.29691  -1.88682
H     2.52838   2.89951  -1.19035
H    -0.00728   3.91699  -1.13131
H    -1.60732   1.80486  -1.73696
H    -2.04868   1.71089   3.04415
H    -0.25785   1.71005   3.01784
H    -1.10951   0.19993   2.70364
H     2.10358  -2.64235  -1.01079
H     1.39212  -1.91998  -2.48898
H     0.84984  -3.52262  -1.92587
H    -2.20078  -0.49667  -2.66094
H    -0.71696  -1.29115  -3.24357
H    -2.12136  -2.28537  -2.72812
