48
Generated by autodE on: 2022-06-11. E = -1136.293973 Ha
C    -4.67524  -1.12299   0.65302
O    -3.51363  -0.55029   0.03543
C    -2.42278  -0.42024   0.80263
O    -2.41465  -0.69731   1.98020
C    -1.27380   0.13074  -0.03190
C    -1.60801   1.59185  -0.47733
C    -2.00234   2.40389   0.77618
C    -0.65922   2.52730   1.55275
C     0.35516   1.83590   0.61395
C    -0.21621   2.17612  -0.77293
C     0.11562   0.31972   0.69457
F     0.15956  -0.09333   2.02170
C     1.09654  -0.59829  -0.07451
C     2.52439  -0.10456  -0.06848
C     3.05186   0.68284  -1.10145
C     4.35504   1.18105  -1.01792
C     5.14466   0.90610   0.10300
C     4.62447   0.12280   1.13830
C     3.32472  -0.38187   1.04916
N     0.50530  -0.75506  -1.39544
C     1.12812  -1.78502  -2.21261
C    -0.94675  -0.85879  -1.22667
C    -1.69921  -0.57987  -2.53102
C    -1.29913  -2.24287  -0.78070
N    -1.51098  -3.33578  -0.45082
H    -5.45103  -1.13843  -0.12088
H    -4.45529  -2.14543   0.99314
H    -4.99891  -0.51154   1.50705
H    -2.34992   1.63667  -1.28065
H    -2.80208   1.93862   1.36909
H    -2.37131   3.38925   0.45750
H    -0.37396   3.57847   1.69989
H    -0.69284   2.04745   2.53910
H     1.40045   2.10709   0.80082
H    -0.25364   3.26105  -0.95028
H     0.30278   1.68865  -1.60372
H     1.07065  -1.55832   0.48265
H     2.43876   0.90583  -1.97545
H     4.75450   1.78960  -1.83290
H     6.16281   1.29723   0.16776
H     5.23471  -0.10082   2.01671
H     2.92017  -0.99465   1.85839
H     2.18918  -1.54441  -2.35829
H     0.65543  -1.82570  -3.20292
H     1.06811  -2.79162  -1.75118
H    -1.38428   0.38928  -2.93702
H    -1.48033  -1.35934  -3.27313
H    -2.78089  -0.56882  -2.35175
