25
Generated by autodE on: 2022-06-11. E = -536.094323 Ha
C    -2.83353   1.56388  -0.38484
C    -2.49307   0.16190   0.00404
C    -3.50486  -0.74486   0.32796
N    -4.40127  -1.45734   0.59971
N    -1.17498  -0.23573   0.04828
C    -0.90298  -1.61927   0.48135
C    -0.17727   0.57728  -0.30829
C     1.25267   0.37481  -0.18657
C     2.06869   1.13498  -1.06315
C     3.45695   1.04838  -1.02070
C     4.08414   0.20936  -0.09108
C     3.29851  -0.52534   0.80269
C     1.90615  -0.44531   0.76578
H    -3.91477   1.72959  -0.29152
H    -2.31166   2.29810   0.25800
H    -2.54471   1.79089  -1.42882
H    -1.73801  -2.25616   0.17281
H     0.01139  -1.97990   0.00264
H    -0.80159  -1.66428   1.57325
H    -0.48609   1.51261  -0.77005
H     1.58794   1.79323  -1.79103
H     4.05608   1.63958  -1.71756
H     5.17361   0.13972  -0.05546
H     3.77509  -1.16297   1.55137
H     1.33402  -0.99700   1.50906
