25
Generated by autodE on: 2022-07-27. E = -536.088385 Ha
C    -3.07393  -0.81538  -2.22259
C    -2.35460  -0.54304  -0.93109
C    -3.07012  -0.51903   0.26827
N    -3.68804  -0.48454   1.26894
N    -0.98700  -0.34752  -0.87370
C    -0.29682  -0.25475  -2.17287
C    -0.29742  -0.28965   0.26913
C     1.06036   0.15551   0.49494
C     1.78942   1.05518  -0.32233
C     3.08433   1.44253   0.02177
C     3.69117   0.96345   1.18764
C     2.97506   0.09740   2.02376
C     1.68270  -0.29452   1.68792
H    -2.93885  -0.01165  -2.96594
H    -2.76589  -1.76401  -2.69860
H    -4.15038  -0.89083  -2.01595
H     0.76858  -0.45150  -2.03725
H    -0.44610   0.73893  -2.61578
H    -0.70843  -1.01211  -2.84719
H    -0.86001  -0.59258   1.15381
H     1.33439   1.48816  -1.21181
H     3.62073   2.14122  -0.62507
H     4.70563   1.27215   1.44955
H     3.42923  -0.27460   2.94541
H     1.13081  -0.96900   2.34726
