48
Generated by autodE on: 2022-06-11. E = -1136.220716 Ha. Imaginary frequency = -221.2 cm-1
C    -4.57183  -1.19563   0.99274
O    -3.57240  -0.36036   0.40341
C    -2.33881  -0.40735   0.96788
O    -2.10045  -1.12001   1.93465
C    -1.39621   0.45994   0.29032
C    -1.79535   1.65706  -0.56328
C    -2.10734   2.79057   0.46673
C    -0.70665   3.09929   1.07800
C     0.24504   2.14414   0.28555
C    -0.43340   2.14630  -1.09403
C    -0.11358   0.75215   0.75495
F     0.34195   0.36244   1.97049
C     1.14264  -0.80340  -0.31290
C     2.52093  -0.35704  -0.12501
C     3.14408   0.66217  -0.87964
C     4.43193   1.09424  -0.56098
C     5.12342   0.53787   0.52012
C     4.50830  -0.45226   1.29398
C     3.22308  -0.88937   0.97886
N     0.50655  -1.00116  -1.49791
C     1.10942  -0.63283  -2.78632
C    -0.79573  -1.44960  -1.50368
C    -1.69976  -1.19279  -2.67368
C    -1.14439  -2.49088  -0.61927
N    -1.46354  -3.38349   0.06829
H    -5.48993  -1.02430   0.41764
H    -4.28056  -2.25438   0.92965
H    -4.73510  -0.92927   2.04779
H    -2.58449   1.47484  -1.30134
H    -2.84329   2.46694   1.21638
H    -2.51880   3.66916  -0.05311
H    -0.41118   4.14448   0.90501
H    -0.65720   2.90993   2.15979
H     1.31055   2.39711   0.33871
H    -0.49088   3.15360  -1.53139
H     0.02853   1.47017  -1.81530
H     0.74791  -1.42128   0.49400
H     2.61426   1.14836  -1.69659
H     4.89449   1.88420  -1.15734
H     6.13084   0.88212   0.76491
H     5.03329  -0.88635   2.14817
H     2.74451  -1.65879   1.58879
H     2.18764  -0.81625  -2.73461
H     0.93631   0.41830  -3.05093
H     0.68614  -1.27100  -3.56817
H    -1.56878  -0.17171  -3.05829
H    -1.54047  -1.90137  -3.50623
H    -2.74246  -1.29886  -2.34164
