28
Generated by autodE on: 2022-05-28. E = -694.758360 Ha
C    -2.56322  -0.14554   0.29482
C    -1.43244  -0.57594  -0.63999
C    -1.75059  -1.91041  -1.29813
O    -1.28744   0.38200  -1.70699
N    -0.48077   1.45319  -1.13659
C     0.65547   0.73988  -0.51746
C     1.80084   0.49752  -1.48545
C     1.03585   1.43260   0.83087
C     2.14700   0.61208   1.47578
C     1.55286  -0.49875   1.92855
C     0.07825  -0.33978   1.56875
O    -0.09517   1.07956   1.64723
C    -0.02288  -0.55751   0.02808
F     0.68944  -1.69978  -0.32326
H    -3.49270  -0.06640  -0.28819
H    -2.35077   0.82364   0.75950
H    -2.71751  -0.88872   1.09035
H    -1.82654  -2.70221  -0.53903
H    -2.71617  -1.83770  -1.82041
H    -0.97528  -2.18908  -2.02331
H    -0.15136   1.93568  -1.97531
H     2.58919  -0.12532  -1.04249
H     2.24562   1.46024  -1.78410
H     1.42668  -0.00911  -2.38761
H     1.16366   2.51925   0.77095
H     3.20635   0.86708   1.46991
H     2.00169  -1.38120   2.38304
H    -0.65828  -0.87394   2.17640
