16
Generated by autodE on: 2022-05-28. E = -446.128257 Ha
C    -2.36522  -0.66729  -0.46897
C    -1.01071  -0.27557  -0.00331
C    -0.35574   0.88616  -0.01929
F    -0.75776   2.08240  -0.45906
C     1.09030   0.61920   0.42899
C     1.76265  -0.21905  -0.68832
C     1.13434  -1.39769  -0.65006
C     0.09022  -1.25598   0.48460
O     0.82857  -0.41173   1.39896
H    -2.93802   0.20704  -0.81156
H    -2.29356  -1.38297  -1.30750
H    -2.93751  -1.16982   0.32926
H     1.64853   1.46660   0.84236
H     2.53750   0.14168  -1.36384
H     1.25410  -2.27263  -1.28826
H    -0.26143  -2.17604   0.96540
