28
Generated by autodE on: 2022-05-28. E = -694.639891 Ha. Imaginary frequency = -222.2 cm-1
C    -1.55144  -0.94970  -2.14366
C    -1.88181  -0.36809  -0.81690
C    -2.73210  -1.09028   0.16791
O    -1.78342   0.90481  -0.62392
N    -1.00052   1.64964  -1.45813
C     1.04950   0.42360  -0.41751
C     1.93491   0.59125  -1.60012
C     1.13909   1.30609   0.84614
C     2.25596   0.69179   1.72807
C     1.74174  -0.45530   2.18630
C     0.31437  -0.51744   1.58116
O    -0.02524   0.87633   1.58349
C     0.48362  -0.71034   0.06761
F     0.60416  -1.95195  -0.45593
H    -2.31941  -0.61037  -2.86649
H    -0.58484  -0.59763  -2.52154
H    -1.56978  -2.04543  -2.10222
H    -2.26199  -2.04834   0.43927
H    -3.71943  -1.32761  -0.26945
H    -2.87848  -0.48501   1.07255
H    -0.97729   2.52967  -0.92739
H     1.84311   1.59129  -2.04833
H     2.99095   0.45662  -1.29583
H     1.71497  -0.15869  -2.37375
H     1.15209   2.39120   0.69532
H     3.25189   1.11121   1.86818
H     2.19897  -1.22677   2.80535
H    -0.43044  -1.13464   2.09553
