54
Generated by autodE on: 2022-06-24. E = -1189.991282 Ha
C    -2.15409  -2.86139   2.45400
N    -1.52935  -1.69353   1.87379
C    -1.78632  -1.29953   0.61635
O    -2.67440  -1.82347  -0.06602
C    -0.93727  -0.07245   0.14604
C    -1.87600   1.14600   0.23592
C    -3.18351   1.07707  -0.27802
C    -4.02985   2.18773  -0.25112
C    -3.59310   3.39840   0.29337
C    -2.29612   3.48210   0.80316
C    -1.44761   2.37111   0.77093
N     0.23044   0.04479   1.03281
C     1.49643  -0.20044   0.36507
C     2.45756  -1.09705   1.20909
C     1.98702  -1.57780   2.54947
O     3.55714  -1.38164   0.77280
C     2.26287   1.13729   0.24016
O     1.93303   2.12768   0.86704
O     3.34676   1.09126  -0.51618
C     4.13862   2.28831  -0.59501
C     1.07567  -0.94696  -0.96911
C     0.86537  -2.44486  -0.65554
C     2.09511  -0.88619  -2.10916
C    -0.29133  -0.23253  -1.30011
C    -1.12684  -0.99819  -2.33112
C    -0.04950   1.16480  -1.90464
H    -1.82811  -3.78925   1.95270
H    -3.24907  -2.79921   2.36675
H    -1.88664  -2.92369   3.51645
H    -0.68776  -1.29087   2.27979
H    -3.54425   0.14007  -0.69745
H    -5.03988   2.10164  -0.65932
H    -4.25536   4.26701   0.31716
H    -1.93068   4.42107   1.22597
H    -0.43056   2.49602   1.14062
H     0.26046   0.90133   1.57356
H     1.61407  -0.73989   3.15632
H     2.81462  -2.08704   3.05974
H     1.15088  -2.28211   2.41965
H     3.54386   3.11101  -1.01633
H     4.50288   2.57025   0.40288
H     4.97900   2.04745  -1.25551
H     0.20607  -2.62761   0.20153
H     1.82772  -2.92933  -0.44150
H     0.43916  -2.95537  -1.52812
H     3.04223  -1.34200  -1.78993
H     1.71199  -1.46799  -2.96141
H     2.31135   0.12861  -2.45441
H    -1.37753  -2.01795  -2.02926
H    -2.06926  -0.46577  -2.52529
H    -0.57215  -1.03904  -3.28148
H     0.50269   1.84685  -1.24698
H     0.50219   1.07756  -2.84936
H    -1.00925   1.64795  -2.13055
