18
Generated by autodE on: 2022-06-24. E = -235.968069 Ha
C    -1.83885  -0.70631   0.07587
C    -0.63300   0.16779  -0.17232
C    -1.01149   1.46181  -0.85198
C     0.63298  -0.16772   0.17247
C     1.01149  -1.46186   0.85187
C     1.83885   0.70632  -0.07584
H    -2.34946  -0.93515  -0.87687
H    -1.61393  -1.65793   0.57211
H    -2.58034  -0.16998   0.69497
H    -1.74372   2.01727  -0.23873
H    -1.51608   1.25693  -1.81334
H    -0.16675   2.13135  -1.05302
H     1.74264  -2.01784   0.23778
H     0.16659  -2.13088   1.05395
H     1.51737  -1.25720   1.81258
H     1.61393   1.65805  -0.57188
H     2.58019   0.17004  -0.69516
H     2.34968   0.93495   0.87684
