36
Generated by autodE on: 2022-06-24. E = -953.994422 Ha
C    -1.45569   2.74105   0.59734
N    -0.80455   2.48597  -0.67408
C    -0.20727   1.33945  -1.03535
O     0.57694   1.23840  -1.98240
C    -0.64436   0.06571  -0.34454
N     0.24915  -0.76071   0.13791
C     1.60470  -0.68691   0.41027
C     2.15999  -2.00668   0.63849
C     3.60379  -2.20663   1.01748
O     1.40954  -2.99900   0.52914
C     2.21185   0.60061   0.65852
O     1.58191   1.64650   0.80205
O     3.55478   0.56870   0.74611
C     4.20341   1.79858   1.08370
C    -2.04402  -0.36234  -0.42055
C    -2.88783   0.14285  -1.43144
C    -4.21395  -0.27664  -1.51655
C    -4.72397  -1.19771  -0.59528
C    -3.89801  -1.69804   0.41691
C    -2.57076  -1.28321   0.50954
H    -2.29819   3.43203   0.45483
H    -0.75013   3.18165   1.32031
H    -1.84406   1.80972   1.02596
H    -0.48419   3.29870  -1.19774
H    -0.05404  -1.73615   0.30590
H     3.86071  -1.64129   1.92472
H     4.26829  -1.84593   0.21866
H     3.77274  -3.27869   1.18324
H     4.00482   2.56605   0.32130
H     5.27588   1.57305   1.11970
H     3.86264   2.16569   2.06307
H    -2.49944   0.84845  -2.16686
H    -4.85292   0.11552  -2.31066
H    -5.76571  -1.51920  -0.66128
H    -4.29407  -2.40473   1.14934
H    -1.95137  -1.65108   1.33014
