17
Generated by autodE on: 2022-06-17. E = -456.183608 Ha
C    -2.80898   0.95912  -1.36241
N    -2.07324   0.39179  -0.60721
C    -1.17265  -0.27449   0.06823
C    -1.62913  -1.35817   0.86700
N    -1.98559  -2.24993   1.52898
C     0.25438   0.08106  -0.00798
C     1.20927  -0.66081   0.71320
C     2.56278  -0.33190   0.63601
C     2.98812   0.73754  -0.15894
C     2.04328   1.47836  -0.87755
C     0.68758   1.15843  -0.80416
H    -3.42071   1.86020  -1.22071
H     0.89022  -1.49987   1.33524
H     3.29043  -0.91809   1.20212
H     4.04842   0.99309  -0.21721
H     2.36338   2.31687  -1.50052
H    -0.03784   1.74955  -1.36683
