23
Generated by autodE on: 2022-06-17. E = -351.521383 Ha
C     3.65891  -0.92643  -0.23019
C     2.58236  -0.13847  -0.01586
C     2.73643   1.30325   0.39632
C     1.23572  -0.68133  -0.18346
C     0.07850   0.00232   0.00187
C    -1.23338  -0.58518  -0.17852
C    -2.43286   0.02784  -0.01387
C    -2.60365   1.46355   0.39454
C    -3.71617  -0.72033  -0.24042
H     4.67748  -0.54633  -0.11216
H     3.54358  -1.97288  -0.52917
H     3.79615   1.58043   0.48682
H     2.24426   1.49466   1.36436
H     2.26287   1.97849  -0.33566
H     1.17807  -1.73419  -0.48497
H     0.12792   1.05234   0.30248
H    -1.24225  -1.63946  -0.48056
H    -3.17284   2.01417  -0.37529
H    -1.65600   1.99152   0.56163
H    -3.20152   1.52843   1.32080
H    -3.54201  -1.76478  -0.53814
H    -4.33821  -0.71638   0.67276
H    -4.32207  -0.23001  -1.02358
