34
Generated by autodE on: 2022-05-29. E = -1113.466395 Ha
C    -4.69740   0.13162   1.03416
N    -3.36794  -0.09253   0.49455
C    -2.29703   0.54838   0.98040
O    -2.33251   1.35305   1.91019
C    -0.98282   0.23605   0.28224
N     0.21153   0.79761   0.91118
C     1.11367   0.38772  -0.12721
C     2.51389   0.95929  -0.02699
O     2.97510   1.37858   1.00953
O     3.14983   0.89665  -1.18469
C     4.50997   1.37142  -1.20489
O     0.47891   0.84890  -1.38616
C    -0.85013   0.74954  -1.17271
O    -1.69295   1.01237  -1.98592
C     0.99042  -1.17700  -0.09283
C     1.83037  -1.75451   1.04960
C     1.35655  -1.85050  -1.41412
C    -0.54386  -1.25440   0.22027
F    -0.81149  -1.86263   1.40170
F    -1.25466  -1.93325  -0.72449
H    -5.02533   1.16990   0.86707
H    -4.71591  -0.06360   2.11685
H    -5.39900  -0.54815   0.53677
H    -3.25646  -0.71048  -0.30393
H     0.14905   1.81415   1.00303
H     5.12394   0.78310  -0.50892
H     4.54212   2.43305  -0.92354
H     4.85776   1.23579  -2.23452
H     2.89786  -1.67009   0.79872
H     1.64926  -1.23435   1.99806
H     1.59735  -2.82014   1.18195
H     1.20158  -2.93541  -1.32799
H     2.41828  -1.66989  -1.63155
H     0.76265  -1.48226  -2.25965
