12
Generated by autodE on: 2022-05-29. E = -355.865128 Ha
C    -0.90682  -1.67175  -0.65994
C     0.17208  -0.68602  -0.31204
C     1.59640  -1.07506  -0.58923
C    -0.12432   0.49491   0.22498
F     0.75919   1.42949   0.56583
F    -1.35077   0.92736   0.50610
H    -0.87409  -1.91161  -1.73658
H    -1.91193  -1.30035  -0.41916
H    -0.74815  -2.62008  -0.11844
H     1.85573  -1.99672  -0.04056
H     1.73157  -1.29537  -1.66203
H     2.31106  -0.29106  -0.30498
