39
Generated by autodE on: 2022-06-17. E = -677.618475 Ha
C    -2.97410  -1.91006  -0.93407
C    -1.80163  -1.90259  -0.28098
C    -0.87113  -3.08620  -0.33126
C    -1.33914  -0.73674   0.56230
C    -2.22919   0.51221   0.58891
N    -1.37397   1.59969   1.06704
C    -0.09466   1.38807   0.37595
C     1.05317   2.03960   1.15449
C    -0.10017   2.09479  -0.99361
C    -0.98484   3.29692  -1.17059
O     0.63916   1.71743  -1.89021
C     0.06341  -0.17758   0.16618
C     1.17600  -0.81258   0.94646
C     2.35605  -1.25793   0.47754
C     3.35961  -1.90958   1.39183
C     2.77908  -1.17356  -0.96518
H    -3.28255  -2.78078  -1.52137
H    -3.66742  -1.06599  -0.91003
H     0.07860  -2.82284  -0.82558
H    -0.60501  -3.42196   0.68531
H    -1.32006  -3.93122  -0.87396
H    -1.25826  -1.10223   1.60337
H    -3.11878   0.39962   1.22393
H    -2.57490   0.75711  -0.42899
H    -1.20154   1.44683   2.06227
H     0.90087   3.12687   1.23556
H     1.10486   1.62004   2.17004
H     2.01363   1.85405   0.65594
H    -0.74618   3.79475  -2.11980
H    -2.03873   2.97713  -1.17648
H    -0.87252   3.99543  -0.32898
H     0.22590  -0.35186  -0.90304
H     0.98469  -0.92503   2.02108
H     2.99308  -1.97912   2.42698
H     3.60432  -2.92867   1.04185
H     4.31191  -1.34981   1.39697
H     2.81289  -2.17976  -1.42091
H     2.12307  -0.53777  -1.57211
H     3.80317  -0.76855  -1.03870
