23
Generated by autodE on: 2022-06-17. E = -351.521380 Ha
C    -3.53926   0.30221  -1.29730
C    -2.54802  -0.03118  -0.44168
C    -2.84150  -0.71745   0.86796
C    -1.15908   0.27479  -0.77857
C    -0.07813  -0.00572  -0.00798
C     1.28079   0.31987  -0.39031
C     2.41061   0.07671   0.32109
C     2.43966  -0.58968   1.66732
C     3.75653   0.47808  -0.21298
H    -4.58678   0.08524  -1.07029
H    -3.32303   0.80086  -2.24722
H    -2.32539  -1.68982   0.93188
H    -3.91966  -0.88964   0.99451
H    -2.48443  -0.11578   1.72032
H    -0.99856   0.77386  -1.74189
H    -0.23059  -0.50266   0.95390
H     1.39301   0.81593  -1.36203
H     2.90196   0.07987   2.41424
H     1.44861  -0.88171   2.03769
H     3.07413  -1.49293   1.63320
H     4.42130  -0.40019  -0.29972
H     4.26103   1.17437   0.48099
H     3.68584   0.96011  -1.19910
