16
Generated by autodE on: 2022-07-27. E = -326.041465 Ha
C    -2.07708  -1.04379   0.49622
N    -0.95381  -0.60654   1.02444
C     0.19164   0.00696   0.58341
C     1.21248   0.34408   1.63369
C     0.48425   0.34120  -0.77196
C    -0.47944   0.01945  -1.89304
O     1.56937   0.91134  -1.04916
H    -2.79362  -1.49955   1.17741
H    -2.29028  -0.95467  -0.56317
H    -0.91717  -0.76139   2.03574
H     1.41835   1.42802   1.66732
H     0.87617   0.03714   2.63635
H     2.17935  -0.15053   1.43662
H    -0.02684   0.33545  -2.84246
H    -0.70075  -1.05996  -1.94228
H    -1.44027   0.54543  -1.76366
