16
Generated by autodE on: 2022-06-17. E = -326.052027 Ha
C     2.30289  -0.85437  -0.80857
N     1.01579  -0.75390  -0.56736
C     0.32415   0.23038   0.08077
C     1.09973   1.38464   0.61245
C    -1.09008   0.11478   0.22058
C    -1.80137  -1.10766  -0.34976
O    -1.77018   0.99235   0.80335
H     2.65493  -1.73103  -1.34928
H     2.98577  -0.07635  -0.47244
H     0.44933  -1.52905  -0.92038
H     0.41464   2.08713   1.10242
H     1.64172   1.92321  -0.18830
H     1.86241   1.06647   1.34871
H    -1.44289  -2.04359   0.11022
H    -2.87510  -1.00898  -0.14447
H    -1.66184  -1.19598  -1.44021
