39
Generated by autodE on: 2022-06-17. E = -677.559817 Ha. Imaginary frequency = -379.7 cm-1
C    -3.49523  -2.28911   0.37060
C    -2.41430  -1.78821  -0.25784
C    -2.25493  -1.90574  -1.74992
C    -1.35328  -1.09348   0.51753
C    -2.18624   0.82286   0.44173
N    -1.23051   1.63050   0.95130
C     0.03311   1.83829   0.47470
C     1.08031   2.22194   1.47047
C     0.42787   1.77096  -0.90268
C    -0.57636   1.75964  -2.03858
O     1.65222   1.82416  -1.18390
C    -0.03463  -0.96241   0.04347
C     1.11478  -0.96433   0.90173
C     2.42575  -1.04458   0.53589
C     3.51424  -1.05790   1.57230
C     2.90284  -1.19472  -0.88284
H    -4.28563  -2.80612  -0.18085
H    -3.61421  -2.20036   1.45514
H    -2.13388  -0.91500  -2.21829
H    -1.35483  -2.48609  -2.01195
H    -3.12740  -2.39566  -2.20474
H    -1.45461  -1.20981   1.60275
H    -3.09082   0.74619   1.04766
H    -2.32999   0.80684  -0.63408
H    -1.31625   1.79516   1.95323
H     0.65314   2.35319   2.47617
H     1.85187   1.43282   1.52945
H     1.59955   3.14981   1.18039
H    -0.08472   2.20092  -2.91717
H    -0.87997   0.73661  -2.30607
H    -1.48539   2.33481  -1.80764
H     0.13496  -1.03216  -1.03231
H     0.90188  -0.89950   1.97595
H     3.11597  -0.96453   2.59375
H     4.10591  -1.99091   1.51492
H     4.23191  -0.23451   1.40447
H     3.37278  -2.18607  -1.02554
H     2.10465  -1.08435  -1.62776
H     3.68293  -0.44947  -1.11172
