38
Generated by autodE on: 2022-05-30. E = -1162.473056 Ha
C     4.51720  -1.36199   1.78105
N     3.38338  -0.68263   1.18260
C     2.71105  -1.19922   0.15142
O     2.95079  -2.27607  -0.39497
C     1.53295  -0.37137  -0.33603
O     1.77162   0.04189  -1.72213
C     0.98931   1.13913  -1.90010
O     0.88490   1.73752  -2.93271
C     0.30615   1.34230  -0.53303
C    -0.17419   2.74355  -0.21737
C     0.35765   3.38271   1.02227
O    -0.97617   3.25208  -0.97661
O     1.35258   0.85390   0.32043
C    -0.77010   0.21462  -0.48167
C    -1.59395   0.13275   0.83774
O    -0.63411  -0.37890   1.76928
C    -0.32817  -1.58432   1.05491
C    -1.71545  -2.15007   0.79578
C    -2.51377  -1.07345   0.65729
C    -3.91658  -0.97729   0.22780
C    -4.73041  -2.24054   0.17068
O    -4.38024   0.11838  -0.07849
C     0.14683  -1.04118  -0.33061
H     4.71113  -0.93019   2.77016
H     4.29858  -2.43333   1.89072
H     5.42358  -1.25661   1.16286
H     3.11708   0.23828   1.51875
H     0.15392   2.72948   1.88645
H     1.45375   3.47194   0.94639
H    -0.09925   4.36969   1.16585
H    -1.40840   0.23961  -1.37060
H    -2.04974   1.06518   1.18502
H     0.38921  -2.20896   1.59793
H    -1.95624  -3.20264   0.64903
H    -4.72753  -2.74093   1.15171
H    -5.76032  -2.00857  -0.12962
H    -4.28286  -2.94221  -0.55138
H     0.07592  -1.78433  -1.13048
