20
Generated by autodE on: 2022-05-30. E = -702.145073 Ha
C    -4.50189   0.18954   0.39668
N    -3.13376   0.06438  -0.06794
C    -2.07492   0.18407   0.74067
O    -2.07424   0.40399   1.94730
C    -0.75662   0.02358   0.03038
O    -0.59471  -0.20324  -1.21697
C     0.94191  -0.28378  -1.46821
O     1.32603  -0.49381  -2.57992
C     1.41564  -0.06073  -0.17126
C     2.77204  -0.01471   0.31782
C     2.96387   0.23664   1.79096
O     3.71406  -0.17975  -0.46022
O     0.33879   0.11951   0.70064
H    -4.49588   0.41383   1.46920
H    -5.05363  -0.74739   0.22626
H    -5.01495   1.00149  -0.14020
H    -2.97155  -0.12240  -1.05511
H     2.49674   1.19085   2.08295
H     4.03767   0.26192   2.01606
H     2.47751  -0.55720   2.38065
