55
Generated by autodE on: 2022-06-14. E = -4459.530080 Ha
C    -3.81230 -11.43974  10.77568
N    -3.36329 -10.07805  10.57045
C    -4.15755  -9.00990  10.73007
O    -5.33744  -9.05620  11.04364
C    -3.42285  -7.64055  10.47685
C    -3.26934  -6.90310  11.81838
O    -3.36566  -7.42754  12.89383
O    -2.95415  -5.63169  11.61849
C    -2.78254  -4.80682  12.78378
N    -2.08184  -7.88733   9.99515
C    -1.98162  -7.41675   8.79898
C    -0.65819  -7.57126   8.13008
C    -0.33379  -8.75703   7.45710
C     0.93743  -8.92111   6.90349
C     1.89549  -7.91035   7.02935
C     1.58324  -6.73947   7.72649
C     0.31272  -6.57119   8.28088
C    -3.24502  -6.74025   8.33327
C    -4.10512  -6.80851   9.39762
C    -5.40114  -6.12093   9.76178
F    -5.66596  -6.41077  11.08597
Br   -6.97422  -6.97090   8.82597
C    -5.42666  -4.57716   9.67547
C    -4.37735  -3.85051   8.84084
C    -4.60971  -3.90041   7.33622
C    -4.72844  -5.30012   6.73700
C    -3.51524  -6.25610   6.89744
C    -2.28842  -5.54500   6.24591
F    -2.65642  -4.77809   5.20805
F    -1.36740  -6.38979   5.76218
F    -1.68901  -4.74010   7.13713
C    -3.84961  -7.52307   6.05373
F    -2.94558  -8.50119   6.20735
F    -3.90446  -7.23524   4.74337
F    -5.03414  -8.03051   6.40791
H    -3.39546 -11.86266  11.70403
H    -3.49861 -12.07339   9.93319
H    -4.90640 -11.45254  10.84440
H    -2.38734  -9.89624  10.35183
H    -2.55205  -3.80408  12.40783
H    -1.95573  -5.18621  13.40032
H    -3.71087  -4.79250  13.37178
H    -1.07746  -9.54956   7.36757
H     1.18178  -9.84590   6.37571
H     2.88879  -8.03992   6.59325
H     2.33311  -5.95380   7.84407
H     0.06942  -5.66021   8.82991
H    -6.43718  -4.25773   9.38333
H    -5.29196  -4.27446  10.72352
H    -3.37206  -4.21142   9.10304
H    -4.40516  -2.79605   9.15693
H    -3.82693  -3.32117   6.82589
H    -5.56033  -3.39042   7.10888
H    -4.92269  -5.20564   5.66130
H    -5.60439  -5.80797   7.14636
