55
Generated by autodE on: 2022-06-14. E = -4459.425599 Ha. Imaginary frequency = -273.1 cm-1
C    -4.59124 -10.90784   9.78417
N    -3.64645  -9.84957  10.08218
C    -3.82096  -9.04610  11.16052
O    -4.63580  -9.29656  12.04984
C    -2.97104  -7.81231  11.18454
C    -2.97933  -6.87048  12.33124
O    -3.55561  -7.03207  13.38739
O    -2.24808  -5.77812  12.05245
C    -2.20229  -4.76676  13.06581
N    -1.93968  -7.72727  10.36275
C    -1.45433  -7.41390   9.31370
C    -0.23663  -7.42834   8.55055
C     0.25102  -8.63864   8.02370
C     1.41931  -8.62832   7.26480
C     2.10391  -7.42852   7.03849
C     1.61841  -6.22935   7.57109
C     0.44165  -6.21870   8.31694
C    -3.57674  -6.66573   8.43296
C    -4.27053  -6.58093   9.45832
C    -5.51778  -6.15007  10.08027
F    -5.44995  -6.14673  11.45219
Br   -6.92781  -7.53366   9.63850
C    -5.97976  -4.76236   9.64588
C    -6.38747  -4.51797   8.19171
C    -5.31432  -4.62267   7.09559
C    -5.04252  -6.04545   6.56120
C    -3.66187  -6.65483   6.94978
C    -2.51840  -5.84368   6.26883
F    -2.92219  -5.30260   5.11076
F    -1.44028  -6.58994   5.98402
F    -2.11452  -4.83619   7.05768
C    -3.63529  -8.12225   6.44395
F    -2.54688  -8.79749   6.84631
F    -3.66395  -8.16903   5.10271
F    -4.69635  -8.80162   6.89919
H    -4.17997 -11.53845   8.98577
H    -5.56404 -10.50533   9.45349
H    -4.76237 -11.52899  10.67392
H    -3.10011  -9.50299   9.30213
H    -1.78068  -5.16818  13.99876
H    -1.55866  -3.97238  12.67039
H    -3.21197  -4.37561  13.25991
H    -0.28968  -9.56770   8.20906
H     1.80103  -9.56388   6.85067
H     3.01950  -7.42876   6.44301
H     2.15420  -5.29422   7.39527
H     0.03921  -5.28712   8.71618
H    -5.14859  -4.09096   9.92211
H    -6.82793  -4.51003  10.30079
H    -7.24085  -5.16650   7.93486
H    -6.77914  -3.48889   8.17422
H    -4.38857  -4.14063   7.44380
H    -5.65993  -4.01717   6.24521
H    -5.12377  -6.06839   5.46681
H    -5.80156  -6.73743   6.94606
