43
Generated by autodE on: 2022-06-23. E = -1328.298052 Ha
C     4.31828   2.13249  -0.17882
O     3.44075   1.12269   0.35285
C     2.77896   0.38714  -0.51991
O     2.92875   0.38747  -1.71838
C     1.83678  -0.62788   0.19104
C     2.64225  -1.25818   1.26186
N     3.29507  -1.78639   2.06099
N     1.41893  -1.65888  -0.75105
C    -0.02780  -1.68022  -0.88325
C    -0.48462  -0.81208  -2.00081
N    -0.78144  -0.12311  -2.88416
C    -0.51655  -3.04458  -1.16573
N    -0.87645  -4.11835  -1.40775
C    -0.53247  -1.14052   0.51961
C    -0.47719  -2.25502   1.57223
C    -1.99328  -0.68308   0.39281
O    -2.87468  -1.53067   0.34698
C    -2.32342   0.74077   0.28182
O    -3.64178   1.05003   0.19248
C    -4.40535   0.92446   1.40013
C    -1.34400   1.68642   0.11907
O    -1.47368   2.98584  -0.09147
C    -2.73812   3.66772  -0.07599
C     0.09854   1.28232   0.05023
O     0.90426   2.03281  -0.45829
C     0.50239  -0.00480   0.77757
C     0.63333   0.42688   2.25102
H     3.73181   2.86603  -0.74982
H     4.78743   2.60794   0.68910
H     5.07757   1.67224  -0.82558
H     1.90139  -1.56484  -1.64561
H     0.52754  -2.68468   1.66562
H    -1.17867  -3.05376   1.30682
H    -0.78121  -1.85280   2.54696
H    -5.44000   1.18146   1.13984
H    -4.03168   1.62623   2.16322
H    -4.36928  -0.10282   1.79077
H    -2.48924   4.72687  -0.21410
H    -3.24319   3.52596   0.88905
H    -3.37708   3.31989  -0.89662
H     1.38785   1.22164   2.32937
H    -0.32598   0.81029   2.62273
H     0.94223  -0.41084   2.88632
