17
Generated by autodE on: 2022-06-23. E = -638.812389 Ha
C     4.17390   0.36263  -0.04293
O     2.87444  -0.25703  -0.02665
C     1.82649   0.54938  -0.02419
O     1.85898   1.76629  -0.03476
C     0.54609  -0.19567  -0.00577
C     0.50727  -1.60773  -0.00070
N     0.52511  -2.77232   0.00183
N    -0.53439   0.58209   0.00022
C    -1.85488   0.33807   0.01832
C    -2.74474   1.44248   0.01187
N    -3.49357   2.33462   0.00629
C    -2.39927  -0.97058   0.04609
N    -2.90240  -2.02059   0.07043
H     4.30215   0.99260   0.84840
H     4.89573  -0.46115  -0.03833
H     4.28971   0.97169  -0.95035
H    -0.26710   1.58221  -0.01174
