43
Generated by autodE on: 2022-06-18. E = -904.394819 Ha
C    -2.64831   3.60644  -0.32974
O    -2.43864   2.19099  -0.20861
C    -1.44649   1.67377  -0.92948
O    -0.74125   2.32527  -1.67550
C    -1.27548   0.19767  -0.72432
N    -1.80796  -0.39992   0.27191
C    -1.39188  -1.81599   0.25279
C    -2.57843  -2.72565   0.59529
C    -0.32923  -2.06868   1.34784
C    -0.35125  -1.20340   2.57402
O     0.45643  -2.99045   1.21894
C    -0.83475  -2.05713  -1.16239
C    -0.38405  -0.64690  -1.63201
C    -0.64170  -0.43685  -3.13081
C     1.08074  -0.42819  -1.30884
C     1.57145   0.24463  -0.25086
C     2.98672   0.36381   0.05609
C     3.52525   0.96176   1.14582
C     2.72331   1.61419   2.23759
C     5.01414   1.00020   1.34782
H    -1.75195   4.15522  -0.00650
H    -2.88297   3.87147  -1.37081
H    -3.49593   3.84237   0.32351
H    -2.26960  -3.77902   0.52714
H    -3.39631  -2.55015  -0.11928
H    -2.95204  -2.53214   1.61191
H     0.32137  -1.61986   3.33521
H    -1.37413  -1.11258   2.96874
H    -0.01895  -0.18760   2.30898
H    -1.64502  -2.41989  -1.81219
H    -0.02419  -2.79539  -1.17137
H    -0.29643   0.55111  -3.46339
H    -0.10205  -1.20447  -3.70723
H    -1.71494  -0.53003  -3.35851
H     1.77510  -0.91953  -2.00154
H     0.87391   0.72485   0.44060
H     3.67249  -0.09262  -0.66761
H     2.90251   1.10184   3.19949
H     3.04978   2.65903   2.38112
H     1.64163   1.61585   2.05128
H     5.29262   0.51533   2.30072
H     5.55707   0.50083   0.53189
H     5.37290   2.04269   1.41950
