18
Generated by autodE on: 2022-10-21. E = -514.386966 Ha
C     2.70304   0.84458  -0.25639
O     1.43999   1.16272  -0.86246
C     0.39371   0.43604  -0.54114
C     0.17506  -0.62584   0.28698
C     1.01290  -1.34520   1.14976
N     1.66667  -1.98130   1.88150
C    -1.36996  -0.83639   0.17488
C    -2.05043   0.37230   0.84733
C    -1.80471   1.40572   0.03584
C    -0.98885   0.80131  -1.12427
O    -1.56192  -0.51050  -1.21258
H     3.42722   1.55944  -0.66321
H     2.63543   0.95503   0.83580
H     2.99920  -0.18205  -0.51727
H    -1.73271  -1.83801   0.42588
H    -2.55345   0.34978   1.81340
H    -2.04141   2.46242   0.15124
H    -0.97065   1.33154  -2.08194
