16
Generated by autodE on: 2022-10-21. E = -363.899858 Ha
C     3.52203  -0.49423  -0.01000
N     2.43117   0.16525  -0.07383
C     1.42812   0.87462  -0.14243
C     0.04922   0.37740  -0.04954
C    -1.00893   1.28694  -0.22482
C    -2.33414   0.85445  -0.14459
C    -2.61326  -0.49049   0.11774
C    -1.56702  -1.40571   0.29719
C    -0.24403  -0.97698   0.21258
H     4.00949  -0.64962   0.95884
H     3.97788  -0.88484  -0.92651
H    -0.77389   2.33456  -0.42692
H    -3.15066   1.56646  -0.28414
H    -3.64982  -0.82970   0.18398
H    -1.78905  -2.45565   0.50233
H     0.57546  -1.68730   0.34972
