43
Generated by autodE on: 2022-06-02. E = -1459.807024 Ha
C     4.43490  -1.68796   1.92149
O     3.75172  -0.66431   1.17809
C     2.58495  -0.99522   0.63314
O     2.08080  -2.09541   0.72366
C     2.01577   0.16713  -0.19167
N     2.39921   0.06373  -1.61441
O     1.29186  -0.62916  -2.25304
C     0.20091  -0.38134  -1.47620
C     0.49144   0.14176  -0.26951
C    -0.42457   0.50686   0.89245
C    -1.46820   1.56535   0.43936
O    -1.21696   2.44063  -0.35731
O    -2.62352   1.43624   1.07279
C    -3.63275   2.42524   0.79825
C     0.37714   1.27384   1.98122
F    -0.42865   1.68044   2.97291
F     1.33074   0.50662   2.54131
F     0.98506   2.36926   1.49872
C    -1.05130  -0.72729   1.60353
C    -1.96449  -1.65683   0.79349
C    -1.25336  -2.61499  -0.18513
C    -1.41845  -2.35687  -1.68067
C    -1.05898  -0.89641  -2.16850
C    -2.23478  -0.01623  -2.02883
N    -3.20900   0.60796  -1.98966
C    -0.82706  -0.96271  -3.62877
N    -0.70618  -1.05708  -4.77687
H     5.36440  -1.23124   2.27935
H     4.65475  -2.54841   1.27376
H     3.81715  -2.01385   2.77052
H     2.42957   1.10307   0.19915
H     3.17527  -0.59152  -1.74274
H    -3.90386   2.39713  -0.26513
H    -3.26183   3.42431   1.06642
H    -4.49193   2.15379   1.42137
H    -0.21747  -1.32013   2.00481
H    -1.61826  -0.34998   2.46379
H    -2.49254  -2.26577   1.54213
H    -2.75582  -1.07981   0.29203
H    -1.63671  -3.63558  -0.03091
H    -0.18248  -2.65881   0.05501
H    -2.44754  -2.55122  -2.01606
H    -0.75635  -3.03701  -2.23430
