31
Generated by autodE on: 2022-06-02. E = -1061.863190 Ha
C    -0.29536  -3.24139  -2.18695
O    -0.03373  -2.10431  -1.34267
C     0.61019  -1.08807  -1.89243
O     1.00037  -1.05279  -3.03690
C     0.78127   0.10121  -0.92305
C     2.26968   0.49922  -0.89923
F     2.68482   0.99163  -2.07049
F     2.49712   1.43592   0.03377
F     3.04272  -0.55983  -0.60357
C     0.30068  -0.18524   0.42305
C    -0.44028  -0.20887   1.37690
C    -1.64003   0.13923   2.14651
C    -1.34942   1.28006   3.04210
N    -1.13426   2.19935   3.71337
C    -2.14555  -0.98460   2.96043
N    -2.56524  -1.87502   3.57102
C    -2.73498   0.55588   1.08411
C    -2.27545   1.60360   0.05517
C    -1.61499   1.11682  -1.26471
C    -0.09398   1.29503  -1.43803
H    -0.90776  -2.93788  -3.04736
H     0.65092  -3.67593  -2.53776
H    -0.83885  -3.95755  -1.56116
H    -3.04395  -0.37363   0.58406
H    -3.59450   0.93137   1.65796
H    -1.63672   2.35764   0.54552
H    -3.19273   2.14185  -0.22575
H    -2.06886   1.70161  -2.07812
H    -1.90004   0.07043  -1.46413
H     0.14854   1.42272  -2.50229
H     0.23960   2.20140  -0.91094
