12
Generated by autodE on: 2022-07-27. E = -397.879896 Ha
C     0.42837   1.43406   2.45523
O    -0.27071   1.17078   1.22938
C     0.19496   0.16958   0.47888
O     1.15883  -0.51989   0.77274
C    -0.59589   0.00413  -0.74231
N    -0.23370  -0.94660  -1.56588
O    -0.76207  -1.25984  -2.65727
H    -0.09237   2.27671   2.92387
H     0.39622   0.55323   3.11279
H     1.47568   1.69970   2.25065
H    -1.45510   0.62608  -0.99099
H     0.59541  -1.49356  -1.25431
