43
Generated by autodE on: 2022-06-02. E = -1459.737404 Ha. Imaginary frequency = -306.4 cm-1
C     2.78712   2.63428   2.34341
O     2.12791   2.38798   1.09076
C     2.62409   1.41808   0.32820
O     3.62799   0.78023   0.58031
C     1.77456   1.18627  -0.86249
N     2.21491   0.29182  -1.73353
O     1.44268  -0.13399  -2.65330
C    -0.17218  -0.71068  -1.52510
C    -0.09844  -0.12203  -0.43472
C    -0.73966   0.10866   0.87918
C    -0.78283   1.61465   1.18979
O    -0.95041   2.44882   0.32680
O    -0.69109   1.88466   2.48244
C    -0.78561   3.26890   2.86678
C     0.02121  -0.70797   1.94761
F     1.26023  -0.23007   2.17210
F    -0.61361  -0.74082   3.12453
F     0.16439  -1.98231   1.54318
C    -2.21492  -0.41531   0.84494
C    -3.07629   0.07784  -0.33337
C    -3.34100  -0.92784  -1.46955
C    -2.38976  -0.98777  -2.66658
C    -0.95915  -1.59863  -2.41846
C    -1.08368  -2.91221  -1.74842
N    -1.20891  -3.92304  -1.19578
C    -0.33877  -1.82694  -3.74141
N     0.07858  -2.01873  -4.80473
H     2.24437   3.46227   2.81124
H     2.73733   1.73840   2.97764
H     3.83700   2.91104   2.17389
H     1.05011   1.93100  -1.18324
H     2.98507  -0.32190  -1.42415
H    -1.79771   3.64490   2.66103
H    -0.04825   3.86618   2.31477
H    -0.57783   3.29475   3.94189
H    -2.67725  -0.12475   1.79884
H    -2.16283  -1.51417   0.83435
H    -4.05879   0.33801   0.08717
H    -2.67500   1.01615  -0.74492
H    -4.31573  -0.67010  -1.91296
H    -3.46943  -1.93875  -1.04724
H    -2.21652   0.01465  -3.08530
H    -2.85527  -1.60262  -3.45101
