69
Generated by autodE on: 2022-10-26. E = -2263.856045 Ha
C     2.32010  10.29455 -12.90460
O     1.44047  10.63878 -11.82351
C     1.85308  10.32779 -10.60053
O     2.84403   9.67102 -10.36601
C     0.78004  10.61947  -9.51532
C    -0.34925  11.55491 -10.02232
O    -0.14521  12.58787 -10.62415
O    -1.54875  11.14701  -9.64249
C    -2.65371  12.01753  -9.94552
C     1.29427  11.25013  -8.20325
C     1.11711  10.36682  -7.17664
C     0.84689   8.95643  -7.82234
C    -0.14587   7.95141  -7.15020
C    -1.61997   8.22704  -7.28221
O     0.27820   6.93984  -6.63297
C     2.21502   8.22996  -8.03456
O     3.29505   8.64309  -7.68014
O     2.05594   7.12045  -8.74916
C     3.24993   6.43728  -9.15838
N     0.27022   9.33864  -9.09660
C    -0.08794   8.37658 -10.12449
C     1.19075  10.60568  -5.63275
C     2.35382   9.80286  -4.97403
F     2.31812   9.91557  -3.63058
F     3.54205  10.26784  -5.36916
F     2.30664   8.49030  -5.23127
C    -0.12642  10.15319  -4.90990
F    -1.21120  10.54177  -5.59440
F    -0.22091   8.82513  -4.73357
F    -0.22457  10.68137  -3.68190
C     1.41146  12.08467  -5.18708
C     0.25037  13.07418  -5.32798
C    -0.33698  13.25248  -6.72170
C     0.66300  13.70872  -7.77185
C     1.76319  12.72350  -8.24625
O     2.94524  12.95302  -7.46056
C     4.10389  12.15739  -7.71638
C     2.30472  13.21789  -9.62979
C     2.29337  14.69832  -9.89743
O     2.89865  12.46710 -10.38043
H     3.27826  10.82049 -12.78831
H     1.81413  10.62179 -13.81982
H     2.49330   9.20944 -12.92891
H    -2.72144  12.18413 -11.02927
H    -2.52473  12.97875  -9.42813
H    -3.54774  11.50196  -9.57861
H    -2.11638   7.98584  -6.33299
H    -2.01986   7.53775  -8.04339
H    -1.84056   9.25078  -7.59716
H     3.82629   6.11460  -8.27983
H     3.86657   7.09825  -9.78335
H     2.91632   5.56770  -9.73584
H    -0.82569   8.83924 -10.79665
H    -0.55515   7.49274  -9.67583
H     0.76676   8.02416 -10.72727
H     1.68420  12.05416  -4.12608
H     2.28015  12.46013  -5.72596
H     0.65051  14.04666  -4.99524
H    -0.55688  12.82925  -4.62366
H    -0.85027  12.34195  -7.06087
H    -1.11827  14.02753  -6.66452
H     1.18709  14.60780  -7.41697
H     0.09299  14.00234  -8.66006
H     4.74475  12.26603  -6.83138
H     3.85615  11.09618  -7.85172
H     4.65297  12.51526  -8.60177
H     2.96812  14.90061 -10.73864
H     1.27890  15.03002 -10.16184
H     2.61247  15.26590  -9.01294
