34
Generated by autodE on: 2022-10-26. E = -1009.976705 Ha
C     4.14327   0.93116  -1.44611
O     2.83289   0.68725  -0.92718
C     2.71907  -0.30663  -0.01478
O     3.66786  -1.02357   0.27456
C     1.35916  -0.43351   0.48465
C     0.85850  -1.60223   1.17814
C     1.82970  -2.65071   1.66534
O    -0.35374  -1.74911   1.41307
N     0.47663   0.64269   0.33361
C     0.93540   1.99300   0.74317
C    -0.79112   0.46571   0.03628
C    -1.80252   1.54407   0.29062
O    -1.96853   2.07982   1.36476
O    -2.49610   1.80558  -0.80915
C    -3.56366   2.76507  -0.69316
C    -1.26985  -0.76031  -0.68000
O    -0.61408  -1.37040  -1.49554
O    -2.53455  -1.01883  -0.37167
C    -3.13625  -2.15371  -1.01622
H     4.04192   1.77700  -2.13653
H     4.51966   0.04910  -1.98470
H     4.84343   1.18649  -0.63685
H     2.29268  -3.15870   0.80529
H     2.64593  -2.21521   2.25627
H     1.26910  -3.38137   2.26280
H     0.48057   2.22684   1.71258
H     2.02093   1.98787   0.84364
H     0.62753   2.73048  -0.00763
H    -3.16631   3.73641  -0.36757
H    -4.00246   2.84490  -1.69350
H    -4.31143   2.40747   0.02868
H    -3.13907  -2.01567  -2.10659
H    -4.16170  -2.20614  -0.63456
H    -2.58271  -3.06760  -0.75802
