69
Generated by autodE on: 2022-10-26. E = -2263.752876 Ha. Imaginary frequency = -196.3 cm-1
C     2.80094  10.59669 -12.89414
O     1.71246  10.80052 -11.98675
C     1.68857  10.01981 -10.90469
O     2.48684   9.10924 -10.75546
C     0.55310  10.27934  -9.99315
C    -0.35516  11.42702 -10.22364
O    -0.15507  12.34589 -11.00063
O    -1.40489  11.43213  -9.38748
C    -2.38451  12.45985  -9.57469
C     1.46206  11.37762  -7.96625
C     1.15978  10.63761  -7.01523
C     0.73605   8.49469  -8.35496
C     0.13778   7.46323  -7.40953
C    -1.32869   7.28584  -7.12437
O     0.94944   6.77755  -6.80364
C     2.24621   8.20038  -8.46916
O     3.17323   8.80266  -7.98931
O     2.35911   7.03036  -9.10099
C     3.69062   6.53187  -9.28025
N     0.04451   9.19089  -9.27372
C    -1.37286   8.81613  -9.56626
C     1.02473  10.67919  -5.52821
C     2.15811   9.86755  -4.84545
F     1.98812   9.84635  -3.50930
F     3.35348  10.42421  -5.08596
F     2.22538   8.59938  -5.25350
C    -0.34607  10.13667  -5.04072
F    -1.32575  10.45910  -5.90012
F    -0.36232   8.80052  -4.90131
F    -0.68155  10.64433  -3.84586
C     1.19479  12.16356  -5.06016
C     0.12608  13.19071  -5.46024
C    -0.29902  13.33954  -6.92722
C     0.73784  13.75014  -7.97929
C     1.90125  12.77397  -8.27776
O     2.96748  13.15387  -7.38175
C     4.16884  12.38654  -7.38227
C     2.55632  12.97350  -9.66471
C     2.45471  14.31699 -10.32043
O     3.25338  12.08229 -10.11393
H     3.76082  10.75153 -12.38246
H     2.67093  11.34333 -13.68644
H     2.76983   9.58325 -13.31974
H    -2.82274  12.38925 -10.58088
H    -1.94296  13.45580  -9.43868
H    -3.15267  12.28110  -8.81386
H    -1.40600   6.70663  -6.19660
H    -1.80066   6.70976  -7.93400
H    -1.86748   8.23237  -7.01766
H     4.17354   6.37018  -8.30554
H     4.28339   7.24265  -9.87348
H     3.58775   5.58112  -9.81583
H    -2.05829   9.14374  -8.78386
H    -1.40781   7.73127  -9.69719
H    -1.65638   9.27418 -10.51467
H     1.26270  12.15736  -3.96305
H     2.16409  12.48765  -5.44678
H     0.51084  14.16093  -5.10270
H    -0.78978  13.00390  -4.87737
H    -0.80426  12.42614  -7.26008
H    -1.07327  14.12414  -6.94663
H     1.20839  14.70590  -7.70388
H     0.19656  13.92177  -8.91816
H     4.67298  12.60765  -6.43131
H     3.96820  11.30776  -7.44051
H     4.83382  12.67183  -8.21347
H     3.18192  14.37886 -11.13998
H     1.43884  14.45051 -10.72170
H     2.63024  15.12072  -9.59042
