28
Generated by autodE on: 2022-07-01. E = -819.874192 Ha
C     4.87000   0.10967  -0.05995
O     3.50311  -0.06075   0.36439
C     2.78104   1.04897   0.50531
O     3.16670   2.18421   0.32088
C     1.44530   0.73234   1.00549
N     0.36698   0.52485   0.52376
C    -0.82092   0.22294   0.09857
C    -1.74696   1.35376  -0.13857
O    -2.86332   1.25409  -0.61499
O    -1.20781   2.52325   0.23291
C    -2.01139   3.69337   0.03234
C    -1.14492  -1.19468  -0.15401
C    -2.47406  -1.65087  -0.25503
C    -2.73985  -3.00431  -0.47058
C    -1.69608  -3.92663  -0.58714
C    -0.37312  -3.48286  -0.48519
C    -0.09813  -2.13306  -0.27335
H     5.41553   0.73379   0.66177
H     4.90493   0.57361  -1.05562
H     5.29688  -0.89860  -0.09401
H    -2.94366   3.62524   0.61170
H    -2.25220   3.81829  -1.03341
H    -1.40709   4.53692   0.38541
H    -3.29651  -0.94552  -0.15988
H    -3.77714  -3.33978  -0.54303
H    -1.91082  -4.98405  -0.75735
H     0.45292  -4.19176  -0.57807
H     0.94023  -1.80157  -0.20892
