25
Generated by autodE on: 2022-07-27. E = -536.117165 Ha
C     1.72463  -3.47581   0.61499
C     1.59654  -2.20457  -0.14797
C     2.37644  -1.99577  -1.39429
N     0.78949  -1.27688   0.30782
C     0.57224   0.03857  -0.11800
C     1.64182   0.77269  -0.64148
N     2.52813   1.42159  -1.06008
C    -0.71809   0.65429   0.14538
C    -0.90451   2.05074  -0.01419
C    -2.13335   2.64970   0.24930
C    -3.22449   1.88820   0.69061
C    -3.06007   0.50873   0.84821
C    -1.83662  -0.10434   0.57032
H     1.02051  -3.52448   1.45821
H     2.75132  -3.57659   1.00944
H     1.55841  -4.33528  -0.05482
H     2.70772  -2.96288  -1.79570
H     3.27255  -1.37578  -1.21799
H     1.76574  -1.46730  -2.14497
H     0.22863  -1.55331   1.11894
H    -0.06530   2.66768  -0.34388
H    -2.23993   3.72947   0.11467
H    -4.18588   2.36237   0.89975
H    -3.90050  -0.10815   1.17753
H    -1.76337  -1.19012   0.66520
