26
Generated by autodE on: 2022-06-23. E = -689.460823 Ha
C     2.39102   2.20766  -0.04613
O     1.80867   1.26378   0.85928
C     0.73614   0.56230   0.38822
C     0.78999  -0.76790   0.09518
O     1.82941  -1.60088   0.14399
C     3.16216  -1.16004   0.42353
C    -0.45920  -1.49099  -0.33314
O    -0.39433  -2.68910  -0.57230
C    -1.73124  -0.73655  -0.46989
C    -2.94188  -1.49174  -0.92429
C    -1.77076   0.58940  -0.18803
C    -3.02990   1.38776  -0.31217
C    -0.54284   1.29756   0.28511
O    -0.58584   2.48506   0.60220
H     3.24788   2.65379   0.47591
H     2.74371   1.70158  -0.96014
H     1.67591   2.99833  -0.31630
H     3.78661  -2.05852   0.33961
H     3.23853  -0.74647   1.43718
H     3.49180  -0.41421  -0.31396
H    -3.74912  -1.42083  -0.17682
H    -2.70977  -2.54979  -1.09326
H    -3.34011  -1.06315  -1.85883
H    -3.81502   0.98041   0.34656
H    -2.86216   2.43901  -0.05132
H    -3.42496   1.33344  -1.33999
