25
Generated by autodE on: 2022-10-08. E = -796.836263 Ha
C    -3.68728   2.69245   0.38545
N    -2.94475   1.45085   0.33586
C    -1.61132   1.43856   0.15563
O    -0.93448   2.46988   0.02292
C    -0.96416   0.10203   0.12088
N     0.34374   0.11153  -0.05209
C     1.50149   0.15996  -0.20683
C     2.92151   0.32791  -0.39554
O     3.42274   1.42820  -0.49612
O     3.53925  -0.84329  -0.43750
C     4.96956  -0.80715  -0.62375
C    -1.63530  -1.18482   0.25971
O    -2.84298  -1.32254   0.42406
O    -0.78626  -2.22034   0.18924
C    -1.35473  -3.53048   0.31447
H    -3.58396   3.26319  -0.55183
H    -4.74867   2.46386   0.54148
H    -3.34101   3.33740   1.20937
H    -3.41542   0.55261   0.43166
H     5.28998  -1.85415  -0.63976
H     5.44436  -0.27032   0.20921
H     5.21346  -0.31327  -1.57452
H    -2.08235  -3.71491  -0.48922
H    -0.51548  -4.23077   0.23226
H    -1.85045  -3.64611   1.28929
