22
Generated by autodE on: 2022-10-20. E = -479.725076 Ha
C     1.71313  -1.25820   1.24206
C     1.09171  -0.26282   0.30230
C    -0.37304  -0.22330   0.13778
C    -1.00566   0.15843  -1.06494
C    -2.39669   0.14127  -1.17349
C    -3.19153  -0.23289  -0.08555
C    -2.57932  -0.60957   1.11394
C    -1.18873  -0.61598   1.22114
N     1.87557   0.58892  -0.33334
C     3.33950   0.56111  -0.11682
O     1.47358   1.49735  -1.15491
H     1.99722  -0.79575   2.20344
H     2.61890  -1.71145   0.81494
H     1.00838  -2.07023   1.45498
H    -0.39640   0.45953  -1.91332
H    -2.86418   0.42728  -2.11892
H    -4.28066  -0.23224  -0.17203
H    -3.18750  -0.90193   1.97321
H    -0.73126  -0.91378   2.16593
H     3.73143   1.45967  -0.60131
H     3.57986   0.57038   0.95342
H     3.77249  -0.33632  -0.58053
