14
Generated by autodE on: 2022-10-20. E = -307.776440 Ha
C     2.78312  -0.13852  -0.27678
O     1.45441   0.07929   0.17220
C     0.52534   0.21290  -0.82481
C    -0.79297   0.17225  -0.58249
O    -1.29762  -0.00940   0.67733
C    -2.69263  -0.26585   0.72905
H     3.42410  -0.18728   0.61403
H     3.12961   0.68765  -0.92293
H     2.87004  -1.08732  -0.83528
H     0.89566   0.39074  -1.83907
H    -1.50932   0.31777  -1.39668
H    -2.96724  -0.36038   1.78850
H    -2.95027  -1.20354   0.20559
H    -3.27054   0.56206   0.28120
