36
Generated by autodE on: 2022-10-20. E = -787.473869 Ha. Imaginary frequency = -433.7 cm-1
C    -3.14934  -1.90482  -1.34319
O    -2.75097  -1.14275  -0.21124
C    -1.42770  -1.15447   0.06663
O    -0.66352  -0.17525  -1.68537
N    -0.45619   1.02623  -1.18386
C    -1.58060   1.94442  -1.35819
C     0.30860   1.05623  -0.05894
C     0.32486   2.32472   0.75444
C     1.59563   0.28269  -0.08620
C     2.17702  -0.13827  -1.29616
C     3.41111  -0.79116  -1.30974
C     4.09435  -1.04335  -0.11607
C     3.53134  -0.62543   1.09298
C     2.30005   0.03333   1.10551
C    -0.94440  -0.30214   1.06790
O    -1.84742   0.55877   1.68942
C    -2.51502  -0.02346   2.80125
H    -2.80571  -2.94998  -1.25710
H    -2.73605  -1.46167  -2.26245
H    -4.24641  -1.88317  -1.37844
H    -0.86177  -2.04240  -0.22535
H    -1.26161   2.98704  -1.23872
H    -1.95648   1.80096  -2.37841
H    -2.38396   1.71822  -0.63957
H     0.82787   2.14618   1.71266
H     0.88882   3.11265   0.22670
H    -0.68441   2.69316   0.96948
H     1.65309   0.03829  -2.23398
H     3.84140  -1.10530  -2.26398
H     5.05713  -1.55965  -0.12844
H     4.05222  -0.81120   2.03538
H     1.88068   0.34982   2.06219
H    -0.13779  -0.67396   1.70722
H    -3.11857  -0.89680   2.49936
H    -1.79459  -0.34314   3.57618
H    -3.17907   0.74342   3.22585
