20
Generated by autodE on: 2022-06-21. E = -457.715302 Ha
C    -3.09666  -0.69174  -0.17997
N    -1.82922   0.00683  -0.04366
C    -1.81732   1.40418   0.04960
C    -0.68186   2.11494   0.13753
C     0.68832   1.48290   0.14765
C     0.57638  -0.02785   0.02201
C     1.77218  -0.88457  -0.01080
N     2.96585  -0.24748   0.09175
O     1.72588  -2.12623  -0.12815
C    -0.63471  -0.64736  -0.06376
H    -3.76747  -0.45363   0.66079
H    -3.60674  -0.41600  -1.11794
H    -2.91526  -1.77371  -0.18568
H    -2.80305   1.87314   0.04538
H    -0.75415   3.20262   0.20891
H     1.30750   1.90306  -0.67138
H     1.23020   1.76511   1.07416
H     3.81450  -0.80256   0.08071
H     3.04452   0.75498   0.20554
H    -0.68449  -1.73362  -0.15303
