24
Generated by autodE on: 2022-06-21. E = -721.631075 Ha
C    -4.35083   0.79684  -0.18194
N    -2.91030   0.87586  -0.07758
C    -2.10047  -0.20443  -0.16167
O    -2.51274  -1.36184  -0.33437
C    -0.67177   0.11437  -0.02834
C    -0.09195   1.39522   0.17923
O    -0.53826   2.52613   0.29925
O     1.29557   1.15287   0.23792
C     1.52165  -0.16020   0.07650
C     2.90863  -0.66078   0.10006
C     3.96098   0.38554   0.32979
O     3.16913  -1.84727  -0.05653
N     0.36345  -0.79661  -0.08394
C     0.20725  -2.24258  -0.28593
H    -4.71881   1.36529  -1.05141
H    -4.64349  -0.25295  -0.29969
H    -4.83479   1.20007   0.72182
H    -2.47192   1.78481   0.06319
H     3.78632   0.89750   1.28956
H     3.91520   1.15289  -0.45944
H     4.94731  -0.09421   0.33203
H    -0.29452  -2.41059  -1.24516
H    -0.41860  -2.64313   0.51865
H     1.19929  -2.69596  -0.27675
