44
Generated by autodE on: 2022-06-21. E = -1179.330781 Ha. Imaginary frequency = -448.8 cm-1
C    -3.72566  -3.00038   1.38507
N    -2.92127  -2.28672   0.41562
C    -2.93810  -0.93131   0.35584
O    -3.81365  -0.25577   0.92453
C    -1.82033  -0.34271  -0.39215
C    -0.67243  -1.05105  -0.85171
O    -0.32329  -2.22628  -0.78182
O     0.14134  -0.10475  -1.45981
C    -0.36982   1.13889  -1.13576
C     0.20054   2.23438  -2.00237
C    -0.33055   3.63201  -1.90109
O     1.14123   1.94931  -2.72438
C     0.46270   1.41616   0.64059
C     1.97439   1.35958   0.45065
C     2.53125  -0.02255   0.71350
C     3.91832  -0.27038   0.27002
N     4.39098  -1.54031   0.28652
O     4.63304   0.67675  -0.10201
C     1.81692  -0.93496   1.41372
N     0.54086  -0.68313   1.88544
C    -0.17622  -1.73247   2.60514
C    -0.13372   0.42738   1.46074
N    -1.71852   0.96329  -0.87317
C    -2.61361   2.04452  -0.48828
H    -3.69611  -4.07344   1.15635
H    -4.76967  -2.66065   1.34557
H    -3.35653  -2.85134   2.41605
H    -2.09044  -2.74632   0.04253
H     0.41162   4.31575  -2.33299
H    -0.55734   3.91761  -0.86508
H    -1.26158   3.71190  -2.48532
H     0.05473   2.41703   0.81062
H     2.26282   1.67745  -0.56190
H     2.45922   2.08994   1.12547
H     3.78777  -2.34280   0.41600
H     5.33580  -1.70026  -0.04624
H     2.20784  -1.91523   1.68742
H     0.50041  -2.21685   3.32148
H    -0.56384  -2.48767   1.90685
H    -1.01467  -1.28672   3.15436
H    -1.09602   0.60063   1.93949
H    -2.72753   2.75590  -1.31207
H    -3.58680   1.61337  -0.24744
H    -2.23286   2.57439   0.40082
