19
Generated by autodE on: 2022-06-16. E = -564.952955 Ha
C     2.90608   0.51036   0.43184
N     1.77128   0.09780  -0.37065
C     0.95872  -0.90186   0.01329
O     1.18895  -1.71231   0.90534
N    -0.22702  -1.04199  -0.78275
C    -1.40956  -1.58882  -0.13135
C    -2.11890  -0.34436   0.45292
N    -1.54361   0.78221  -0.32274
C    -0.86600   1.73142   0.33601
N    -0.33867   2.62528   0.87069
O    -0.67079   0.15173  -1.35560
H     2.61622   1.27870   1.16891
H     3.68792   0.92464  -0.21879
H     3.31297  -0.35642   0.96676
H     1.41658   0.74727  -1.06625
H    -2.03876  -2.07889  -0.88378
H    -1.11493  -2.30839   0.63751
H    -1.89345  -0.21152   1.51818
H    -3.20294  -0.38540   0.29806
