13
Generated by autodE on: 2022-06-16. E = -486.202234 Ha
C    -2.71905   1.21763  -0.20991
N    -1.89212   0.15440   0.32927
C    -0.77667  -0.25076  -0.27475
O    -0.29828   0.17185  -1.32388
N    -0.21465  -1.41745   0.35864
O     1.05844  -1.55370   0.33896
N     2.01246  -0.63685   0.17498
C     1.67180   0.64329   0.27250
N     1.58140   1.80062   0.43605
H    -3.45961   0.82582  -0.92633
H    -2.08406   1.94922  -0.72613
H    -3.24911   1.71196   0.61350
H    -2.20483  -0.35953   1.15024
