55
Generated by autodE on: 2022-06-05. E = -1807.107464 Ha
C     6.10273  -0.54545   3.13714
N     5.87326   0.65081   2.35376
C     6.42374   1.83316   2.64794
O     7.23715   2.01742   3.55659
C     5.91278   3.00263   1.75040
C     6.96579   4.10388   1.51699
O     6.67819   5.26468   1.31397
O     8.18951   3.60882   1.40949
C     9.23113   4.52432   1.02840
O     5.69287   2.49673   0.43679
C     4.37853   2.80304  -0.03386
C     4.46152   3.80716  -1.17896
C     3.80331   1.43092  -0.45158
O     3.76520   0.48404   0.31385
O     3.41201   1.37306  -1.70993
C     2.84111   0.13241  -2.16107
C     3.67687   3.35410   1.20967
C     4.55538   3.55668   2.21186
C     4.36357   4.12729   3.62301
C     3.42313   5.34424   3.64523
C     5.69137   4.65485   4.21760
C     3.86231   2.97646   4.54819
C     2.38766   2.56315   4.51123
C     1.76587   2.07408   3.19420
C     1.26862   3.19151   2.26326
C     2.18921   3.57768   1.10431
F     1.76591   2.81944   0.01492
Cl    1.85532   5.31455   0.58738
H     6.56608  -1.33598   2.52590
H     6.77034  -0.30800   3.97365
H     5.15149  -0.93033   3.53661
H     5.18365   0.60831   1.59970
H     9.01692   4.95167   0.03846
H     9.31582   5.33185   1.76913
H    10.15352   3.93380   0.99982
H     4.91985   4.73199  -0.80428
H     5.08383   3.39623  -1.98613
H     3.46723   4.03751  -1.58026
H     1.93174  -0.09114  -1.58527
H     2.59777   0.28141  -3.21877
H     3.56556  -0.68532  -2.04353
H     2.40710   5.14636   3.30335
H     3.35181   5.71877   4.67792
H     3.83498   6.14817   3.01779
H     5.49632   4.98448   5.24856
H     6.05994   5.52187   3.65588
H     6.47952   3.89553   4.25342
H     4.48978   2.08875   4.37342
H     4.07705   3.29045   5.58271
H     2.28708   1.75015   5.24929
H     1.76511   3.38814   4.89780
H     2.44531   1.39251   2.65769
H     0.88311   1.47167   3.45674
H     1.00727   4.07662   2.85248
H     0.33874   2.88575   1.76280
