26
Generated by autodE on: 2022-06-05. E = -949.731840 Ha
C     1.47881  -2.97972  -0.56096
C     1.68358  -1.46152  -0.72163
C     3.18445  -1.13543  -0.77039
C     0.99651  -0.74647   0.35274
C     0.18249  -0.11307   0.99447
C    -1.02780   0.68324   1.07726
F    -1.73105   0.47105   2.23772
Cl   -0.56995   2.47004   1.08980
C    -1.92835   0.38568  -0.12247
C    -1.25307   0.41484  -1.50577
C    -0.56053  -0.87822  -2.02338
C     0.98195  -0.93668  -2.01877
H     1.92486  -3.33622   0.37978
H     0.41135  -3.24461  -0.55674
H     1.96563  -3.50554  -1.39687
H     3.35214  -0.05009  -0.83996
H     3.69714  -1.51065   0.12844
H     3.63924  -1.61373  -1.65175
H    -2.35448  -0.61291   0.07079
H    -2.75822   1.10783  -0.08422
H    -2.05391   0.66210  -2.21868
H    -0.55172   1.26486  -1.54824
H    -0.86474  -0.99867  -3.07457
H    -0.97519  -1.75700  -1.50159
H     1.37745   0.06880  -2.23782
H     1.32287  -1.59292  -2.83664
