54
Generated by autodE on: 2022-10-22. E = -1574.932375 Ha
C     4.46038   5.03649   8.51859
N     3.91443   6.37870   8.56330
C     4.59730   7.38750   9.10323
O     5.69642   7.25858   9.64600
C     4.00380   8.82640   8.97587
C     2.45878   8.95622   8.76460
C     1.90077  10.34056   8.90236
O     1.74540   7.99315   8.56594
O     4.28740   9.49578  10.20991
C     5.21673  10.55193  10.02765
C     4.56100  11.82559  10.41238
N     4.00134  12.80182  10.68857
C     6.44379  10.26437  10.93410
O     7.39757   9.62336  10.56463
O     6.26781  10.75732  12.14597
C     7.30431  10.49892  13.11413
C     5.55561  10.52901   8.54436
C     4.81754   9.59099   7.93836
C     4.78591   9.16406   6.47626
O     3.52533   8.54243   6.34924
C     3.23452   7.87378   5.13154
O     4.88762  10.25708   5.59546
C     3.82025  11.19917   5.62952
C     5.94417   8.20733   6.13842
C     7.32589   8.54813   6.70219
C     7.88983   9.94434   6.36534
C     7.91681  10.93302   7.53271
C     6.59694  11.49952   8.01801
F     6.89349  12.34905   9.07820
F     6.05145  12.31625   7.06501
H     3.77793   4.39593   7.94702
H     5.44689   5.03646   8.02914
H     4.58272   4.61517   9.52936
H     2.97912   6.58047   8.21427
H     0.88212  10.36092   8.49532
H     2.53044  11.08798   8.40118
H     1.86703  10.60190   9.97205
H     8.25715  10.91678  12.76119
H     7.40607   9.41633  13.27245
H     6.98215  10.99550  14.03554
H     2.15244   7.68379   5.13554
H     3.76407   6.91017   5.05944
H     3.48727   8.49501   4.25784
H     4.09126  11.99864   4.92800
H     2.87057  10.74299   5.31116
H     3.69274  11.63720   6.63023
H     5.98852   8.16029   5.03970
H     5.65762   7.20749   6.49505
H     8.01126   7.78289   6.30685
H     7.32061   8.40117   7.79307
H     7.35587  10.38593   5.51198
H     8.93694   9.83532   6.04596
H     8.51445  11.81838   7.26288
H     8.39425  10.46784   8.40662
