28
Generated by autodE on: 2022-10-22. E = -739.872630 Ha
C    -1.19682   2.98183  -0.31020
O    -1.42585   2.04815  -1.35293
C    -0.98845   0.72356  -1.14064
O    -0.91686   0.10796  -2.39573
C     0.04313   0.65123  -3.29544
C     0.30630   0.61703  -0.41775
C     1.12680   0.14589   0.33967
C     1.57751  -0.76406   1.39532
F     1.55297  -0.10462   2.60302
F     2.87682  -1.15940   1.21992
C     0.66335  -1.98180   1.44845
C    -0.84523  -1.67214   1.48105
C    -1.58449  -1.49641   0.12488
C    -2.00674  -0.07606  -0.29853
H    -1.66206   2.66808   0.64002
H    -1.65205   3.92917  -0.62966
H    -0.11807   3.14307  -0.13955
H    -0.17763   1.70297  -3.53375
H    -0.00775   0.05019  -4.21288
H     1.06309   0.58429  -2.87796
H     0.91136  -2.60940   0.57855
H     0.96163  -2.53556   2.35314
H    -1.31383  -2.51926   2.00313
H    -1.02199  -0.79618   2.12768
H    -1.00055  -1.95864  -0.68799
H    -2.51320  -2.08312   0.18645
H    -2.90923  -0.12195  -0.92797
H    -2.25687   0.52493   0.58868
