54
Generated by autodE on: 2022-10-22. E = -1574.803484 Ha. Imaginary frequency = -132.9 cm-1
C     4.58610   5.52713   8.89272
N     4.11005   6.87468   8.65467
C     3.69726   7.65551   9.64844
O     3.61611   7.32954  10.83702
C     3.17930   9.02351   9.27202
C     1.91823   9.15353   8.48194
C     1.35102  10.53391   8.32512
O     1.40364   8.15228   8.00654
O     3.41412  10.05734  10.02393
C     4.45947  10.46978  10.71539
C     4.24384  11.73564  11.32383
N     4.04759  12.77242  11.81657
C     5.66934   9.68182  11.02784
O     6.02613   8.66963  10.45787
O     6.36399  10.28699  11.99208
C     7.67915   9.77456  12.25668
C     5.54578  10.89168   8.38215
C     4.99202  10.08529   7.64318
C     4.93965   9.38397   6.32772
O     3.81069   8.53221   6.32758
C     3.53973   7.81496   5.12731
O     4.84268  10.34267   5.29919
C     3.74226  11.24590   5.37482
C     6.26506   8.61296   6.09298
C     7.49331   9.07784   6.88657
C     7.91052  10.56649   6.76145
C     7.97760  11.31542   8.10236
C     6.64018  11.85922   8.58830
F     6.75948  12.26218   9.89298
F     6.31879  13.00067   7.88404
H     3.77388   4.86679   9.23749
H     5.37651   5.52659   9.65921
H     4.99547   5.12727   7.95716
H     4.08953   7.26827   7.71008
H     0.48153  10.49222   7.65769
H     1.04641  10.92534   9.30926
H     2.11095  11.22036   7.92382
H     8.09395  10.41058  13.04640
H     7.62273   8.73063  12.59533
H     8.29795   9.83743  11.34962
H     2.56762   7.32815   5.28137
H     4.30259   7.04479   4.93050
H     3.47524   8.49366   4.26380
H     2.79218  10.71321   5.53188
H     3.70665  11.77374   4.41260
H     3.88977  11.98057   6.18303
H     6.45705   8.65995   5.01050
H     6.07930   7.55959   6.34897
H     8.33121   8.44133   6.56198
H     7.33275   8.82986   7.94669
H     8.90815  10.62497   6.30265
H     7.23681  11.10721   6.07834
H     8.64738  12.18745   8.04266
H     8.36241  10.65306   8.89313
