56
Generated by autodE on: 2022-06-04. E = -1377.575404 Ha
C     6.37734   3.12766   3.49551
C     6.48174   1.62690   3.41098
O     7.37236   1.08204   2.78937
C     5.44835   0.80985   4.24195
C     5.68817  -0.69726   4.00641
F     6.88103  -1.10271   4.47144
F     4.75447  -1.43706   4.64301
F     5.62943  -1.05302   2.71122
C     5.85740   1.12179   5.71877
C     5.09504   2.24685   6.42299
C     4.05976   1.66085   7.37681
C     3.13585   0.63041   6.73094
C     2.16948   1.12155   5.62456
C     1.08460   0.02246   5.50982
C     1.48384   2.40939   6.14229
C     2.80439   1.31466   4.23469
C     4.04829   1.15657   3.71453
C     3.99586   1.30495   2.20029
N     2.78410   2.05483   1.97688
C     2.30164   2.08168   0.60959
C     1.85079   1.60738   3.00865
C     1.28927   0.28810   2.57898
N     0.97233  -0.73282   2.12452
C     0.74327   2.64203   3.18704
C     1.11454   3.98009   3.37830
C     0.14255   4.96328   3.55623
C    -1.21553   4.62242   3.53694
C    -1.59061   3.29415   3.32584
C    -0.61385   2.30870   3.14568
H     5.33826   3.47695   3.54728
H     6.89441   3.57195   2.63509
H     6.88649   3.46172   4.41408
H     5.76794   0.20485   6.31574
H     6.93544   1.33761   5.70602
H     5.80551   2.86951   6.98792
H     4.61218   2.91519   5.69606
H     3.47271   2.46612   7.84348
H     4.59387   1.15690   8.20118
H     2.49395   0.22493   7.52847
H     3.71067  -0.22737   6.35710
H     0.62873  -0.13093   6.49954
H     0.27335   0.29479   4.82375
H     1.51848  -0.93293   5.17851
H     1.23697   2.27123   7.20620
H     0.54807   2.62407   5.61765
H     2.13472   3.29006   6.05459
H     4.85753   1.82393   1.75505
H     3.96080   0.30003   1.72839
H     1.39566   2.70073   0.54161
H     2.07039   1.07502   0.20670
H     3.07380   2.53247  -0.03093
H     2.17165   4.24402   3.40562
H     0.44425   6.00129   3.71467
H    -1.97725   5.39273   3.67827
H    -2.64731   3.01900   3.29544
H    -0.91927   1.27444   2.97708
