34
Generated by autodE on: 2022-06-04. E = -880.730041 Ha
C    -2.49602  -0.26891  -1.78525
C    -1.08139   0.04367  -2.16636
O    -0.72735   0.21738  -3.31525
C    -0.04113   0.08850  -1.01428
C     1.02134   1.15869  -1.32993
F     1.85775   1.35131  -0.29240
F     1.78416   0.84481  -2.38496
F     0.44297   2.34702  -1.58763
C    -0.62134   0.35390   0.30059
C    -0.82365   0.19791   1.48556
C    -0.80551  -0.38625   2.83097
C    -0.59236   0.67383   3.92230
C    -2.12055  -1.14571   3.08789
C     0.40787  -1.37203   2.80171
C     0.55618  -2.27182   1.55659
C     1.36154  -1.71648   0.34715
C     0.59369  -1.34861  -0.93916
H    -3.08574  -0.48411  -2.68529
H    -2.92035   0.60398  -1.26190
H    -2.53678  -1.11241  -1.07991
H    -1.44780   1.36502   3.97240
H     0.31826   1.26153   3.73047
H    -0.48748   0.18417   4.90316
H    -2.98168  -0.46130   3.04851
H    -2.09162  -1.60910   4.08651
H    -2.27925  -1.93815   2.34142
H     0.31998  -2.00482   3.70067
H     1.33139  -0.78217   2.92458
H     1.07519  -3.18204   1.89542
H    -0.43594  -2.61532   1.21856
H     2.06800  -2.50217   0.03672
H     1.98843  -0.87069   0.66761
H    -0.22775  -2.06835  -1.07967
H     1.25030  -1.45033  -1.81534
