45
Generated by autodE on: 2022-10-21. E = -1122.218301 Ha
C     3.97980  -1.14519  -1.15225
N     2.90978  -0.55899  -0.36730
C     2.02793   0.28154  -0.90675
O     2.06394   0.68856  -2.06687
C     0.91493   0.80648   0.05782
C     1.17976   2.25169   0.12448
N     1.43139   3.38206   0.16392
N     1.02425   0.21460   1.40852
C     0.69224   1.08196   2.55190
N     0.16714  -0.90455   1.34815
C     0.67613  -2.09423   1.62869
N     1.11473  -3.14156   1.90476
C    -1.05829  -0.66060   0.56370
O    -2.09563  -0.22992   1.38685
C    -2.53241  -1.16748   2.36232
C    -1.38335  -1.88425  -0.32779
C    -2.68037  -1.57338  -1.09116
C    -2.22092  -0.49790  -2.11385
C    -0.70908  -0.31368  -1.81009
C    -0.32313  -1.75287  -1.43142
C    -0.58134   0.45936  -0.46138
C    -1.33393   1.80946  -0.51806
C    -1.16006   2.60236  -1.79385
O    -1.96642   2.26214   0.41418
H     4.50195  -1.88795  -0.53774
H     3.57273  -1.63992  -2.04695
H     4.69991  -0.37880  -1.48006
H     2.81996  -0.76489   0.62391
H    -0.28970   1.56893   2.45019
H     0.69872   0.45189   3.44998
H     1.47509   1.84267   2.66180
H    -3.32286  -0.67059   2.93998
H    -1.71252  -1.44487   3.04562
H    -2.94327  -2.08069   1.90217
H    -1.39593  -2.82634   0.23374
H    -3.47601  -1.21387  -0.42678
H    -3.04161  -2.48193  -1.59209
H    -2.32865  -0.85436  -3.14789
H    -2.80511   0.42693  -2.03223
H    -0.14369   0.14020  -2.62514
H    -0.49902  -2.45567  -2.25787
H     0.71072  -1.88814  -1.09077
H    -0.18104   2.43376  -2.26071
H    -1.30217   3.66724  -1.56974
H    -1.92737   2.29237  -2.52008
