19
Generated by autodE on: 2022-10-26. E = -582.023754 Ha
C     1.52182  -1.54877  -2.68892
N     0.89917  -1.01378  -1.49428
C     0.46597   0.25089  -1.45635
O     0.56002   1.04136  -2.40440
C    -0.17849   0.76185  -0.19717
C    -0.59284   2.12065  -0.27984
N    -0.92143   3.23310  -0.37226
N    -0.38675   0.09002   0.93663
C    -1.04590   0.73084   2.09703
N    -0.00320  -1.16529   1.04026
C    -0.21961  -1.80033   2.17485
N    -0.34597  -2.48386   3.11856
H     0.83076  -1.51341  -3.54587
H     1.80535  -2.59091  -2.50099
H     2.42216  -0.97405  -2.95719
H     0.77374  -1.58430  -0.65854
H    -1.31956   1.75972   1.85741
H    -1.94137   0.14399   2.33867
H    -0.34006   0.70914   2.93778
