19
Generated by autodE on: 2022-10-21. E = -582.015413 Ha
C     3.78301   0.02191   0.57687
N     2.36940   0.34888   0.56718
C     1.46093  -0.51033   0.07849
O     1.74608  -1.61978  -0.37226
C     0.04063   0.00192   0.07611
C    -0.15300   1.40311  -0.02865
N    -0.18713   2.56771  -0.05732
N    -0.99970  -0.83354   0.15512
C    -0.80216  -2.25614   0.52487
N    -2.27168  -0.56612  -0.03723
C    -2.66731   0.56878  -0.57934
N    -3.20972   1.47785  -1.08529
H     4.10341  -0.32412  -0.41665
H     4.00658  -0.77425   1.30540
H     4.35089   0.92027   0.84587
H     2.06616   1.22061   0.99085
H     0.00174  -2.34813   1.25891
H    -0.55572  -2.82199  -0.38060
H    -1.75681  -2.59324   0.93767
