26
Generated by autodE on: 2022-10-21. E = -540.169803 Ha
C     0.67713   3.04665   0.39489
O     1.02520   1.68171   0.13540
C     0.06076   0.80048  -0.11721
C     0.24081  -0.53664  -0.37204
C     1.45473  -1.32466  -0.38612
C     2.79074  -0.62039  -0.31815
O     1.40457  -2.56279  -0.45134
C    -1.15962  -1.13973  -0.41057
C    -1.69550  -1.12977   1.05292
C    -1.85730   0.39062   1.34549
C    -1.42872   1.06047  -0.00561
C    -1.95956   0.02764  -1.02070
H     1.62348   3.56928   0.57978
H     0.03406   3.12550   1.28374
H     0.17345   3.49485  -0.47448
H     2.90503  -0.12288   0.65854
H     3.59746  -1.35390  -0.45131
H     2.86596   0.16735  -1.08291
H    -1.21903  -2.11261  -0.91284
H    -0.99622  -1.62728   1.73977
H    -2.66254  -1.65146   1.11737
H    -2.90260   0.65377   1.56335
H    -1.24022   0.74044   2.18526
H    -1.74935   2.10129  -0.11842
H    -1.67040   0.25606  -2.05697
H    -3.05075  -0.10273  -0.95680
