45
Generated by autodE on: 2022-06-18. E = -735.458395 Ha
C     3.78594   0.26033   1.18170
N     2.46539  -0.17658   0.78878
C     1.99206  -0.03634  -0.45776
O     2.69570   0.34318  -1.40713
C     0.48872  -0.35301  -0.64513
C     0.38179  -1.16524  -1.95164
N    -0.03897  -1.05307   0.52142
C     0.29178  -2.45509   0.67225
C    -1.39867  -0.61164   0.92520
C    -1.33372  -0.21333   2.41275
C    -2.43957  -1.74204   0.82331
C    -1.72851   0.59557  -0.05303
C    -2.69788   0.18277  -1.18093
C    -2.44137   1.75138   0.66854
C    -0.31519   1.01356  -0.63532
C     0.37663   2.05076   0.27625
C    -0.38180   1.65757  -2.02518
H     3.83814   1.35751   1.29874
H     4.05746  -0.20524   2.13842
H     4.52408  -0.03384   0.42200
H     1.75654  -0.40959   1.48287
H     0.97962  -2.08476  -1.86860
H    -0.65268  -1.45724  -2.16639
H     0.77468  -0.60213  -2.80568
H     1.36814  -2.60679   0.50501
H     0.07859  -2.78547   1.70064
H    -0.24763  -3.13472  -0.01524
H    -2.32300   0.05330   2.81439
H    -0.96217  -1.07295   2.99282
H    -0.64919   0.62677   2.58705
H    -3.44378  -1.34901   1.03844
H    -2.46211  -2.21355  -0.16738
H    -2.23381  -2.52625   1.56614
H    -2.33944  -0.65243  -1.79314
H    -2.88130   1.03395  -1.85066
H    -3.67238  -0.10541  -0.76436
H    -3.42451   1.41435   1.03304
H    -2.62043   2.58246  -0.03179
H    -1.89038   2.15094   1.52638
H     1.37160   2.30688  -0.11526
H    -0.20295   2.98331   0.29477
H     0.49752   1.70597   1.30995
H    -0.97007   2.58763  -1.98366
H     0.63261   1.92011  -2.36164
H    -0.82859   1.01188  -2.78944
