45
Generated by autodE on: 2022-06-18. E = -735.367858 Ha. Imaginary frequency = -335.4 cm-1
C     3.28282  -0.02411   2.17777
N     2.37171  -0.67251   1.25790
C     2.02120  -0.08735   0.07209
O     2.76725   0.78736  -0.42644
C     0.85567  -0.62028  -0.64141
C     1.20288  -1.03556  -2.04972
N    -0.12818  -1.35325   0.03489
C    -0.57511  -2.60634  -0.59504
C    -0.92227  -0.80779   1.01055
C    -0.33202   0.10783   2.04453
C    -2.06928  -1.62707   1.53534
C    -1.87695   0.91147  -0.30452
C    -2.92336   0.10780  -1.04948
C    -2.49351   1.75561   0.79193
C    -0.75640   1.38069  -1.00624
C     0.04095   2.56021  -0.50327
C    -0.70813   1.25888  -2.50948
H     2.86127   0.90693   2.59983
H     3.50850  -0.70831   3.00635
H     4.22431   0.23322   1.67223
H     1.72950  -1.35038   1.64698
H     1.83951  -1.94225  -2.08221
H     0.32550  -1.22373  -2.68011
H     1.78230  -0.22689  -2.51294
H     0.27422  -3.07924  -1.09723
H    -0.93141  -3.30383   0.17026
H    -1.37629  -2.44776  -1.33137
H    -1.13419   0.59298   2.61086
H     0.26055  -0.47379   2.77461
H     0.32262   0.87979   1.62935
H    -2.72642  -0.97784   2.13046
H    -2.67600  -2.09178   0.74903
H    -1.71722  -2.43077   2.21016
H    -2.49399  -0.68501  -1.67563
H    -3.51509   0.76184  -1.71989
H    -3.63824  -0.36104  -0.35716
H    -3.08296   1.15315   1.50157
H    -3.19867   2.47868   0.33612
H    -1.76685   2.34175   1.36564
H     1.05496   2.55995  -0.92633
H    -0.44201   3.50900  -0.81281
H     0.14045   2.59341   0.58886
H    -1.35460   2.04288  -2.95472
H     0.30345   1.42117  -2.90858
H    -1.07446   0.29923  -2.89208
