34
Generated by autodE on: 2022-10-20. E = -878.429960 Ha
C     1.55088   2.29323  -0.21886
O     0.96634   1.28365  -1.05498
C     1.29793   0.02540  -0.85736
C     2.19341  -0.61672  -0.04970
C     3.13694  -0.12561   0.86995
N     3.94160   0.22556   1.64043
C     1.85425  -2.10748  -0.23739
O     1.42207  -2.12984  -1.60865
C     0.46991  -1.07374  -1.50054
C    -0.48174  -1.61493  -0.36576
C    -1.00429  -0.58673   0.62046
C    -1.90202   0.51077   0.20875
C    -2.13298   1.60435   1.06423
C    -2.95004   2.65871   0.66171
C    -3.55335   2.63915  -0.60245
C    -3.33214   1.55788  -1.45943
C    -2.50909   0.50228  -1.05907
N    -0.56343  -0.71262   1.82045
C     0.32648  -1.86949   1.91560
C     0.51738  -2.42988   0.49727
H     1.08238   3.23991  -0.51071
H     2.63689   2.34433  -0.38399
H     1.33529   2.07584   0.83730
H     2.67758  -2.80811  -0.06411
H    -0.00123  -0.83071  -2.45770
H    -1.28456  -2.20999  -0.82139
H    -1.65556   1.61742   2.04448
H    -3.11606   3.50403   1.33369
H    -4.19167   3.46776  -0.91811
H    -3.79926   1.53582  -2.44665
H    -2.34447  -0.33477  -1.73937
H    -0.13091  -2.61344   2.58711
H     1.27234  -1.56932   2.39462
H     0.33749  -3.51017   0.44019
