16
Generated by autodE on: 2022-10-20. E = -363.899887 Ha
C     3.36457  -1.09056  -0.27918
N     2.41495  -0.30164   0.04323
C     1.55911   0.51426   0.38613
C     0.11619   0.32775   0.17538
C    -0.76464   1.34429   0.58528
C    -2.14175   1.20466   0.40134
C    -2.65132   0.04566  -0.19233
C    -1.78364  -0.97523  -0.60372
C    -0.40921  -0.83660  -0.42247
H     3.84662  -0.99265  -1.25823
H     3.70878  -1.84950   0.43216
H    -0.35195   2.24329   1.04833
H    -2.81903   1.99954   0.72161
H    -3.72880  -0.06531  -0.33615
H    -2.18518  -1.87962  -1.06698
H     0.27128  -1.63003  -0.74251
