34
Generated by autodE on: 2022-10-20. E = -878.292111 Ha. Imaginary frequency = -270.0 cm-1
C     1.27846   2.10850  -0.33344
O     0.86088   1.04216  -1.19540
C     1.29187  -0.17835  -0.94089
C     2.18737  -0.71698  -0.06228
C     2.95220  -0.14775   0.96387
N     3.61230   0.27388   1.83314
C     2.08136  -2.24493  -0.34251
O     1.88109  -2.20731  -1.77844
C     0.71057  -1.36697  -1.71341
C    -0.18116  -2.15346  -0.72663
C    -1.06038  -0.32303   0.66012
C    -1.96447   0.76134   0.32945
C    -2.28725   1.76731   1.26382
C    -3.11883   2.82218   0.89378
C    -3.64051   2.88215  -0.40500
C    -3.32539   1.88791  -1.33730
C    -2.48457   0.83537  -0.97543
N    -0.52381  -0.70589   1.68584
C     0.25276  -1.51873   2.33973
C     0.70286  -2.75020   0.12765
H     0.76548   3.00957  -0.68851
H     2.36813   2.24588  -0.39761
H     0.98497   1.89437   0.70455
H     2.95951  -2.83609  -0.06306
H     0.29453  -1.13321  -2.69907
H    -1.21681  -2.41209  -0.93292
H    -1.87516   1.71306   2.27346
H    -3.36373   3.60225   1.61817
H    -4.29268   3.71066  -0.69120
H    -3.72984   1.93916  -2.35045
H    -2.21607   0.06279  -1.69821
H    -0.20654  -2.35199   2.88078
H     1.23697  -1.16475   2.65824
H     0.55547  -3.61401   0.76959
