35
Generated by autodE on: 2022-07-27. E = -767.258937 Ha
C     0.77225  -0.64820   1.62737
C     0.03730   0.47789   0.99766
C     0.56252   1.84663   1.13941
C     0.71157   2.67809   0.01066
C     1.24902   3.95819   0.14084
C     1.64187   4.43302   1.39653
C     1.50481   3.61329   2.52209
C     0.98119   2.32702   2.39575
N    -1.04567   0.23510   0.26426
C    -2.01516   1.29698  -0.05734
C    -1.32994  -1.04845  -0.24552
C    -2.65905  -1.48987  -0.16243
N    -3.76370  -1.88672  -0.10669
C    -0.33681  -1.85524  -0.94292
C     0.88153  -1.31872  -1.42675
C     1.77938  -2.10419  -2.15120
C     1.50674  -3.45010  -2.41585
C     0.30777  -3.99813  -1.94201
C    -0.59385  -3.22178  -1.21780
H     1.27605  -0.30395   2.54007
H     1.55604  -1.04236   0.95447
H     0.09059  -1.48313   1.84989
H     0.42523   2.30921  -0.97542
H     1.36767   4.58606  -0.74509
H     2.05938   5.43741   1.49717
H     1.80863   3.97786   3.50592
H     0.87296   1.69836   3.28141
H    -3.02245   0.88616   0.09012
H    -1.91045   1.60438  -1.10601
H    -1.88081   2.15362   0.60945
H     1.12124  -0.26709  -1.25976
H     2.70550  -1.65169  -2.51537
H     2.21550  -4.06205  -2.97801
H     0.07329  -5.04864  -2.13351
H    -1.51933  -3.67427  -0.85464
