20
Generated by autodE on: 2022-06-15. E = -8132.181219 Ha
F    -1.49649  -2.95951  -1.33881
C    -1.22398  -1.62510  -1.43047
Br   -0.53148  -1.32400  -3.29647
C    -0.20250  -1.18507  -0.50202
C     0.30731  -0.39242   0.26154
C     0.43880   0.78892   1.06544
Br    0.02363   0.31904   2.96030
Br    2.28731   1.51118   1.00046
C    -0.55798   1.84116   0.54229
C    -1.99611   1.33501   0.30107
C    -2.33815   0.71636  -1.08355
C    -2.49815  -0.81120  -1.19475
H    -0.55962   2.67642   1.25737
H    -0.14310   2.22546  -0.40302
H    -2.29517   0.65021   1.11140
H    -2.63440   2.22270   0.42041
H    -1.62258   1.07021  -1.84416
H    -3.31030   1.13245  -1.38506
H    -2.92655  -1.21583  -0.26197
H    -3.19561  -1.06521  -2.00684
