45
Generated by autodE on: 2022-06-21. E = -1242.872506 Ha
C    -1.14012  -2.78439   2.13809
C    -2.04501  -2.06222   1.19613
O    -2.98611  -2.55730   0.61825
C    -1.72666  -0.53500   0.95787
C    -2.61078   0.18349   1.89220
N    -3.26031   0.63327   2.74141
O    -0.38948  -0.22898   1.30169
C     0.47186  -0.18233   0.13688
C     1.64136  -1.12541   0.39630
C     2.11359  -2.03716  -0.55373
C     3.19978  -2.86872  -0.25500
C     3.81757  -2.80069   0.99476
C     3.35123  -1.88611   1.94679
C     2.27589  -1.05050   1.64672
C     0.95747   1.25515  -0.05567
C     1.99584   1.51583  -0.96256
C     2.36398   2.82941  -1.25852
C     1.70784   3.90028  -0.64181
C     0.69164   3.64476   0.28076
C     0.31791   2.32824   0.57413
C    -0.47467  -0.62657  -1.03702
C    -0.11559  -0.07961  -2.40762
O     0.63787  -0.68089  -3.15822
C    -0.70192   1.21549  -2.80656
C    -1.66935   1.82084  -2.09268
C    -2.25375   1.22870  -0.87139
O    -3.07790   1.84076  -0.21285
C    -1.86280  -0.20331  -0.53708
H    -0.98379  -2.19364   3.05315
H    -0.15198  -2.89836   1.66285
H    -1.55836  -3.77148   2.37130
H     1.65312  -2.09438  -1.53964
H     3.55928  -3.57404  -1.00789
H     4.66121  -3.45445   1.22807
H     3.82942  -1.82306   2.92710
H     1.91733  -0.33645   2.39012
H     2.51256   0.68817  -1.45055
H     3.16946   3.01658  -1.97226
H     1.99424   4.92827  -0.87498
H     0.17969   4.47226   0.77722
H    -0.48076   2.14239   1.29108
H    -0.44356  -1.72057  -1.10702
H    -0.30575   1.65608  -3.72437
H    -2.07987   2.78930  -2.38797
H    -2.65120  -0.83135  -0.98036
