33
Generated by autodE on: 2022-06-21. E = -861.174745 Ha
C     3.60278   1.24296   0.57066
C     3.39165  -0.13506  -0.01672
O     4.34931  -0.88295  -0.28037
C     2.04223  -0.55469  -0.25681
C     1.75356  -1.78842  -0.85837
N     1.57153  -2.82004  -1.38090
O     1.07013   0.37241   0.02850
C    -0.22081   0.31390   0.06653
C    -0.94519  -0.95973   0.05629
C    -2.03731  -1.15198  -0.81043
C    -2.73747  -2.35695  -0.78916
C    -2.37476  -3.36307   0.11260
C    -1.30146  -3.16900   0.98931
C    -0.57808  -1.97955   0.95652
C    -0.87946   1.60510   0.15904
C    -2.22469   1.69913   0.58004
C    -2.84004   2.94430   0.67983
C    -2.12957   4.10770   0.36473
C    -0.79356   4.02528  -0.05060
C    -0.16956   2.78757  -0.15507
H     4.67930   1.40706   0.70941
H     3.08532   1.34528   1.53711
H     3.19623   2.01862  -0.09816
H    -2.31799  -0.36377  -1.51061
H    -3.57167  -2.51052  -1.47674
H    -2.93108  -4.30285   0.13263
H    -1.02387  -3.95136   1.69847
H     0.26076  -1.82940   1.63858
H    -2.77645   0.79896   0.85035
H    -3.87787   3.00896   1.01261
H    -2.61690   5.08215   0.44245
H    -0.24168   4.93344  -0.30161
H     0.86472   2.71989  -0.49355
