12
Generated by autodE on: 2022-06-21. E = -381.636097 Ha
O     0.28243   2.65089  -0.05901
C     0.15252   1.43138  -0.03166
C    -1.19074   0.80248  -0.01954
C    -1.33289  -0.53410   0.00972
C    -0.15252  -1.43139   0.03143
O    -0.28244  -2.65089   0.05912
C     1.19074  -0.80248   0.01957
C     1.33289   0.53410  -0.00969
H    -2.04531   1.48296  -0.03601
H    -2.31141  -1.01982   0.01893
H     2.04531  -1.48296   0.03617
H     2.31141   1.01982  -0.01876
