45
Generated by autodE on: 2022-06-21. E = -1242.802137 Ha. Imaginary frequency = -312.6 cm-1
C    -3.02140  -2.04302   2.29392
C    -1.65930  -1.70635   1.74459
O    -0.79967  -2.55194   1.54856
C    -1.45900  -0.28274   1.37380
C    -2.39242   0.68262   1.86536
N    -3.16378   1.47446   2.23160
O    -0.26694   0.31168   1.15220
C     0.76785   0.06123   0.35268
C     1.59154  -1.15216   0.54944
C     2.23244  -1.80746  -0.51567
C     3.07794  -2.88770  -0.26473
C     3.31011  -3.31217   1.04834
C     2.68821  -2.65245   2.11226
C     1.82977  -1.58103   1.86707
C     1.37316   1.30041  -0.15405
C     2.65038   1.31403  -0.74992
C     3.17014   2.49453  -1.27968
C     2.43636   3.68182  -1.21169
C     1.17417   3.68539  -0.60429
C     0.64367   2.50946  -0.08500
C    -0.71705  -0.73989  -1.40304
C    -0.31276   0.32357  -2.31959
O     0.69912   0.25090  -3.02290
C    -1.17784   1.53014  -2.38477
C    -2.38167   1.57598  -1.78471
C    -2.90534   0.41692  -1.03275
O    -4.06605   0.38708  -0.63048
C    -1.97505  -0.71621  -0.79983
H    -3.13597  -1.61431   3.30282
H    -3.81412  -1.61391   1.66144
H    -3.12844  -3.13382   2.34262
H     2.05429  -1.48161  -1.54067
H     3.55860  -3.40057  -1.10057
H     3.97653  -4.15596   1.24104
H     2.86844  -2.97471   3.14021
H     1.34753  -1.06232   2.69646
H     3.24582   0.40418  -0.79399
H     4.15920   2.48626  -1.74218
H     2.84767   4.60510  -1.62572
H     0.59828   4.61109  -0.54212
H    -0.34347   2.51587   0.37463
H    -0.18002  -1.68348  -1.47434
H    -0.78955   2.36547  -2.97151
H    -3.03563   2.44851  -1.85208
H    -2.46521  -1.65264  -0.53451
