52
Generated by autodE on: 2022-06-22. E = -1151.619083 Ha
C     2.10332   3.33963   0.12524
C     1.55850   2.20872   0.59862
C     1.94404   1.64163   1.93705
C     0.51428   1.49709  -0.23530
C     0.70047  -0.03985  -0.41213
C     1.10631  -0.47429  -1.78757
C     1.83656  -1.56240  -2.09554
C     2.11886  -1.91994  -3.52982
C     2.39898  -2.52509  -1.08507
C    -0.69585  -0.56993   0.02849
C    -0.79216  -2.04850   0.21964
C    -1.29995  -2.87613  -0.78878
C    -1.27206  -4.26538  -0.63499
C    -0.73761  -4.83489   0.52379
C    -0.23160  -4.00867   1.53332
C    -0.25405  -2.62187   1.38101
O    -1.64026  -0.12735  -1.06017
C    -1.80050   1.18737  -0.87890
O    -2.43837   1.89569  -1.62623
C    -0.95457   1.54403   0.36247
C    -1.28876   2.82069   1.11565
O    -1.05602   2.92825   2.32379
N    -1.78150   3.81778   0.36874
C    -2.09434   5.11183   0.94315
N    -1.02871   0.29545   1.13242
C    -2.31278   0.04411   1.78899
H     2.85575   3.89073   0.69730
H     1.81493   3.74761  -0.84798
H     2.70208   2.27201   2.42373
H     1.06846   1.57508   2.59791
H     2.35648   0.62383   1.84336
H     0.48511   1.98970  -1.21576
H     1.40233  -0.42164   0.33652
H     0.71973   0.13691  -2.61037
H     3.20618  -1.95145  -3.71966
H     1.66150  -1.20824  -4.23276
H     1.73610  -2.93037  -3.75825
H     1.84805  -3.48124  -1.12670
H     3.45123  -2.75852  -1.31961
H     2.34510  -2.15816  -0.05225
H    -1.71045  -2.43459  -1.69636
H    -1.66845  -4.90409  -1.42760
H    -0.71490  -5.92075   0.64158
H     0.18810  -4.44662   2.44174
H     0.15745  -1.98105   2.16224
H    -2.05609   3.60552  -0.58912
H    -1.21952   5.52348   1.46810
H    -2.38082   5.79797   0.13711
H    -2.92412   5.04535   1.66573
H    -3.17486   0.07694   1.09716
H    -2.28925  -0.94447   2.26467
H    -2.46222   0.79789   2.57138
