23
Generated by autodE on: 2022-06-22. E = -351.521381 Ha
C     2.96244   1.85400  -1.44329
C     2.28833   0.82997  -0.87521
C     2.97675  -0.46601  -0.53083
C     0.86271   0.96763  -0.58409
C     0.07411   0.01791  -0.02106
C    -1.33730   0.20877   0.24428
C    -2.19472  -0.68670   0.79618
C    -1.81066  -2.07042   1.23787
C    -3.64028  -0.33592   1.00873
H     2.45948   2.79355  -1.69230
H     4.02908   1.77844  -1.67242
H     2.51041  -1.31576  -1.05663
H     2.89901  -0.68301   0.54754
H     4.04171  -0.43524  -0.80093
H     0.41032   1.92990  -0.85271
H     0.51716  -0.94440   0.24925
H    -1.74277   1.18812  -0.03740
H    -0.75338  -2.31170   1.06883
H    -2.42325  -2.82295   0.71056
H    -2.02544  -2.20131   2.31328
H    -3.91135  -0.42342   2.07631
H    -3.87465   0.68489   0.67276
H    -4.29769  -1.04113   0.46895
