29
Generated by autodE on: 2022-06-22. E = -800.083027 Ha
C    -5.20940   0.14184  -0.50215
N    -3.86983  -0.16381  -0.04901
C    -2.79276   0.50453  -0.52928
O    -2.91089   1.45045  -1.33051
C    -1.50839   0.01907  -0.03622
C    -1.27739  -1.12429   0.74755
O    -1.98165  -1.96951   1.29039
O     0.14346  -1.21170   0.84905
C     0.69569  -0.19487   0.18038
C     2.14436  -0.06227   0.14810
C     2.88167  -0.51607   1.26070
C     4.27147  -0.42416   1.26137
C     4.94192   0.11029   0.15537
C     4.21642   0.54337  -0.95883
C     2.82465   0.45653  -0.97122
N    -0.25097   0.56623  -0.34726
C    -0.04155   1.84689  -1.02402
H    -5.92165  -0.48306   0.05100
H    -5.33589  -0.05404  -1.58066
H    -5.46013   1.19953  -0.32456
H    -3.70800  -0.96475   0.55724
H     2.35617  -0.92782   2.12343
H     4.83514  -0.76856   2.13096
H     6.03183   0.18178   0.15898
H     4.73752   0.94175  -1.83182
H     2.27515   0.75956  -1.86220
H    -0.82266   2.53880  -0.69806
H    -0.10764   1.71893  -2.11191
H     0.94309   2.23771  -0.74979
