26
Generated by autodE on: 2022-06-25. E = -689.460878 Ha
C     2.28863  -2.30959  -0.98267
O     0.96485  -2.18727  -0.45187
C     0.38354  -1.00956  -0.22720
C     0.86330   0.24645  -0.45023
O     2.08359   0.49037  -1.01319
C     3.09283   0.97823  -0.12312
C     0.02766   1.42898  -0.15199
O     0.45891   2.55322  -0.40226
C    -1.33245   1.24751   0.43944
C    -2.12191   2.47853   0.75425
C    -1.82198   0.00250   0.66200
C    -3.18462  -0.22768   1.23884
C    -1.00213  -1.19169   0.33407
O    -1.41927  -2.32696   0.51735
H     2.47287  -3.38923  -1.05110
H     3.02768  -1.85338  -0.30891
H     2.35740  -1.85591  -1.97980
H     4.00271   1.11119  -0.72333
H     2.80430   1.94266   0.32069
H     3.28830   0.24821   0.67993
H    -2.39268   2.50415   1.82272
H    -3.06971   2.48786   0.19065
H    -1.55665   3.38525   0.50920
H    -3.95925   0.23735   0.60720
H    -3.26943   0.23789   2.23472
H    -3.40040  -1.29856   1.33134
