24
Generated by autodE on: 2022-06-25. E = -681.317555 Ha
C    -2.50178  -1.52335   0.45321
N    -1.37146  -0.62031   0.14346
C    -1.57796   0.23623  -0.92143
C    -0.81679   1.40626  -1.11711
N    -0.24088   2.40187  -1.31908
C    -2.65022   0.00736  -1.80919
N    -3.52654  -0.14716  -2.56632
C    -0.25572  -0.66983   0.87709
C    -0.28879  -1.35320   2.12570
N    -0.22755  -1.88303   3.16193
C     1.04066  -0.08671   0.48925
C     1.55824  -0.29113  -0.80494
C     2.82254   0.19317  -1.13167
C     3.57926   0.88915  -0.18217
C     3.07226   1.08843   1.10586
C     1.81343   0.59521   1.44635
H    -3.40126  -0.92297   0.63306
H    -2.26496  -2.12655   1.33273
H    -2.65860  -2.18851  -0.40603
H     0.97546  -0.83573  -1.54984
H     3.22058   0.02524  -2.13455
H     4.56709   1.27301  -0.44642
H     3.66071   1.62847   1.85050
H     1.41983   0.74443   2.45380
