24
Generated by autodE on: 2022-07-27. E = -681.316628 Ha
C     0.46328  -0.23845   2.07335
N    -0.19111  -0.67430   0.82203
C    -1.15884  -1.65670   0.95060
C    -1.22043  -2.45469   2.11286
N    -1.31509  -3.13435   3.05828
C    -2.16885  -1.83055  -0.01617
N    -3.04012  -1.97477  -0.78132
C     0.16753  -0.13944  -0.35267
C    -0.10714  -0.86542  -1.54589
N    -0.24399  -1.43989  -2.55029
C     0.83736   1.16014  -0.49910
C     1.80931   1.32628  -1.50632
C     2.43198   2.55981  -1.68346
C     2.08601   3.64532  -0.87121
C     1.10681   3.49378   0.11656
C     0.48037   2.26324   0.30279
H    -0.23724   0.35660   2.67223
H     0.74612  -1.13945   2.63184
H     1.36294   0.33348   1.83857
H     2.08268   0.48120  -2.14119
H     3.19176   2.67475  -2.45926
H     2.57303   4.61244  -1.01421
H     0.81958   4.34348   0.73945
H    -0.30308   2.16526   1.05469
