50
Generated by autodE on: 2022-06-25. E = -1370.750518 Ha. Imaginary frequency = -214.6 cm-1
C    -2.75724  -3.06395   0.48870
O    -2.03053  -2.11920  -0.31529
C    -1.46634  -1.00621   0.16310
C    -2.03605  -0.30582   1.35756
O    -2.85334  -0.84073   2.09341
C    -1.56176   1.07152   1.64182
C    -1.73083   1.57690   3.03883
C    -1.19599   1.87551   0.60803
C    -1.02687   3.35379   0.77728
C    -1.07455   1.32275  -0.76761
O    -1.05601   2.06890  -1.73843
C    -0.90189  -0.15630  -0.92020
O    -1.10863  -0.73531  -2.12612
C    -0.79923  -0.11360  -3.38061
C     1.19844  -0.22373  -0.53175
C     1.43822  -1.28909  -1.48847
N     1.62805  -2.13321  -2.26302
C     1.86980   1.05932  -0.89789
C     2.48780   1.21323  -2.15340
C     3.05247   2.43235  -2.52626
C     3.01752   3.52300  -1.65250
C     2.41296   3.38085  -0.40072
C     1.84462   2.16434  -0.02678
N     1.21281  -0.62631   0.81375
C     2.20273  -0.16764   1.80401
C     0.30002  -1.61813   1.20823
C     0.04100  -1.67757   2.62421
N    -0.22723  -1.71390   3.75470
C     0.40379  -2.94828   0.64596
N     0.43784  -4.02841   0.21941
H    -2.26808  -3.24482   1.45349
H    -3.78318  -2.71311   0.65650
H    -2.76708  -3.98802  -0.10269
H    -1.87869   0.75102   3.74485
H    -0.84949   2.16208   3.34214
H    -2.60226   2.25068   3.10837
H    -0.35852   3.58285   1.62037
H    -0.63280   3.81737  -0.13355
H    -2.00180   3.81512   1.01070
H     0.12970   0.46425  -3.34323
H    -1.62252   0.53876  -3.70117
H    -0.68693  -0.94330  -4.09102
H     2.52686   0.37535  -2.85008
H     3.52452   2.52757  -3.50634
H     3.45939   4.47783  -1.94550
H     2.37498   4.22372   0.29240
H     1.37560   2.08455   0.94987
H     2.61107  -1.04151   2.32973
H     1.75690   0.52089   2.53631
H     3.02813   0.33305   1.29047
