51
Generated by autodE on: 2022-06-04. E = -1685.229971 Ha
C    -4.33819  -2.01498   7.60588
C    -3.50694  -1.55300   6.44821
O    -3.37952  -2.21991   5.43961
C    -2.86997  -0.12844   6.50237
C    -4.01146   0.65669   5.74035
C    -4.28136   0.30288   4.29976
O    -4.74395   1.40020   6.35865
C    -2.71302   0.37673   7.96358
C    -1.64524   1.43611   8.24380
C    -1.77831   2.79436   7.52382
C    -0.74414   3.08154   6.43371
C    -0.87826   2.36668   5.07870
C     0.17389   2.89636   4.10423
Cl   -2.50465   2.86892   4.33967
C    -0.80658   0.86133   5.22324
C    -1.54271  -0.12785   5.77869
C    -0.60512  -1.38189   5.65667
C    -0.75142  -2.62240   6.47921
C    -0.62354  -2.51345   7.87059
C    -0.73199  -3.65010   8.67557
C    -0.95624  -4.90085   8.09437
C    -1.06504  -5.01149   6.70403
C    -0.96317  -3.87770   5.89650
N     0.67323  -0.73329   5.81118
N     0.47241   0.24821   4.75651
C     0.00203  -0.60682   3.64995
O     0.11399  -0.37322   2.47879
O    -0.60390  -1.68116   4.18279
H    -4.91319  -2.89955   7.30493
H    -5.00895  -1.21786   7.95753
H    -3.67848  -2.28303   8.44584
H    -3.38020   0.00365   3.75235
H    -4.77241   1.15023   3.80753
H    -4.98259  -0.54707   4.29243
H    -3.69497   0.74733   8.28636
H    -2.47641  -0.48794   8.59562
H    -1.68524   1.61095   9.33062
H    -0.64589   1.01320   8.05406
H    -2.79253   2.92404   7.11707
H    -1.65801   3.59435   8.27042
H    -0.73856   4.16032   6.21338
H     0.26308   2.83313   6.81063
H     0.01373   3.97204   3.95189
H     0.11582   2.38292   3.13520
H     1.17865   2.74302   4.51895
H    -0.44051  -1.53876   8.32502
H    -0.63811  -3.55534   9.75954
H    -1.04279  -5.78998   8.72308
H    -1.23464  -5.98747   6.24380
H    -1.06362  -3.96360   4.81513
H     1.43574  -1.36233   5.53733
