51
Generated by autodE on: 2022-06-04. E = -1685.192386 Ha. Imaginary frequency = -442.7 cm-1
C    -3.09920  -1.75710   8.51766
C    -2.15039  -0.81140   7.84979
O    -1.07553  -0.53207   8.35291
C    -2.52532  -0.06620   6.54087
C    -3.54305  -0.69202   5.56452
C    -4.86173  -1.23035   6.04425
O    -3.29381  -0.66352   4.37080
C    -3.16045   1.28553   7.03854
C    -3.44124   2.29285   5.90956
C    -2.65172   3.60091   6.01385
C    -1.12645   3.49932   6.11614
C    -0.36475   2.63288   5.08476
C     1.10397   3.03655   5.03680
Cl   -1.05972   2.99011   3.37916
C    -0.59695   1.20259   5.34933
C    -1.26053   0.22707   5.79000
C    -0.24469  -1.44328   5.27738
C    -0.83462  -2.68285   5.81955
C    -0.37310  -3.22474   7.03131
C    -0.94866  -4.38722   7.53997
C    -1.98876  -5.01896   6.84950
C    -2.44084  -4.49036   5.63728
C    -1.86490  -3.32958   5.11897
N     0.99265  -0.97597   5.64016
N     1.32174   0.02551   4.80473
C     0.63954  -0.25907   3.63668
O     0.77168   0.21068   2.53018
O    -0.27627  -1.27929   3.90808
H    -2.65174  -2.10192   9.45792
H    -3.30033  -2.62017   7.86760
H    -4.05919  -1.26080   8.72085
H    -4.74535  -2.30762   6.24289
H    -5.22721  -0.75126   6.95935
H    -5.59363  -1.11550   5.23350
H    -4.07633   1.04924   7.59774
H    -2.45105   1.70398   7.76638
H    -4.51438   2.53853   5.90107
H    -3.23621   1.83618   4.93090
H    -2.90422   4.22261   5.14112
H    -2.99016   4.16193   6.90160
H    -0.71305   4.51697   6.04647
H    -0.82724   3.11219   7.10384
H     1.56636   2.82647   6.01370
H     1.18372   4.11274   4.83051
H     1.64436   2.47416   4.26792
H     0.42847  -2.73722   7.58711
H    -0.58545  -4.79962   8.48337
H    -2.44320  -5.92535   7.25547
H    -3.24532  -4.98390   5.08825
H    -2.21545  -2.92117   4.17280
H     1.24107  -0.85815   6.62209
