60
Generated by autodE on: 2022-06-15. E = -1996.626104 Ha
C    -7.82661  -4.29001   7.63609
N    -6.70010  -3.65474   6.97942
C    -5.50678  -4.25810   6.88234
O    -5.31159  -5.42773   7.22137
C    -4.37190  -3.36026   6.31290
C    -4.60467  -3.00450   4.84732
O    -4.41295  -2.12786   7.05250
C    -3.34819  -2.05876   7.99919
C    -2.77819  -0.64963   7.65618
C    -3.42796   0.56166   8.24558
O    -1.90923  -0.57941   6.81049
C    -4.00864  -2.23608   9.38889
O    -4.06174  -1.42165  10.28050
O    -4.57454  -3.43485   9.43897
C    -5.29877  -3.79378  10.62289
C    -2.42094  -3.22282   7.62506
C    -3.00862  -3.95027   6.65321
C    -2.43715  -5.14107   5.90725
C    -3.45519  -6.20521   5.51463
O    -4.20300  -6.15493   4.55845
O    -3.33954  -7.28483   6.29327
C    -4.25719  -8.35765   6.04505
C    -1.64753  -4.67584   4.64578
C    -0.15882  -4.44238   4.89730
C     0.18728  -3.50504   6.05800
C     0.01533  -4.15186   7.44866
C    -1.11631  -3.57177   8.35946
C    -1.44837  -4.64097   9.45409
F    -0.35348  -5.26906   9.90100
F    -2.04713  -4.08429  10.52634
F    -2.27421  -5.58503   8.98701
C    -0.46021  -2.36180   9.08868
F     0.19991  -1.56657   8.24230
F    -1.34241  -1.59011   9.75003
F     0.43267  -2.78255  10.00050
H    -8.74349  -3.73968   7.39015
H    -7.70326  -4.30211   8.73244
H    -7.93010  -5.32753   7.29044
H    -6.73783  -2.65385   6.81352
H    -3.80655  -2.32905   4.50993
H    -4.62099  -3.90463   4.22284
H    -5.56834  -2.48489   4.74840
H    -4.52184   0.44737   8.25648
H    -3.13321   1.44750   7.66828
H    -3.10642   0.67038   9.29200
H    -6.15303  -3.11718  10.76595
H    -4.63779  -3.74873  11.49963
H    -5.64445  -4.81970  10.45604
H    -1.75847  -5.67112   6.57530
H    -5.28973  -8.01140   6.19548
H    -4.14204  -8.73811   5.01990
H    -4.01048  -9.14169   6.77034
H    -2.10448  -3.76001   4.24799
H    -1.75706  -5.43844   3.86077
H     0.27337  -4.03340   3.96942
H     0.33893  -5.41331   5.06695
H     1.24063  -3.20546   5.95705
H    -0.39946  -2.57912   5.98011
H    -0.13268  -5.23148   7.34202
H     0.94896  -4.06622   8.01869
