28
Generated by autodE on: 2022-07-27. E = -781.992475 Ha
C    -2.22669  -3.04288  -1.11596
N    -1.63909  -1.80367  -1.59273
C    -0.50196  -1.33429  -1.07159
O     0.18884  -1.92881  -0.24197
C    -0.00234  -0.02625  -1.64330
C    -0.07091   0.26857  -3.08874
O     0.64269   0.80162  -0.92746
C     0.84362   0.89091   0.44282
C     2.04383   1.62385   0.74600
C     2.38208   1.90168   2.19357
O     2.80234   2.01267  -0.15907
C    -0.18715   0.48431   1.36662
O    -0.05335   0.38882   2.58146
O    -1.37912   0.27298   0.76124
C    -2.43398  -0.25488   1.56932
H    -1.56437  -3.89759  -1.32154
H    -3.18281  -3.19931  -1.62820
H    -2.40195  -2.99606  -0.02968
H    -2.14497  -1.24473  -2.27375
H     0.57203   1.12367  -3.33269
H     0.21486  -0.61897  -3.67551
H    -1.11411   0.51341  -3.36365
H     3.29175   2.51665   2.22103
H     1.56124   2.42170   2.70924
H     2.55582   0.96269   2.74046
H    -2.71183   0.45512   2.36177
H    -2.13010  -1.20872   2.02471
H    -3.28260  -0.41337   0.89369
