32
Generated by autodE on: 2022-06-15. E = -1214.518916 Ha
C    -4.07014   2.25259  -2.25348
O    -2.76831   1.99823  -1.70115
C    -1.72912   2.11540  -2.52762
O    -1.82860   2.40965  -3.70036
C    -0.39944   1.87599  -1.83376
C    -0.45220   1.10367  -0.60008
C    -0.09494   0.34484   0.27225
C     0.72826  -0.66960   0.92535
C    -0.03926  -2.01339   0.97619
F    -1.20919  -1.89903   1.62019
F     0.67169  -2.96719   1.59490
F    -0.31034  -2.45435  -0.26015
C     1.09339  -0.21530   2.35924
F     0.01564  -0.12434   3.15114
F     1.66650   0.99638   2.32849
F     1.95780  -1.05472   2.94491
C     2.04645  -0.81608   0.08541
C     1.92185  -0.70561  -1.44758
C     1.92437   0.71258  -2.08856
C     0.62588   1.18231  -2.77425
H    -4.28282   1.54894  -3.07090
H    -4.77988   2.10647  -1.43134
H    -4.13057   3.28348  -2.63086
H    -0.02084   2.88616  -1.58759
H     2.73906  -0.03914   0.43867
H     2.49667  -1.78305   0.35254
H     2.79705  -1.24559  -1.83979
H     1.04882  -1.27384  -1.79873
H     2.70117   0.71610  -2.86829
H     2.24719   1.46500  -1.34931
H     0.86262   1.89754  -3.57508
H     0.13176   0.32144  -3.25288
