60
Generated by autodE on: 2022-06-14. E = -1844.138258 Ha
C     1.68155  -4.35880   6.90472
C     0.96269  -3.15429   7.44786
O    -0.17958  -3.23399   7.85411
C     1.79453  -1.86043   7.62991
C     2.50946  -2.18691   9.02585
C     1.66986  -2.69554  10.16766
O     3.71784  -2.12096   9.11244
C     2.90550  -1.66379   6.56619
C     2.51917  -1.58688   5.08869
C     1.42017  -0.57585   4.78737
C     0.02093  -1.11775   5.14199
C    -0.85622  -0.23630   6.07210
C    -1.03015   1.14604   5.35108
F    -2.08460   1.84463   5.80326
F    -1.21307   0.99176   4.03144
F     0.05270   1.92220   5.50290
C    -2.26975  -0.91054   6.08452
F    -3.20801  -0.22708   6.74952
F    -2.73788  -1.04452   4.82497
F    -2.22038  -2.13515   6.61214
C    -0.18737  -0.03661   7.44281
C     0.94691  -0.61298   7.93039
N     1.42673   0.06499   9.08867
C     2.65042   0.85829   8.87081
N     0.38997   0.91659   9.55366
C     0.07555   0.69305  10.95445
C    -0.69073   0.95842   8.53991
C    -0.73811   2.38923   8.13607
N    -0.71036   3.53265   7.94153
C    -2.04302   0.52053   9.12217
C    -2.21147  -0.82081   9.49492
C    -3.41807  -1.25195  10.04463
C    -4.47149  -0.34952  10.22806
C    -4.30570   0.98752   9.86044
C    -3.09473   1.42145   9.31262
H     2.66006  -4.48645   7.39233
H     1.05949  -5.24757   7.06828
H     1.87084  -4.24128   5.82759
H     1.67563  -3.79832  10.12243
H     0.63076  -2.35561  10.13007
H     2.14049  -2.39261  11.11200
H     3.43087  -0.73506   6.82514
H     3.64063  -2.46700   6.70333
H     3.43309  -1.30892   4.53989
H     2.22405  -2.57494   4.70115
H     1.43393  -0.31543   3.71910
H     1.64530   0.35225   5.32811
H    -0.54312  -1.28821   4.21942
H     0.08854  -2.10245   5.61146
H     2.87259   1.38926   9.80578
H     2.51083   1.59236   8.05738
H     3.50403   0.21227   8.64174
H     0.98455   0.89227  11.54098
H    -0.27534  -0.32751  11.18267
H    -0.69163   1.41158  11.27214
H    -1.40740  -1.53747   9.33002
H    -3.53838  -2.30085  10.32504
H    -5.41875  -0.68944  10.65301
H    -5.12148   1.70093   9.99778
H    -2.98020   2.46789   9.02695
