36
Generated by autodE on: 2022-06-14. E = -1291.969226 Ha
C     4.05993   0.68973   2.57950
C     2.59136   0.44255   2.41270
O     1.76990   0.73461   3.26004
C     2.12643  -0.22762   1.09368
C     2.49633  -1.74291   1.23945
C     1.46178  -2.64230   1.84182
O     3.59368  -2.12686   0.89319
C     0.69373  -0.06716   0.88255
C    -0.35335   0.06626   0.29282
C    -1.25427   0.23780  -0.84259
C    -2.01809   1.57752  -0.71769
F    -2.70239   1.66106   0.43118
F    -2.88936   1.74578  -1.72229
F    -1.16632   2.61234  -0.74788
C    -2.25430  -0.94320  -0.89434
F    -2.98811  -0.92581  -2.01405
F    -3.09854  -0.93924   0.14615
F    -1.59251  -2.11088  -0.86397
C    -0.37393   0.22219  -2.14236
C     1.02209   0.86985  -2.04649
C     2.19540  -0.00200  -1.51491
C     2.82420   0.38440  -0.15996
H     4.27681   0.93477   3.62702
H     4.64990  -0.17729   2.25007
H     4.35324   1.54028   1.94216
H     1.90636  -3.61416   2.09076
H     0.64381  -2.78269   1.11632
H     1.01953  -2.17169   2.73379
H    -0.25177  -0.82947  -2.43771
H    -0.95780   0.70576  -2.93860
H     0.96693   1.81240  -1.48312
H     1.27067   1.16084  -3.07825
H     1.90298  -1.06531  -1.50127
H     3.01031   0.06543  -2.25155
H     3.87022   0.05178  -0.13755
H     2.82606   1.47998  -0.05319
