24
Generated by autodE on: 2022-06-14. E = -552.115679 Ha
C     3.25525   0.40866  -1.07504
N     2.83298   0.71490   0.26249
N     1.60633   0.47210   0.56607
C     1.21631   1.05241   1.87387
C     0.67448  -0.24902  -0.14402
C     1.09533  -1.33759  -0.93562
N     1.37833  -2.28995  -1.55402
C    -0.77520  -0.03643   0.02174
C    -1.65997  -1.13396   0.00388
C    -3.03608  -0.94338   0.12769
C    -3.56045   0.34500   0.27773
C    -2.69412   1.44313   0.28559
C    -1.31811   1.25892   0.14630
H     2.47376   0.66134  -1.81791
H     3.50922  -0.65491  -1.22755
H     4.16266   0.99402  -1.27712
H     1.02996   2.12712   1.76100
H     2.06768   0.90247   2.54631
H     0.32886   0.54745   2.26416
H    -1.26046  -2.14506  -0.10013
H    -3.70296  -1.80878   0.11600
H    -4.63794   0.49288   0.37972
H    -3.09340   2.45540   0.38415
H    -0.66135   2.12975   0.11596
