62
Generated by autodE on: 2022-06-10. E = -1519.155328 Ha
C    13.05866   6.85696 -20.37933
C    13.27172   7.54211 -21.70279
O    14.39756   7.83328 -22.06977
C    12.05681   7.87100 -22.61242
C    11.71473   6.62273 -23.48865
C    12.22735   5.27274 -23.07612
O    10.92064   6.73945 -24.40294
C    10.71758   8.02484 -21.78620
C     9.74211   9.13647 -22.21390
C     9.77915  10.38415 -21.31683
C    10.87258  11.44269 -21.52197
C    12.31414  10.92176 -21.62880
F    12.44207   9.86154 -20.69653
C    13.38283  11.92602 -21.20504
C    14.62599  11.42510 -20.78622
C    15.64612  12.29487 -20.40483
C    15.44052  13.67846 -20.44344
C    14.20454  14.18240 -20.85399
C    13.17626  13.31066 -21.22633
C    12.59660  10.35979 -23.01898
C    12.44265   9.09381 -23.44956
C    12.84894   8.99377 -24.92461
C    11.63062   8.69033 -25.86832
C    11.85602   7.82876 -27.07364
O    10.59798   9.30854 -25.69069
C    14.03814   8.01088 -25.01762
C    15.42762   8.57740 -25.00984
O    13.83658   6.81015 -25.06023
N    13.19027  10.35912 -25.29760
C    13.07118  11.27877 -24.16011
C    12.11045  12.43093 -24.51279
C    14.41330  11.86196 -23.90417
N    15.47964  12.31935 -23.87057
H    12.90686   7.64078 -19.61959
H    13.96721   6.29892 -20.11734
H    12.18200   6.19957 -20.35721
H    13.31028   5.28371 -22.89376
H    11.73081   4.96864 -22.14079
H    11.98190   4.54394 -23.85864
H    10.19218   7.06061 -21.82577
H    10.96720   8.17173 -20.73285
H     8.72651   8.72049 -22.12826
H     9.86890   9.39945 -23.27407
H     9.81017  10.04378 -20.26888
H     8.82200  10.91882 -21.42822
H    10.65744  12.03111 -22.42226
H    10.82213  12.13987 -20.67274
H    14.79778  10.34780 -20.77651
H    16.60987  11.89255 -20.08420
H    16.24209  14.36099 -20.15143
H    14.03299  15.26086 -20.88207
H    12.21655  13.72263 -21.53843
H    10.96948   7.85708 -27.72010
H    12.07911   6.79701 -26.77320
H    12.73641   8.20156 -27.62351
H    15.54074   9.35511 -24.24212
H    15.64731   9.03903 -25.98786
H    16.14325   7.76438 -24.83521
H    14.05219  10.45592 -25.82232
H    12.47962  12.92858 -25.42075
H    12.03956  13.17729 -23.71219
H    11.11962  12.00483 -24.71823
