22
Generated by autodE on: 2022-06-10. E = -571.061715 Ha
C    -2.31620   1.63871  -0.60777
C    -0.93056   1.15147  -0.26068
O     0.01126   1.95952  -0.28250
C    -0.67981  -0.22223   0.12381
N     0.61097  -0.63109   0.38899
C     1.83504  -0.24232   0.12629
C     2.98811  -1.00572   0.70267
C     2.17751   0.80543  -0.77924
N     2.68023   1.51941  -1.55133
C    -1.61471  -1.27686   0.52060
C    -3.10443  -1.13304   0.37440
O    -1.15244  -2.32893   0.99886
H    -2.97324   1.63553   0.27432
H    -2.78686   1.01426  -1.37982
H    -2.22607   2.66926  -0.97479
H     0.54688  -1.53071   0.90514
H     3.64257  -1.37951  -0.10061
H     3.59450  -0.34291   1.34145
H     2.62841  -1.85046   1.30637
H    -3.48648  -0.30996   0.99578
H    -3.38672  -0.92301  -0.66675
H    -3.57181  -2.07230   0.69591
