29
Generated by autodE on: 2022-05-31. E = -800.034150 Ha
C    -3.44589   3.44203   0.49397
N    -2.99235   2.10782   0.17339
C    -1.69826   1.72245   0.24943
O    -0.77444   2.48055   0.60089
C    -1.41820   0.32157  -0.11336
N    -0.12347  -0.03138  -0.02581
C     1.01482  -0.24531   0.07874
C     2.40122  -0.48537   0.21072
C     2.93538  -1.75809  -0.08103
C     4.30565  -1.96328   0.05739
C     5.13991  -0.92154   0.47981
C     4.60352   0.33909   0.76808
C     3.23689   0.56959   0.63774
C    -2.37502  -0.66593  -0.53853
O    -3.58721  -0.47408  -0.66168
O    -1.81128  -1.86710  -0.80134
C    -2.69369  -2.90789  -1.22984
H    -3.94384   3.91351  -0.36913
H    -2.58279   4.05640   0.77641
H    -4.15889   3.43315   1.33498
H    -3.65897   1.39782  -0.12690
H     2.27564  -2.56220  -0.40976
H     4.72640  -2.94562  -0.16667
H     6.21323  -1.09311   0.58516
H     5.25560   1.15048   1.09773
H     2.80334   1.54611   0.85854
H    -3.44884  -3.12446  -0.45951
H    -3.20221  -2.63163  -2.16561
H    -2.06316  -3.79014  -1.39357
