49
Generated by autodE on: 2022-05-31. E = -1112.207924 Ha. Imaginary frequency = -348.7 cm-1
C    -3.89850   1.81671   2.65470
N    -3.25938   1.03795   1.61589
C    -2.01647   0.54189   1.77951
O    -1.36874   0.74219   2.82441
C    -1.40849  -0.21253   0.65880
C    -2.08779  -0.86276  -0.46214
O    -1.59304  -1.74384  -1.15414
O    -3.32836  -0.38484  -0.69881
C    -4.04888  -0.96284  -1.79487
N    -0.15021  -0.64128   0.84587
C     0.91851  -0.65972   0.26833
C     2.05595  -1.55110   0.20571
C     1.81899  -2.94098   0.25598
C     2.88501  -3.83100   0.14855
C     4.18989  -3.34632   0.00045
C     4.42854  -1.96844  -0.05265
C     3.36686  -1.06962   0.03459
C     0.79119   0.86827  -1.40744
C     1.09759  -0.11606  -2.50961
C     1.79778   1.98660  -1.05123
C     1.81255   2.26305   0.47393
C     0.38995   2.82927   0.73903
C    -0.25021   2.84938  -0.67870
C     0.99387   3.22449  -1.53330
C    -0.46017   1.43528  -1.20197
H    -3.98815   1.24602   3.59329
H    -4.90392   2.09803   2.31784
H    -3.33229   2.73594   2.87722
H    -3.75401   0.82297   0.75623
H    -3.51632  -0.78714  -2.74052
H    -4.18186  -2.04370  -1.64435
H    -5.02292  -0.46030  -1.81108
H     0.79521  -3.30302   0.36421
H     2.69934  -4.90664   0.18363
H     5.02463  -4.04655  -0.07849
H     5.44708  -1.59333  -0.17119
H     3.54902   0.00305  -0.02318
H     2.02593  -0.67754  -2.33229
H     0.27573  -0.83371  -2.64200
H     1.22942   0.43053  -3.46053
H     2.79282   1.83765  -1.49192
H     2.59036   3.00684   0.70511
H     2.02850   1.36774   1.07111
H    -0.17489   2.22421   1.45473
H     0.43692   3.85532   1.13488
H    -1.13105   3.49943  -0.76081
H     0.79415   3.21206  -2.61540
H     1.45049   4.18970  -1.25443
H    -1.38306   1.12014  -1.68531
