14
Generated by autodE on: 2022-06-01. E = -586.282694 Ha
C     2.79865   0.63282   0.85026
C     2.08094  -0.43475   0.07015
O     2.65106  -1.39804  -0.43913
C     0.64558  -0.29771  -0.07546
O    -0.02111   0.78067   0.48492
C    -1.27809   0.67526   0.20583
C    -2.21440   1.63982   0.66353
N    -2.99112   2.41968   1.03309
O    -1.58697  -0.35517  -0.49028
C    -0.26876  -1.12631  -0.74732
O    -0.30987  -2.13402  -1.38355
H     2.40358   0.68509   1.87759
H     2.63474   1.61929   0.38732
H     3.87159   0.40425   0.87338
