45
Generated by autodE on: 2022-06-01. E = -1589.449572 Ha. Imaginary frequency = -274.0 cm-1
C    -0.45564  -4.33031  -0.15623
C    -0.09288  -2.97639   0.37370
O    -0.12847  -2.70156   1.55737
C     0.37925  -1.88472  -0.61307
Cl   -0.69991  -1.93157  -2.11877
C     1.81708  -2.17689  -1.09940
C     2.91882  -2.03876  -0.03194
C     3.74806  -0.73848  -0.05177
C     3.29972   0.43698   0.82457
C     2.13378   1.36457   0.35471
C     2.45015   2.02892  -0.99945
C     1.95133   2.44532   1.43414
C     0.95496   0.49636   0.19163
C     0.29990  -0.53398  -0.02915
C    -1.81719  -0.03482   0.45127
C    -2.63218  -1.19505   0.26689
N    -3.28413  -2.15012   0.17567
O    -1.69472   0.45582   1.68515
C    -1.27084   1.82244   1.55802
O    -1.03133   2.48751   2.52993
C    -1.27940   2.02354   0.13590
C    -1.01211   3.21135  -0.66701
C    -1.24236   3.08608  -2.14615
O    -0.59939   4.23397  -0.12756
O    -1.85203   0.93671  -0.44958
H    -0.32670  -5.07462   0.64053
H     0.12142  -4.60647  -1.04821
H    -1.51999  -4.30770  -0.44339
H     2.01207  -1.48993  -1.93590
H     1.81770  -3.19340  -1.51764
H     3.61853  -2.87047  -0.20323
H     2.50570  -2.20582   0.97666
H     3.88887  -0.40907  -1.09497
H     4.75585  -1.00111   0.30802
H     4.16191   1.11153   0.95424
H     3.04346   0.06079   1.82870
H     3.39361   2.59054  -0.91656
H     1.65555   2.73287  -1.28340
H     2.55560   1.28536  -1.80204
H     1.18649   3.17686   1.14935
H     2.90510   2.97892   1.56164
H     1.67223   2.00119   2.39990
H    -0.69349   2.21791  -2.54366
H    -0.91620   4.00668  -2.64549
H    -2.31273   2.91203  -2.34490
