40
Generated by autodE on: 2022-06-03. E = -957.200658 Ha
C     0.24985   2.05117   2.41700
N    -0.18498   2.81256   1.26093
C    -0.15075   2.43558  -0.02888
O    -0.50761   3.18583  -0.94960
C     0.39728   1.07210  -0.35707
C     1.69382   1.16952  -1.10513
O     2.60674   1.88206  -0.66418
N     1.78127   0.49253  -2.26564
C     3.04313   0.31426  -2.95520
C    -0.19020  -0.09948  -0.00383
C     0.47271  -1.40883  -0.25368
C     1.81915  -1.61387   0.09630
C     2.43813  -2.83968  -0.15451
C     1.72137  -3.87805  -0.75842
C     0.37826  -3.68755  -1.09957
C    -0.24513  -2.46545  -0.84025
C    -1.50671  -0.14235   0.68206
C    -1.70598  -1.02162   1.76312
C    -2.92645  -1.05224   2.43800
C    -3.97487  -0.21898   2.03216
C    -3.79483   0.64288   0.94602
C    -2.57094   0.68195   0.27514
H    -0.56834   1.45859   2.85674
H     1.06586   1.37244   2.14063
H     0.62429   2.74608   3.18110
H    -0.59360   3.73043   1.42399
H     1.02005  -0.13766  -2.49714
H     3.60937   1.25477  -2.94979
H     2.85265   0.01777  -3.99460
H     3.65867  -0.46474  -2.47132
H     2.37952  -0.80960   0.57704
H     3.48323  -2.98600   0.12792
H     2.20692  -4.83644  -0.95664
H    -0.18745  -4.49541  -1.56953
H    -1.29411  -2.32030  -1.10674
H    -0.88984  -1.67161   2.08405
H    -3.06102  -1.73000   3.28415
H    -4.93256  -0.24759   2.55709
H    -4.61398   1.28465   0.61346
H    -2.44379   1.34445  -0.58209
