55
Generated by autodE on: 2022-06-03. E = -1390.530612 Ha. Imaginary frequency = -451.5 cm-1
C    -4.26611   3.24107   1.66538
N    -2.92753   2.68404   1.74726
C    -2.56212   1.64982   0.96043
O    -3.29388   1.15968   0.09862
N    -1.32289   1.05299   1.24355
N    -0.25292   1.71114   1.62238
C     0.16827   3.00721   1.06124
O     0.68118   0.88638   1.92898
C     0.72327  -0.33322   0.31098
C     1.21321  -1.59387   0.98209
C     1.97517  -1.56366   2.16080
C     2.47985  -2.74568   2.70960
C     2.24760  -3.97444   2.08569
C     1.51217  -4.01147   0.89757
C     1.00614  -2.83193   0.34745
C     1.81423   0.24534  -0.56032
C     2.80369   1.10775  -0.06612
C     3.84760   1.53745  -0.89016
C     3.92996   1.10197  -2.21551
C     2.96234   0.22201  -2.70948
C     1.91953  -0.20861  -1.88724
C    -0.67468  -0.20446  -0.06663
C    -1.56388  -1.39403   0.28101
O    -2.03633  -2.14219  -0.59320
N    -1.74731  -1.62773   1.58304
C    -2.35139  -2.85298   2.06325
C    -0.96074   0.53288  -1.37093
O    -0.61989   1.71238  -1.52070
N    -1.54586  -0.17642  -2.34457
C    -1.89606   0.43647  -3.60839
H    -5.02841   2.53471   2.03435
H    -4.51223   3.50069   0.62595
H    -4.30333   4.15173   2.27577
H    -2.33485   2.95276   2.52582
H     0.84695   3.46461   1.79082
H    -0.70732   3.64690   0.91655
H     0.67383   2.84793   0.10290
H     2.16982  -0.61564   2.65795
H     3.06135  -2.70245   3.63373
H     2.64338  -4.89620   2.51838
H     1.33218  -4.96228   0.39032
H     0.44218  -2.87470  -0.58463
H     2.74592   1.45122   0.96505
H     4.60122   2.21978  -0.48956
H     4.74607   1.44108  -2.85778
H     3.01886  -0.13607  -3.74021
H     1.17936  -0.90811  -2.27781
H    -1.34162  -0.96648   2.23725
H    -2.44531  -2.79793   3.15454
H    -3.35065  -2.99770   1.62624
H    -1.73209  -3.72759   1.80132
H    -1.86059  -1.11672  -2.09337
H    -1.00830   0.87052  -4.09417
H    -2.63576   1.24359  -3.47436
H    -2.32282  -0.32831  -4.26921
