36
Generated by autodE on: 2022-05-28. E = -1169.111694 Ha
C    -1.74735  -2.26254   0.42209
C    -0.97058  -1.43938  -0.60909
N    -1.60494  -0.18537  -1.03516
C    -3.00559  -0.24119  -1.40409
C    -1.15401   0.92460  -0.22028
C    -1.40160   2.29212  -0.86945
C    -1.89252   0.93756   1.08646
N    -2.61463   0.91407   1.99596
C     0.36530   0.59926  -0.00371
Cl    0.85626   1.25070   1.62190
C     1.33246   1.09583  -1.10935
C     2.79533   0.82367  -0.69400
C     2.90913  -0.72577  -0.76662
C     1.52091  -1.15114  -1.28320
C     1.15770   0.02589  -2.20612
C     0.45763  -0.98449  -0.14667
C     0.87027  -1.66382   1.07416
N     1.22278  -2.23340   2.02194
H    -2.74722  -2.50360   0.03403
H    -1.22858  -3.21397   0.60805
H    -1.86438  -1.74028   1.38152
H    -0.84855  -2.06682  -1.50653
H    -3.69102  -0.33611  -0.53889
H    -3.28704   0.66132  -1.96483
H    -3.16644  -1.10628  -2.06394
H    -1.02752   2.29049  -1.90091
H    -2.47445   2.52573  -0.88315
H    -0.88798   3.07430  -0.29287
H     1.14775   2.13622  -1.39547
H     3.45632   1.30468  -1.42872
H     3.04334   1.23074   0.29260
H     3.15732  -1.18235   0.20187
H     3.68113  -1.04018  -1.48309
H     1.48208  -2.15682  -1.71946
H     0.15019  -0.02761  -2.62768
H     1.89047   0.15297  -3.01605
