18
Generated by autodE on: 2022-05-28. E = -344.264716 Ha
C     2.96468   0.08777  -0.44065
C     1.55760  -0.29299  -0.74062
N     0.53020   0.07521   0.00604
C     0.81161   0.90299   1.19391
C    -0.78350  -0.27849  -0.26426
C    -1.06487  -1.12468  -1.46342
C    -1.81304   0.14889   0.56935
N    -2.72876   0.47924   1.23539
H     3.11872   1.18228  -0.44877
H     3.62873  -0.35015  -1.19772
H     3.29913  -0.26910   0.55024
H     1.33601  -0.90530  -1.61209
H     1.32860   1.82059   0.88769
H    -0.12315   1.16377   1.69623
H     1.45334   0.34316   1.88614
H    -0.73581  -0.63709  -2.40209
H    -2.14206  -1.32198  -1.54375
H    -0.54099  -2.09960  -1.41515
