18
Generated by autodE on: 2022-07-26. E = -344.260741 Ha
C     0.28277  -1.70581   1.49781
C     0.10232  -1.67866   0.02993
N    -0.23523  -0.59932  -0.65224
C    -0.64086  -0.77611  -2.05888
C    -0.26300   0.70461  -0.16056
C    -1.12497   1.74843  -0.82222
C     0.65678   1.07881   0.81652
N     1.45118   1.43046   1.61362
H     1.25555  -1.30624   1.83794
H     0.20031  -2.74151   1.85722
H    -0.48881  -1.08099   1.98462
H     0.20594  -2.59271  -0.55515
H    -0.04088  -0.12196  -2.70405
H    -1.70148  -0.51690  -2.17060
H    -0.49766  -1.82329  -2.34465
H    -0.79259   2.01791  -1.84152
H    -2.18230   1.43971  -0.89239
H    -1.09482   2.66824  -0.22080
