18
Generated by autodE on: 2022-05-28. E = -824.778776 Ha
N     3.19861  -0.20653  -0.50007
C     2.07312  -0.28686  -0.20649
C     0.71517  -0.41317   0.16127
C    -0.18943   0.58468   0.31385
Cl    0.08487   2.27030   0.11473
C    -1.55651  -0.02833   0.50005
C    -1.93041  -0.62089  -0.90118
C    -0.91854  -1.78951  -1.07182
C    -0.08034  -1.72012   0.24244
C    -1.16391  -1.31233   1.26245
H    -2.30910   0.63331   0.94279
H    -1.85629   0.13791  -1.69247
H    -2.96774  -0.98375  -0.87358
H    -1.43302  -2.75941  -1.13374
H    -0.28408  -1.68373  -1.96256
H     0.51969  -2.61040   0.46207
H    -0.76087  -1.11181   2.26524
H    -1.98836  -2.03764   1.32415
