36
Generated by autodE on: 2022-05-28. E = -1169.033068 Ha. Imaginary frequency = -207.3 cm-1
C    -1.79310  -1.83564   1.13071
C    -1.75610  -1.48860  -0.31548
N    -1.94846  -0.27774  -0.82777
C    -2.38924  -0.19776  -2.23155
C    -1.61622   0.90919  -0.15852
C    -1.68169   2.22400  -0.90589
C    -2.09195   1.04699   1.17859
N    -2.49655   1.26755   2.25137
C     0.65719   0.41343   0.15337
Cl    0.86439   0.96116   1.82244
C     1.35515   1.21824  -0.93456
C     2.88500   0.96246  -0.75278
C     3.05405  -0.52653  -1.17542
C     1.59584  -0.95051  -1.52131
C     1.07492   0.34094  -2.16901
C     0.83919  -0.94632  -0.18207
C     1.09854  -1.96753   0.75280
N     1.34031  -2.83973   1.49388
H    -2.84672  -1.82061   1.46738
H    -1.41416  -2.85536   1.27029
H    -1.22893  -1.15972   1.78017
H    -1.95051  -2.30257  -1.01633
H    -3.45684   0.06493  -2.24871
H    -1.83850   0.56326  -2.78915
H    -2.24430  -1.17124  -2.71139
H    -1.07369   2.22104  -1.81835
H    -2.71516   2.49787  -1.18019
H    -1.28957   3.01241  -0.24858
H     1.07813   2.27672  -0.98438
H     3.44751   1.63653  -1.41520
H     3.20671   1.15849   0.27906
H     3.48425  -1.15356  -0.38110
H     3.69672  -0.62058  -2.06414
H     1.50802  -1.87557  -2.10438
H     0.02680   0.28639  -2.46595
H     1.67526   0.64617  -3.03849
