54
Generated by autodE on: 2022-06-08. E = -1393.490920 Ha
C     3.48672  -1.88040  -2.69213
N     3.08051  -1.31564  -1.41883
C     2.30501  -0.22119  -1.36230
O     1.97198   0.40727  -2.37225
C     1.82826   0.22783   0.06055
C     3.00975   0.36807   1.02695
C     0.74628  -0.74678   0.52619
C     1.07178  -2.06493   1.11284
O     2.13041  -2.65153   0.93490
O     0.10716  -2.54901   1.89069
C     0.31230  -3.85329   2.45278
C    -0.48455  -0.23659   0.31478
C    -1.79009  -0.90038   0.51275
C    -2.70703  -0.43920   1.47121
C    -3.92229  -1.10199   1.65885
C    -4.23944  -2.22472   0.88951
C    -3.33004  -2.68967  -0.06669
C    -2.11252  -2.03492  -0.25174
C    -0.34399   1.17735  -0.26511
C    -1.31086   2.15012   0.45152
O    -2.43999   2.34064  -0.00746
N    -0.83270   2.66587   1.58789
C    -1.60212   3.50064   2.48612
C    -0.72730   1.15961  -1.76333
O    -1.10276   0.17974  -2.37098
O    -0.55357   2.35433  -2.31977
C    -0.74968   2.44145  -3.73944
N     1.05630   1.46794  -0.00766
C     1.67311   2.69164  -0.48738
H     4.17931  -2.71140  -2.50927
H     3.99635  -1.12324  -3.30558
H     2.62406  -2.25702  -3.26777
H     3.12485  -1.89995  -0.58367
H     2.64400   0.73585   1.99676
H     3.51471  -0.59175   1.18702
H     3.74941   1.07873   0.63235
H    -0.59342  -4.07548   3.02818
H     0.44942  -4.59621   1.65408
H     1.19320  -3.85414   3.11040
H    -2.46066   0.41953   2.09638
H    -4.62266  -0.73877   2.41445
H    -5.19230  -2.73865   1.03611
H    -3.56977  -3.56783  -0.67076
H    -1.40111  -2.39322  -0.99749
H     0.12637   2.41134   1.81742
H    -1.07864   4.44866   2.68191
H    -2.57294   3.71759   2.02425
H    -1.77237   2.99093   3.44783
H    -0.04969   1.76988  -4.25682
H    -1.78273   2.17225  -4.00140
H    -0.54747   3.48424  -4.00878
H     1.95649   2.66586  -1.55077
H     0.98107   3.53067  -0.33546
H     2.57399   2.89977   0.10836
