34
Generated by autodE on: 2022-06-08. E = -856.883802 Ha
C     2.64990   0.66878   2.03534
N     1.94071   0.51253   0.77963
C     2.08413  -0.59884   0.04020
O     2.92756  -1.46584   0.27583
C     1.26418  -0.69836  -1.23526
C     1.94857  -1.32663  -2.39691
N     0.04236  -0.24192  -1.34022
C    -0.61958  -0.27981  -2.66079
C    -0.75831   0.07019  -0.20670
C    -0.80811  -0.94854   0.84165
O    -0.12067  -1.99396   0.78376
N    -1.62831  -0.71181   1.89209
C    -1.80758  -1.68336   2.94693
C    -1.49558   1.28910  -0.18395
O    -2.33391   1.62405   0.66726
O    -1.16938   2.13554  -1.20204
C    -1.90900   3.35343  -1.28442
H     2.48146   1.68427   2.41355
H     3.72867   0.51533   1.88962
H     2.29862  -0.05637   2.78860
H     1.12492   1.09514   0.61025
H     2.10744  -0.58206  -3.19496
H     2.91539  -1.73387  -2.08635
H     1.33427  -2.13374  -2.82680
H    -0.03004   0.27686  -3.39969
H    -1.61505   0.15718  -2.56852
H    -0.71204  -1.32697  -2.98192
H    -2.20982   0.12339   1.83762
H    -2.36267  -2.57679   2.60993
H    -2.36974  -1.21892   3.76760
H    -0.83630  -2.02508   3.33651
H    -1.52788   3.88020  -2.16816
H    -1.75465   3.97181  -0.38738
H    -2.98558   3.15764  -1.40301
