20
Generated by autodE on: 2022-06-08. E = -536.522088 Ha
C     4.75387   0.24405   0.23090
O     3.33550   0.44773   0.12982
C     2.57005  -0.64644   0.21967
O     3.00530  -1.77220   0.37853
C     1.16811  -0.33060   0.10520
C    -0.02763  -0.11764   0.01328
C    -1.42525   0.13946  -0.09498
C    -1.89069   1.45544  -0.30318
C    -3.25826   1.70083  -0.40835
C    -4.17231   0.64571  -0.30758
C    -3.71743  -0.66167  -0.10103
C    -2.35227  -0.91983   0.00533
H     5.20649   1.23783   0.13809
H     5.00967  -0.20250   1.20266
H     5.10635  -0.41252  -0.57772
H    -1.17176   2.27297  -0.38056
H    -3.61450   2.72055  -0.56948
H    -5.24350   0.84324  -0.39044
H    -4.43169  -1.48411  -0.02260
H    -1.99013  -1.93677   0.16604
