54
Generated by autodE on: 2022-06-08. E = -1393.384792 Ha. Imaginary frequency = -225.4 cm-1
C     3.70125  -1.42654  -3.01086
N     3.15865  -1.07622  -1.71444
C     2.73245   0.17074  -1.46880
O     2.92876   1.11960  -2.23529
C     2.17822   0.45777  -0.07823
C     3.24292   0.34429   0.98781
C     0.74754  -1.15496   0.51892
C     1.61480  -2.18200   1.06335
O     2.34391  -2.90542   0.39797
O     1.56050  -2.23340   2.39714
C     2.42712  -3.18254   3.04189
C    -0.45427  -0.85297   0.35446
C    -1.87740  -0.86291   0.32933
C    -2.61200  -0.43094   1.45904
C    -4.00563  -0.39310   1.41624
C    -4.68936  -0.78682   0.26037
C    -3.96949  -1.23319  -0.85435
C    -2.57770  -1.27488  -0.82652
C     0.07971   1.45842  -0.71790
C    -0.82903   2.65814  -0.50706
O    -0.48955   3.77834  -0.90702
N    -1.98859   2.42577   0.11773
C    -2.99184   3.45687   0.28784
C    -0.17415   0.73241  -1.96141
O     0.47581  -0.15293  -2.49676
O    -1.34438   1.16136  -2.49950
C    -1.73561   0.57800  -3.74479
N     1.23299   1.42769   0.02745
C     1.18235   2.17570   1.29845
H     4.05644  -2.46439  -2.98052
H     4.54499  -0.77152  -3.27459
H     2.93963  -1.33499  -3.80432
H     2.87486  -1.82578  -1.08043
H     2.82850   0.30967   2.00224
H     3.81525  -0.57631   0.82040
H     3.95495   1.18438   0.92001
H     2.17939  -4.20587   2.72659
H     3.47744  -2.96613   2.79938
H     2.25222  -3.06292   4.11711
H    -2.07581  -0.11650   2.35631
H    -4.56144  -0.05224   2.29259
H    -5.78038  -0.74941   0.22955
H    -4.49849  -1.54947  -1.75628
H    -2.01506  -1.62385  -1.69276
H    -2.22066   1.47190   0.37835
H    -2.57728   4.32617   0.82068
H    -3.37870   3.80534  -0.68406
H    -3.82311   3.04357   0.87258
H    -1.84008  -0.51240  -3.65947
H    -2.70363   1.02797  -3.99508
H    -0.99778   0.80991  -4.52720
H     2.19459   2.43417   1.61798
H     0.63267   3.10812   1.15460
H     0.68819   1.56523   2.06877
