29
Generated by autodE on: 2022-07-27. E = -704.877017 Ha
C    -0.61824   5.41081  -0.63036
N    -0.65586   3.99760  -0.93606
C    -0.14544   3.07508  -0.07830
O     0.38357   3.42534   0.99343
C    -0.31418   1.70222  -0.55000
N     0.13248   0.59311   0.04396
C     0.86320   0.69364   1.32956
C     0.01622  -0.65187  -0.52823
C    -0.33076  -0.71080  -1.89261
N    -0.60290  -0.78256  -3.02932
C     0.13486  -1.92280   0.20515
C    -0.38359  -2.09725   1.50622
C    -0.28652  -3.33045   2.15133
C     0.30498  -4.42344   1.50937
C     0.79887  -4.27106   0.20922
C     0.71829  -3.03682  -0.43471
H    -1.15686   5.63601   0.30488
H     0.41676   5.77184  -0.51306
H    -1.09188   5.96397  -1.45056
H    -1.08091   3.69316  -1.80495
H    -0.85831   1.55256  -1.48219
H     0.16805   0.94643   2.13784
H     1.35983  -0.25592   1.53356
H     1.60132   1.49348   1.23794
H    -0.88310  -1.26896   2.01058
H    -0.69256  -3.44134   3.15965
H     0.37377  -5.38879   2.01583
H     1.25980  -5.11777  -0.30496
H     1.11796  -2.92550  -1.44522
