29
Generated by autodE on: 2022-06-05. E = -704.878412 Ha
C     4.32427   2.23689  -0.74799
N     3.00215   1.77971  -0.38145
C     2.66183   0.46580  -0.46139
O     3.48404  -0.38301  -0.85408
C     1.28085   0.20594  -0.06308
N     0.70120  -0.99175   0.03319
C     1.52389  -2.21354  -0.13075
C    -0.63754  -1.15583   0.27653
C    -1.12578  -2.42930   0.62843
N    -1.61291  -3.45333   0.92436
C    -1.61733  -0.04945   0.24264
C    -1.64496   0.89103  -0.80890
C    -2.63082   1.87518  -0.85440
C    -3.61137   1.94514   0.14289
C    -3.59997   1.01391   1.18449
C    -2.61359   0.02678   1.23494
H     5.10310   1.74928  -0.13900
H     4.38207   3.32067  -0.58921
H     4.54801   2.02342  -1.80635
H     2.31931   2.45465  -0.05537
H     0.64843   1.06205   0.15880
H     2.41626  -2.13490   0.49542
H     1.82676  -2.29987  -1.17966
H     0.93406  -3.08589   0.15944
H    -0.89827   0.84525  -1.60396
H    -2.63857   2.58986  -1.68080
H    -4.38025   2.72014   0.10443
H    -4.36055   1.05643   1.96768
H    -2.61221  -0.69703   2.05293
