25
Generated by autodE on: 2022-06-05. E = -763.485500 Ha
C    -2.48802   2.77978   1.10887
O    -1.62443   1.90730   0.36151
C    -1.74704   0.60482   0.59311
O    -2.56271   0.11551   1.35458
C    -0.82451  -0.24390  -0.18243
C     0.49777  -0.19427  -0.43756
C     1.51533   0.79241  -0.03429
O     1.30714   1.84253   0.54246
O     2.74073   0.36861  -0.37539
C     3.83840   1.22205  -0.02456
C     0.81659  -1.57140  -1.07774
C     0.67781  -2.62159   0.04708
C    -0.63071  -2.66870   0.31075
C    -1.26476  -1.65125  -0.66420
O    -0.40496  -1.79077  -1.80103
H    -3.54179   2.55280   0.89265
H    -2.24172   3.79638   0.78265
H    -2.30196   2.66842   2.18665
H     3.73670   2.19934  -0.51845
H     4.74241   0.71092  -0.37462
H     3.87926   1.36717   1.06476
H     1.70063  -1.61856  -1.71922
H     1.50999  -3.13446   0.52720
H    -1.17780  -3.22831   1.06798
H    -2.32426  -1.76868  -0.91192
