54
Generated by autodE on: 2022-06-05. E = -1468.368934 Ha. Imaginary frequency = -239.0 cm-1
C     1.62509   5.00844  -1.28702
N     1.76769   3.61319  -1.64827
C     1.95687   2.65779  -0.70833
O     2.10710   2.94993   0.49062
C     1.86243   1.28222  -1.22916
C    -0.38168   0.85479  -1.03905
C    -0.68206   1.17449   0.44232
O    -0.11181   0.03007   1.08906
C    -0.82817  -0.94874   0.32443
C    -2.27889  -0.46829   0.57728
C    -3.45117  -1.35915   0.51437
O    -4.57740  -1.10315   0.89250
O    -3.10398  -2.53463  -0.03211
C    -4.14322  -3.51271  -0.17344
C    -2.18447   0.87799   0.65344
C    -3.21203   1.93285   0.70222
O    -4.34189   1.82886   1.13685
O    -2.71717   3.07073   0.18960
C    -3.60043   4.20001   0.15085
C    -0.47441  -0.51673  -1.10574
C     2.06117  -1.05573  -1.12190
C     1.87923  -1.13112  -2.52973
N     1.73752  -1.21472  -3.68642
C     2.28298  -2.33067  -0.41233
C     1.99297  -2.49722   0.95966
C     2.16438  -3.73518   1.57919
C     2.61428  -4.84077   0.85102
C     2.89098  -4.69500  -0.51191
C     2.72902  -3.45822  -1.13493
N     2.36122   0.18923  -0.60762
C     3.05770   0.30881   0.68371
H     0.72552   5.17840  -0.67137
H     2.49650   5.35831  -0.71300
H     1.54286   5.60595  -2.20304
H     1.60208   3.33558  -2.60984
H     1.69856   1.17866  -2.29960
H    -0.57721   1.56463  -1.84020
H    -0.30409   2.11370   0.85337
H    -0.59836  -1.97251   0.63048
H    -4.55876  -3.77470   0.81043
H    -3.67250  -4.38892  -0.63353
H    -4.94704  -3.12873  -0.81820
H    -4.48809   3.97257  -0.45706
H    -3.02700   5.01607  -0.30331
H    -3.91541   4.47457   1.16807
H    -0.66449  -1.13026  -1.98318
H     1.61181  -1.66355   1.54427
H     1.93160  -3.83660   2.64181
H     2.74326  -5.80871   1.34049
H     3.24220  -5.54895  -1.09582
H     2.95632  -3.36166  -2.19821
H     2.34679   0.42732   1.50799
H     3.66730  -0.58591   0.83525
H     3.70942   1.18507   0.64535
