31
Generated by autodE on: 2022-10-14. E = -913.409858 Ha
C    -2.10055  -3.23510   0.14749
O    -1.50535  -1.94425   0.32065
C    -2.19644  -0.88546  -0.13584
O    -3.34371  -0.96848  -0.53938
C    -1.41863   0.34876  -0.02835
N    -0.05987   0.39029   0.02179
C     0.93238  -0.42108  -0.32846
C     0.67781  -1.58242  -1.11101
N     0.55668  -2.50597  -1.80939
C     2.31967  -0.08213   0.00711
C     3.38428  -0.70174  -0.67918
C     4.70395  -0.36556  -0.38503
C     4.98762   0.58966   0.59669
C     3.93843   1.19970   1.29281
C     2.61580   0.86271   1.01201
C    -2.00223   1.66454   0.22250
O    -1.30286   2.65424   0.43106
O    -3.33519   1.69718   0.23300
C    -3.94259   2.96818   0.50192
H    -2.31778  -3.41993  -0.91428
H    -3.02935  -3.31198   0.73076
H    -1.36316  -3.95893   0.51293
H     0.24250   1.31781   0.36184
H     3.17539  -1.44035  -1.45496
H     5.51652  -0.85106  -0.92962
H     6.02299   0.85020   0.82656
H     4.15076   1.93169   2.07487
H     1.81938   1.31961   1.60353
H    -3.63939   3.70909  -0.25191
H    -5.02437   2.79855   0.45237
H    -3.66026   3.32812   1.50197
