10
Generated by autodE on: 2022-10-07. E = -455.046566 Ha
O    -2.23336  -0.49064  -0.15611
C    -1.24593  -0.28845  -0.90936
O    -0.87409  -1.01122  -1.86985
C    -0.49481   1.01503  -0.71151
C     0.57241   1.23421   0.07475
C     1.25118   0.19987   0.94121
O     2.25431   0.59565   1.60104
O     0.78326  -0.97352   0.95348
H    -0.89392   1.85541  -1.29646
H     1.01620   2.23573   0.11463
