38
Generated by autodE on: 2022-06-19. E = -1046.482036 Ha. Imaginary frequency = -465.6 cm-1
C     4.27781   2.02630  -0.80671
O     3.31630   0.96093  -0.89057
C     2.49349   0.81253   0.14771
O     2.48865   1.51350   1.13952
C     1.51501  -0.26572  -0.11242
N     1.84133  -1.36979  -0.86034
C     0.83135  -2.27928  -0.67254
C     0.69220  -3.54787  -1.42795
C     0.19019  -1.92477   0.55590
O    -0.69609  -2.43779   1.22618
O     0.78459  -0.71406   0.95834
C    -0.76344  -0.51572  -1.54854
C     0.01663   0.59980  -1.18003
C    -0.58506   1.65785  -0.26160
C    -1.86192   1.18484   0.40243
C    -2.50996   1.96748   1.46766
N    -1.90734   3.13406   1.80906
O    -3.55502   1.60306   2.04321
C    -2.48031   0.04202   0.00294
N    -2.01791  -0.75568  -1.00842
C    -2.67315  -2.01798  -1.31976
H     4.94459   1.87091   0.05314
H     3.76491   2.99334  -0.70634
H     4.84727   1.99112  -1.74196
H     2.36372  -1.28143  -1.72919
H    -0.11281  -4.15232  -0.98943
H     0.45280  -3.36440  -2.48810
H     1.62660  -4.13337  -1.39292
H    -0.54706  -1.07048  -2.46023
H     0.67716   0.97983  -1.96285
H     0.14954   1.95504   0.50610
H    -0.77652   2.57845  -0.84615
H    -1.06074   3.46608   1.36519
H    -2.32152   3.69616   2.54442
H    -3.41280  -0.27552   0.47028
H    -3.73198  -1.95870  -1.03769
H    -2.60578  -2.21349  -2.39985
H    -2.20318  -2.85342  -0.77858
