38
Generated by autodE on: 2022-06-19. E = -1009.305509 Ha
C     4.39518   0.44060   0.33321
O     3.19709   0.28881  -0.45215
C     2.04399   0.49041   0.16263
O     1.92069   0.82770   1.31903
C     0.82542   0.21089  -0.75125
C     1.21343   0.37533  -2.16253
N     1.48683   0.52040  -3.27959
N    -0.30076   1.08210  -0.45087
C    -0.05328   2.51748  -0.43165
C    -1.16886   0.47284   0.56488
C    -1.21282   1.23871   1.82435
N    -1.28902   1.85241   2.80583
C    -2.63392   0.37359   0.00721
C    -3.28978   1.62339  -0.48751
O    -3.17298  -0.71291  -0.02176
C    -0.55438  -0.93238   0.80585
C    -1.50499  -1.97764   1.33822
O    -1.47165  -3.15481   1.04283
C     0.27103  -1.24603  -0.46295
C    -0.58576  -1.71990  -1.64667
C     1.38083  -2.26276  -0.18920
H     4.39017  -0.27740   1.16520
H     4.46096   1.46505   0.72453
H     5.22723   0.23419  -0.34839
H    -1.00274   3.06509  -0.40287
H     0.46176   2.79903  -1.36160
H     0.56413   2.83949   0.42480
H    -2.76906   1.98012  -1.38929
H    -3.22422   2.42057   0.26847
H    -4.33849   1.41347  -0.73139
H     0.15786  -0.81232   1.63992
H    -2.17075  -1.60924   2.15102
H    -1.16225  -2.60492  -1.35115
H    -1.28538  -0.95114  -1.99896
H     0.06339  -2.00142  -2.48790
H     2.07281  -2.31622  -1.04243
H     0.93333  -3.25437  -0.04226
H     1.95502  -2.01707   0.71648
