24
Generated by autodE on: 2022-07-27. E = -738.576469 Ha
C     4.15913  -1.18903  -0.63740
O     2.87424  -0.57811  -0.83768
C     2.05390  -0.54915   0.21246
O     2.32903  -0.98626   1.31133
C     0.75255   0.05742  -0.16487
C     0.51592   0.32226  -1.53707
N     0.36967   0.59587  -2.65962
N    -0.16313   0.40862   0.75905
C     0.25797   0.68911   2.15135
C    -1.49162   0.50420   0.45593
C    -2.31828   1.31446   1.27420
N    -3.04114   1.98124   1.90113
C    -2.13786  -0.40018  -0.51975
C    -3.63434  -0.29221  -0.64472
O    -1.49281  -1.23461  -1.14629
H     4.03778  -2.24034  -0.33957
H     4.72057  -0.64792   0.13739
H     4.67499  -1.12164  -1.60147
H    -0.40645   1.46148   2.55276
H     1.28803   1.04955   2.16361
H     0.15933  -0.22658   2.74733
H    -3.91717   0.73325  -0.93141
H    -4.12674  -0.51234   0.31538
H    -3.98018  -1.00132  -1.40664
