24
Generated by autodE on: 2022-06-19. E = -738.577943 Ha
C    -2.29295  -2.24604   0.36016
O    -1.38058  -1.28213  -0.19030
C    -1.68220  -0.00364  -0.00938
O    -2.73252   0.40789   0.43850
C    -0.64869   0.91517  -0.56701
C    -1.15649   2.15247  -1.04110
N    -1.62127   3.15812  -1.40204
N     0.64983   0.61482  -0.71991
C     1.45405   1.34753  -1.72483
C     1.30050  -0.31636   0.03973
C     2.53275  -0.81604  -0.44596
N     3.54288  -1.26330  -0.82031
C     0.91824  -0.58340   1.43447
C     1.86884  -1.42452   2.24291
O    -0.09614  -0.09620   1.92966
H    -3.27760  -2.15868  -0.11995
H    -2.39150  -2.09196   1.44389
H    -1.85143  -3.22693   0.15228
H     0.84068   2.11927  -2.19690
H     1.78033   0.63035  -2.48960
H     2.32491   1.79492  -1.23203
H     1.47924  -1.52526   3.26317
H     1.96688  -2.42092   1.78227
H     2.87350  -0.97535   2.27001
