38
Generated by autodE on: 2022-06-19. E = -1009.237650 Ha. Imaginary frequency = -321.2 cm-1
C     4.47793   0.14816  -1.14896
O     3.04871   0.18887  -1.26630
C     2.37861   0.76462  -0.25600
O     2.93057   1.25013   0.71286
C     0.92493   0.62824  -0.46992
C     0.53764   0.24183  -1.78198
N     0.23281  -0.08845  -2.85744
N    -0.01371   1.26102   0.34228
C     0.41661   2.08544   1.48408
C    -1.25831   0.69501   0.38967
C    -2.17091   1.17426   1.38747
N    -2.97341   1.47525   2.17367
C    -2.05504   0.41089  -0.92053
C    -2.28541   1.62171  -1.77747
O    -2.56008  -0.66518  -1.13128
C    -0.67941  -1.23040   1.15409
C    -1.91354  -2.02358   0.99713
O    -2.84702  -1.94297   1.78504
C     0.53477  -1.60203   0.51985
C     0.54718  -2.49946  -0.68235
C     1.78330  -1.62798   1.35831
H     4.77340  -0.40681  -0.24721
H     4.83645  -0.36748  -2.04700
H     4.88813   1.16710  -1.10492
H    -0.43533   2.69257   1.80742
H     1.22520   2.74793   1.17022
H     0.76002   1.45449   2.31612
H    -1.39493   2.25826  -1.85448
H    -3.07355   2.21930  -1.28594
H    -2.63342   1.30856  -2.76983
H    -0.58021  -0.82932   2.16787
H    -1.93532  -2.76397   0.17293
H    -0.31403  -2.35229  -1.34417
H     0.54668  -3.55096  -0.34192
H     1.46914  -2.35296  -1.26332
H     1.82841  -0.79731   2.07423
H     1.78036  -2.56968   1.93803
H     2.69535  -1.63649   0.74558
