47
Generated by autodE on: 2022-10-26. E = -1094.786778 Ha
C    -0.29823  -3.00494   1.90307
O    -0.08131  -2.17822   0.76589
C     1.16769  -1.61669   0.64450
O     2.08020  -1.98459   1.39644
C     1.27020  -0.65772  -0.40674
C     2.51318  -0.01814  -0.80663
C     3.78722  -0.59007  -0.55932
C     4.95857   0.05885  -0.94540
C     4.91694   1.29631  -1.60066
C     3.67112   1.87695  -1.85793
C     2.49409   1.23922  -1.46434
N     0.06490  -0.23927  -1.03591
C    -0.03279  -0.45319  -2.49121
C    -0.96263   0.19295  -0.32452
C    -0.77903   0.68611   1.05483
C     0.24662   1.59529   1.38006
C     0.36938   2.07331   2.68160
C    -0.51287   1.64061   3.68159
C    -1.53235   0.73977   3.36578
C    -1.67355   0.27288   2.05673
C    -2.33671   0.13790  -0.85284
C    -3.17666   1.26088  -0.73484
C    -4.48722   1.20732  -1.20694
C    -4.98314   0.02526  -1.76918
C    -4.16303  -1.10432  -1.85963
C    -2.84392  -1.05063  -1.40958
H     0.35487  -3.89107   1.88744
H    -0.12337  -2.45059   2.83825
H    -1.34851  -3.31992   1.85561
H     3.84705  -1.55430  -0.05849
H     5.92195  -0.41515  -0.73792
H     5.83895   1.79854  -1.90224
H     3.61097   2.84558  -2.36139
H     1.53905   1.73145  -1.65915
H    -0.27884  -1.50323  -2.69702
H    -0.78988   0.20643  -2.92955
H     0.94445  -0.23360  -2.93418
H     0.93599   1.93722   0.60806
H     1.15830   2.79009   2.92006
H    -0.40663   2.01300   4.70305
H    -2.22459   0.39945   4.13905
H    -2.46768  -0.43369   1.81092
H    -2.78993   2.17702  -0.28466
H    -5.12773   2.08859  -1.13031
H    -6.01378  -0.01795  -2.12860
H    -4.55427  -2.03420  -2.27809
H    -2.21216  -1.93840  -1.45780
