17
Generated by autodE on: 2022-10-23. E = -881.716539 Ha
C     2.81232   1.27040  -0.21500
O     1.94858   0.14877  -0.41937
C     0.70817   0.22066   0.08167
C    -0.20692  -0.75845   0.18779
Cl   -0.09933  -2.40395  -0.32336
C    -1.51797  -0.04885   0.57316
C    -1.96424   0.81198  -0.63727
C    -1.05429   1.78630  -0.71936
C    -0.07493   1.51146   0.44983
O    -0.98180   0.97989   1.43009
H     3.77918   0.99804  -0.65637
H     2.94540   1.47653   0.85886
H     2.42353   2.16814  -0.72075
H    -2.27790  -0.65980   1.07231
H    -2.81459   0.59333  -1.28218
H    -0.94616   2.58737  -1.44946
H     0.50363   2.35684   0.83474
