64
Generated by autodE on: 2022-10-23. E = -1976.470608 Ha. Imaginary frequency = -222.8 cm-1
C     0.89041  -2.71038   3.40458
O     0.74216  -2.30961   2.03622
C     1.32006  -1.15203   1.67463
O     2.03550  -0.51661   2.43053
C     1.12114  -0.85454   0.22817
C     2.41123  -1.13482  -0.47375
C     2.61471  -2.30843  -1.22867
C     3.85478  -2.58666  -1.80579
C     4.93415  -1.71786  -1.61707
C     4.76075  -0.57437  -0.83185
C     3.51762  -0.28836  -0.26396
C     0.73400   1.60716   0.27311
C     1.34786   2.11114  -1.04909
O     0.39428   1.62232  -2.00119
C    -0.74606   2.23558  -1.37805
C    -0.26861   3.70859  -1.35886
Cl   -1.39520   5.02710  -1.34887
C     1.05683   3.62995  -1.12611
O     2.05741   4.48083  -0.87550
C     1.75712   5.87713  -0.80259
C    -0.62213   1.70542   0.06227
C    -1.28893  -0.68990   0.19832
C    -1.54618  -0.72160   1.68665
C    -1.05394   0.18227   2.64594
C    -1.40198   0.06665   3.99529
C    -2.24628  -0.95494   4.43167
C    -2.73886  -1.86956   3.49635
C    -2.39890  -1.74784   2.14980
C    -2.55501  -0.87282  -0.57696
C    -3.51822   0.15271  -0.56219
C    -4.74374  -0.00295  -1.21249
C    -5.04134  -1.19432  -1.88161
C    -4.10508  -2.23276  -1.88124
C    -2.87924  -2.07674  -1.23130
N    -0.10230  -1.06378  -0.37105
C    -0.09610  -1.21599  -1.84443
H     1.94137  -2.95498   3.61861
H     0.26234  -3.59985   3.52951
H     0.55553  -1.91202   4.08014
H     1.79932  -3.02132  -1.35323
H     3.98101  -3.49944  -2.39323
H     5.90514  -1.93750  -2.06702
H     5.59829   0.10629  -0.66085
H     3.40222   0.60021   0.35502
H     1.26915   1.64087   1.21966
H     2.37437   1.82396  -1.29644
H    -1.67669   2.04069  -1.92294
H     2.70906   6.38755  -0.60928
H     1.05364   6.08311   0.01804
H     1.33204   6.23557  -1.75245
H    -1.39762   1.88532   0.79936
H    -0.38460   0.98747   2.36618
H    -1.00174   0.79070   4.70882
H    -2.51592  -1.03946   5.48685
H    -3.39631  -2.68264   3.81361
H    -2.79748  -2.47185   1.43850
H    -3.30297   1.08278  -0.03568
H    -5.46998   0.81330  -1.19572
H    -5.99981  -1.31640  -2.39144
H    -4.33245  -3.17681  -2.38240
H    -2.17196  -2.90708  -1.21897
H    -0.18843  -2.27429  -2.11524
H    -0.92501  -0.65695  -2.27938
H     0.83136  -0.81644  -2.25097
