20
Generated by autodE on: 2022-06-18. E = -457.715339 Ha
C    -3.01927   0.85951  -0.48670
N    -1.82220   0.18159  -0.01627
C    -1.93992  -1.04861   0.64312
C    -0.87536  -1.77934   1.01050
C     0.54802  -1.35209   0.74947
C     0.57579  -0.02565   0.00774
C     1.84707   0.60744  -0.37781
N     2.97401  -0.07125  -0.04607
O     1.91891   1.70204  -0.97295
C    -0.57229   0.63115  -0.32050
H    -3.49995   0.30751  -1.31246
H    -2.75289   1.86209  -0.84450
H    -3.74908   0.96266   0.33082
H    -2.96513  -1.36735   0.83995
H    -1.04858  -2.72517   1.52897
H     1.10601  -1.28173   1.70593
H     1.08231  -2.13781   0.17702
H     3.87247   0.32729  -0.29550
H     2.95450  -0.96471   0.42854
H    -0.52192   1.58088  -0.85552
