19
Generated by autodE on: 2022-06-16. E = -568.852196 Ha
C     1.35082  -2.64355  -0.00795
N     0.80048  -1.59593  -0.03263
C     0.12713  -0.43367  -0.02214
C    -1.33952  -0.56134  -0.12702
O    -1.86970  -1.68384  -0.21594
N    -2.03430   0.59834  -0.11866
C    -3.47483   0.66654  -0.21686
C     0.88056   0.79059   0.09909
O     0.39165   1.92183   0.12161
O     2.21196   0.58333   0.18600
C     3.03549   1.74605   0.32034
H     1.88623  -3.56968  -0.19005
H    -1.48639   1.45388  -0.03754
H    -3.78761   1.25029  -1.09806
H    -3.87811  -0.34862  -0.31063
H    -3.91637   1.13690   0.67718
H     2.98385   2.36779  -0.58618
H     2.72916   2.34675   1.18905
H     4.05828   1.37648   0.46161
