25
Generated by autodE on: 2022-06-16. E = -647.475286 Ha. Imaginary frequency = -372.0 cm-1
C    -2.53338  -2.27125   0.95930
N    -1.32130  -1.65417   0.46416
C    -1.35524  -0.47320  -0.18460
O    -2.42137   0.11148  -0.43864
C    -0.06092   0.14142  -0.57777
C     1.30846  -0.34551  -0.43044
O     2.28802   0.20599  -0.91049
O     1.40241  -1.45830   0.32595
C     2.72044  -1.96259   0.57596
C     0.14799   1.72799   1.54452
C     0.01831   2.93676   0.92298
C    -0.21199   2.45963  -1.26139
N    -0.17230   1.26649  -1.29042
H    -3.25530  -2.44441   0.14571
H    -3.03084  -1.64543   1.71928
H    -2.27857  -3.23676   1.41362
H    -0.41567  -2.06026   0.67656
H     2.58682  -2.85627   1.19643
H     3.32332  -1.21546   1.11221
H     3.22000  -2.22641  -0.36723
H     1.13057   1.30227   1.76212
H    -0.71659   1.20839   1.96380
H    -0.94591   3.45419   0.90710
H     0.89897   3.54693   0.69954
H    -0.30677   3.29615  -1.95842
