48
Generated by autodE on: 2022-10-22. E = -1442.443188 Ha
C    -3.53351   2.44338  -3.28459
N    -2.98299   1.45448  -2.37586
C    -1.77808   1.62089  -1.83156
O    -1.05039   2.59002  -1.98834
N    -1.36792   0.51771  -0.99303
N    -2.12404  -0.60058  -0.97723
N    -1.52929  -1.46623  -0.23619
C    -0.36739  -0.93887   0.25611
C    -0.24490   0.36718  -0.21223
C     0.80542   1.44858  -0.07191
C     1.64005   1.44275  -1.39072
C     2.98096   2.12562  -1.43630
O     1.25168   0.80385  -2.35049
C     0.09726   2.79798   0.25644
C     0.74660   4.09740  -0.11839
O    -0.91291   2.76695   0.93609
C     1.80427   1.22832   1.11309
C     1.25414   1.22138   2.54177
C     0.15185   0.22156   2.89176
C     0.44953  -1.25849   2.64935
C     0.51715  -1.75377   1.17710
O     1.88097  -1.73139   0.78586
C     2.23031  -2.02256  -0.56649
C     0.07840  -3.24892   1.18083
F     0.95095  -3.96187   1.91578
F    -1.13569  -3.44966   1.71370
F     0.07197  -3.79269  -0.04827
H    -3.50485   3.44409  -2.82981
H    -4.57535   2.17815  -3.49836
H    -2.97157   2.47699  -4.23157
H    -3.47070   0.57901  -2.20460
H     3.06253   3.01879  -0.80950
H     3.72568   1.39742  -1.07142
H     3.22026   2.36219  -2.48142
H     1.67688   4.22103   0.45894
H     0.06143   4.91702   0.13286
H     1.00062   4.13295  -1.18546
H     2.34349   0.29622   0.92068
H     2.54098   2.03901   1.05632
H     0.89686   2.22882   2.80776
H     2.12202   1.02712   3.19503
H    -0.05308   0.32612   3.96954
H    -0.78621   0.49892   2.38816
H    -0.34224  -1.82909   3.15315
H     1.40286  -1.54905   3.11628
H     3.18416  -1.51092  -0.75868
H     2.36650  -3.10462  -0.71975
H     1.48261  -1.64712  -1.27996
