11
Generated by autodE on: 2022-10-22. E = -372.988855 Ha
C    -2.71095  -0.44924  -0.76061
N    -1.65280   0.15371   0.02300
C    -0.35335  -0.11877  -0.16659
O     0.11909  -0.88914  -0.99455
N     0.45626   0.62698   0.75152
N     1.67163   0.44733   0.66002
N     2.79742   0.34760   0.65184
H    -2.26915  -1.15763  -1.47084
H    -3.41771  -0.99050  -0.11295
H    -3.26981   0.31462  -1.32358
H    -1.89522   0.82008   0.74965
