48
Generated by autodE on: 2022-10-22. E = -1442.314701 Ha. Imaginary frequency = -326.9 cm-1
C    -3.56487   2.43360  -3.46903
N    -2.85300   1.32669  -2.85467
C    -1.60942   1.49601  -2.37723
O    -0.99653   2.56357  -2.40356
N    -0.95494   0.39053  -1.79925
N    -1.45393  -0.75458  -1.68904
N    -1.31529  -1.73466  -1.09184
C     0.24656  -0.90830   0.33485
C     0.37854   0.26999  -0.03074
C     0.80469   1.67188   0.08556
C     1.61835   2.19790  -1.12662
C     2.13574   1.19732  -2.11644
O     1.91797   3.37458  -1.18620
C    -0.43384   2.54780   0.43391
C    -0.30618   4.04260   0.47856
O    -1.48016   1.99867   0.72724
C     1.81174   1.74781   1.29337
C     1.28850   1.25975   2.65357
C     1.60392  -0.19149   3.06194
C     0.59399  -1.30281   2.75365
C     0.65907  -1.92770   1.33906
O     1.98525  -2.39036   1.14852
C     2.47753  -2.53440  -0.17988
C    -0.25717  -3.18006   1.33731
F    -1.54464  -2.85606   1.53774
F    -0.18050  -3.87932   0.19403
F     0.09573  -4.02835   2.32033
H    -3.01781   2.82433  -4.34099
H    -4.54702   2.07524  -3.79924
H    -3.70901   3.25877  -2.75461
H    -3.30288   0.41868  -2.80182
H     2.75472   1.71029  -2.86320
H     1.30924   0.66251  -2.60220
H     2.73885   0.44284  -1.58623
H     0.59440   4.36569   1.01690
H    -1.20609   4.45126   0.95676
H    -0.22760   4.42859  -0.54743
H     2.70628   1.17244   1.00705
H     2.12465   2.79783   1.36584
H     0.20656   1.44863   2.74704
H     1.76460   1.90763   3.40555
H     1.70585  -0.19519   4.15832
H     2.59261  -0.48207   2.67270
H     0.77996  -2.12589   3.45810
H    -0.43467  -0.95312   2.92681
H     3.46305  -3.01102  -0.08752
H     1.83005  -3.16995  -0.80190
H     2.59993  -1.55581  -0.66983
