41
Generated by autodE on: 2022-05-31. E = -1620.231875 Ha. Imaginary frequency = -210.5 cm-1
C     2.65534   3.81584  -1.22182
N     1.64821   2.78956  -1.39014
C     1.76009   1.59091  -0.78876
O     2.72677   1.25991  -0.10191
N     0.54897   0.86741  -1.02952
O     0.47606  -0.43298  -0.89991
N     1.33307  -1.22404  -0.27477
C     2.67750  -1.12110  -0.64433
O     3.05555  -0.86633  -1.77253
O     3.44583  -1.55750   0.34943
C     4.85133  -1.64122   0.07037
C     0.91061  -0.32658   1.89835
C    -0.26908  -1.19830   2.39962
O    -0.99691  -0.22278   3.16738
C    -1.13092   0.72175   2.08253
C    -1.79851  -0.15640   0.99792
C    -2.66528   0.36555  -0.04955
C    -3.42001  -0.47808  -0.89252
C    -4.22126   0.05668  -1.90018
C    -4.28546   1.44079  -2.09646
C    -3.54364   2.28887  -1.26851
C    -2.74646   1.75960  -0.25370
C    -1.25341  -1.37110   1.23544
Cl   -1.42477  -2.86305   0.40431
C     0.34742   0.90149   1.70191
H     2.64375   4.22826  -0.19880
H     2.45977   4.62621  -1.93372
H     3.65746   3.40388  -1.41042
H     0.78926   2.99682  -1.89094
H     5.31848  -2.00836   0.99112
H     5.03920  -2.34022  -0.75705
H     5.24534  -0.64761  -0.18694
H     1.96110  -0.58191   1.99713
H    -0.01740  -2.09534   2.97339
H    -1.67436   1.61991   2.38866
H    -3.38639  -1.55728  -0.75075
H    -4.80214  -0.61383  -2.53789
H    -4.91227   1.85548  -2.88927
H    -3.58464   3.37089  -1.41357
H    -2.16601   2.43735   0.37383
H     0.83416   1.85908   1.54457
