36
Generated by autodE on: 2022-06-25. E = -788.358404 Ha
C    -2.52193  -2.66814  -0.57222
C    -1.14733  -2.01093  -0.59708
O    -0.17806  -2.72737  -0.97966
C    -1.05241  -0.65288  -0.19303
C    -2.26508   0.09100   0.24826
C    -2.43150   0.46669   1.59464
C    -3.57732   1.14510   2.01584
C    -4.58881   1.45200   1.09941
C    -4.44186   1.08002  -0.24069
C    -3.28895   0.41203  -0.66090
N     0.17658   0.03758  -0.14462
C     0.09633   1.50338   0.03637
C     1.35803  -0.53331  -0.32760
C     2.68248   0.05686  -0.22988
C     3.69468  -0.57728  -0.99086
C     5.01274  -0.13064  -0.95333
C     5.36547   0.94750  -0.13314
C     4.38699   1.56221   0.65492
C     3.06221   1.12785   0.61315
H    -3.12922  -2.36947   0.29322
H    -2.37479  -3.75743  -0.55850
H    -3.09431  -2.41454  -1.47933
H    -1.65210   0.21655   2.31847
H    -3.68584   1.42694   3.06614
H    -5.48800   1.97816   1.42884
H    -5.22559   1.31781  -0.96420
H    -3.17199   0.13545  -1.71108
H     0.96128   1.97126  -0.44129
H    -0.81594   1.86776  -0.44336
H     0.06947   1.76782   1.10003
H     1.29387  -1.58401  -0.60642
H     3.42469  -1.42557  -1.62428
H     5.77107  -0.62827  -1.56222
H     6.39970   1.29717  -0.09750
H     4.65879   2.38596   1.31908
H     2.33539   1.60149   1.27068
