36
Generated by autodE on: 2022-07-27. E = -788.358236 Ha
C    -2.33625  -1.78792   2.24370
C    -0.99023  -1.42615   1.62772
O     0.00822  -2.11838   1.97735
C    -0.95894  -0.34426   0.70804
C    -2.21446   0.39361   0.38597
C    -2.87176   0.20261  -0.84319
C    -4.06173   0.87403  -1.13357
C    -4.62428   1.74386  -0.19337
C    -3.98697   1.93894   1.03599
C    -2.79216   1.27203   1.31939
N     0.21475   0.04756   0.03581
C     0.11552   1.26402  -0.79926
C     1.38516  -0.56250   0.16309
C     2.62506  -0.31519  -0.55369
C     2.74269   0.15774  -1.88193
C     3.99607   0.29648  -2.47782
C     5.16076  -0.03143  -1.77602
C     5.06174  -0.52620  -0.47030
C     3.81300  -0.67816   0.12643
H    -3.15621  -1.78622   1.51158
H    -2.60881  -1.07664   3.04004
H    -2.24750  -2.78732   2.69228
H    -2.44247  -0.48543  -1.57556
H    -4.55651   0.71187  -2.09440
H    -5.55717   2.26664  -0.41793
H    -4.41910   2.61748   1.77564
H    -2.29108   1.43297   2.27678
H    -0.57075   1.96653  -0.31911
H     1.10169   1.72791  -0.87796
H    -0.26492   1.02190  -1.79894
H     1.38734  -1.34644   0.91840
H     1.85479   0.38314  -2.47018
H     4.06182   0.65651  -3.50723
H     6.13869   0.08449  -2.24870
H     5.96328  -0.79958   0.08289
H     3.73903  -1.07378   1.14216
