56
Generated by autodE on: 2022-06-25. E = -1246.063774 Ha. Imaginary frequency = -403.9 cm-1
C    -1.71154  -1.42449   2.95831
C    -0.51123  -0.68658   2.38784
O     0.62179  -1.08322   2.82753
C    -0.68916   0.32608   1.40046
C    -2.00646   0.98915   1.24139
C    -2.55968   1.27360  -0.02401
C    -3.81481   1.86944  -0.14921
C    -4.55502   2.20842   0.98827
C    -4.01115   1.96321   2.25339
C    -2.75184   1.37412   2.37589
C    -0.49422  -1.90268  -0.15108
N    -1.59823  -1.72505  -0.90790
C    -2.90520  -2.11757  -0.39176
C    -1.53000  -0.99082  -2.10323
C    -0.35050  -0.71917  -2.67934
C     0.91685  -1.29534  -2.12024
C     0.82964  -1.56481  -0.61471
C     1.88738  -2.55676  -0.16507
N     1.85214  -2.96939   1.11987
O     2.74431  -2.96125  -0.96230
C     1.45897  -0.00381   0.38495
C     2.70614   0.46885  -0.27424
C     2.76907   1.24899  -1.44678
C     3.99873   1.58067  -2.01951
C     5.19261   1.13193  -1.44706
C     5.14777   0.33972  -0.29629
C     3.91907   0.01075   0.27731
N     0.39855   0.84869   0.67115
C     0.28683   2.14632   0.01786
H    -1.79817  -1.21164   4.03653
H    -1.50768  -2.50465   2.86742
H    -2.66853  -1.20565   2.47430
H    -2.00471   1.01977  -0.92386
H    -4.21977   2.06519  -1.14532
H    -5.53975   2.67140   0.88984
H    -4.56547   2.24370   3.15256
H    -2.33057   1.21553   3.36994
H    -0.62992  -2.55227   0.70954
H    -2.78913  -2.97314   0.28568
H    -3.38037  -1.29058   0.15566
H    -3.55327  -2.41245  -1.22754
H    -2.49211  -0.68271  -2.51226
H    -0.32575  -0.16029  -3.61645
H     1.78183  -0.66175  -2.35170
H     1.13273  -2.25120  -2.63444
H     1.33178  -2.44194   1.83535
H     2.62980  -3.54414   1.43046
H     1.70239  -0.56948   1.27678
H     1.85729   1.59008  -1.93344
H     4.02120   2.18883  -2.92681
H     6.15204   1.39292  -1.89987
H     6.07246  -0.02443   0.15745
H     3.88994  -0.61410   1.17238
H     1.25997   2.65153   0.03594
H    -0.05162   2.07548  -1.02939
H    -0.42411   2.76943   0.56886
