26
Generated by autodE on: 2022-06-15. E = -5688.117398 Ha
Br    1.28948  -1.61016   1.44851
C    -0.12066  -0.72832   0.52088
Br   -1.81573  -1.54608   0.81247
C     0.06086   0.35834  -0.25812
C    -1.07932   1.10887  -0.85987
C    -2.08024   1.68111  -0.05860
C    -3.11219   2.42148  -0.63938
C    -3.15922   2.59443  -2.02630
C    -2.16065   2.03436  -2.83025
C    -1.12031   1.30591  -2.25041
C     1.41471   0.89651  -0.57827
C     1.70675   2.24234  -0.29896
C     2.95603   2.77585  -0.62113
C     3.91997   1.97852  -1.24740
C     3.62808   0.64449  -1.54874
C     2.38420   0.10469  -1.21439
H    -2.04255   1.55394   1.02467
H    -3.88102   2.86794  -0.00435
H    -3.96885   3.17101  -2.47982
H    -2.18863   2.17035  -3.91393
H    -0.33337   0.87972  -2.87658
H     0.94941   2.86854   0.17780
H     3.17566   3.82028  -0.38759
H     4.89464   2.39857  -1.50667
H     4.37129   0.02003  -2.05011
H     2.15773  -0.93481  -1.45752
