30
Generated by autodE on: 2022-07-27. E = -854.414896 Ha
C    -2.33927   3.35042  -1.29099
N    -2.08652   1.93028  -1.44628
C    -0.94184   1.37930  -1.01688
O    -0.01587   2.02319  -0.52630
C    -0.80395  -0.10205  -1.28038
C    -1.45669  -0.63017  -2.42512
N    -2.02805  -1.00648  -3.36919
N     0.07546  -0.85875  -0.62575
C     0.50292  -2.12781  -1.26170
C     0.48487  -0.56399   0.66194
C    -0.52651  -0.05100   1.58772
C    -0.23648   0.03704   3.06689
O    -1.65138   0.27333   1.18599
C     1.88520  -0.87648   0.96024
O     2.73015  -1.06432   0.09358
O     2.18716  -0.90056   2.26443
C     3.56552  -1.09666   2.60102
H    -3.28563   3.59679  -1.78658
H    -1.53077   3.93999  -1.74755
H    -2.40801   3.62856  -0.22670
H    -2.83785   1.33165  -1.77561
H    -0.39821  -2.67525  -1.56741
H     1.12206  -1.91120  -2.14042
H     1.05498  -2.73035  -0.53944
H    -1.14882   0.38995   3.56428
H     0.58439   0.74569   3.25033
H     0.07260  -0.93072   3.48288
H     3.91568  -2.07669   2.24589
H     3.61590  -1.05101   3.69515
H     4.18917  -0.30611   2.15888
