56
Generated by autodE on: 2022-06-15. E = -6542.474772 Ha. Imaginary frequency = -289.7 cm-1
C    -1.84251   3.83468  -0.83894
N    -1.22326   2.57170  -1.18757
C    -0.04349   2.20861  -0.65922
O     0.58631   2.94977   0.10609
C     0.52997   0.90505  -1.11054
C     0.15404   0.57461  -2.43868
N    -0.26235   0.36266  -3.50823
N     1.73821   0.44768  -0.60879
C     2.59847  -0.31623  -1.54188
C     1.93062   0.37495   0.75377
C     1.80531   1.65440   1.65154
C     2.97775   2.59279   1.45593
O     1.02822   1.78039   2.56588
C     3.16927  -0.34294   1.26741
O     4.09945  -0.78555   0.63020
O     3.09650  -0.40007   2.59375
C     4.14304  -1.09947   3.27690
C     0.31506  -1.04041   1.24493
Br    1.29689  -2.72858   0.92458
Br   -0.01121  -1.02915   3.16475
C    -0.79771  -0.79673   0.35938
C    -1.89206   0.16402   0.64182
C    -3.02575   0.18504  -0.20845
C    -4.08806   1.06091   0.00896
C    -4.05535   1.96157   1.07656
C    -2.92229   1.99567   1.89335
C    -1.85377   1.12704   1.67399
C    -1.17079  -1.93315  -0.56378
C    -0.47111  -2.32782  -1.71108
C    -0.86345  -3.45004  -2.44559
C    -1.95453  -4.21810  -2.03641
C    -2.64570  -3.85684  -0.87559
C    -2.25905  -2.73004  -0.15048
H    -2.85187   3.85941  -1.26487
H    -1.26323   4.68143  -1.24050
H    -1.91270   3.95060   0.25239
H    -1.77462   1.88935  -1.69807
H     2.23706  -0.15549  -2.56044
H     3.62291   0.05805  -1.46919
H     2.59256  -1.38702  -1.31260
H     3.32827   2.62152   0.41726
H     3.80503   2.24236   2.09580
H     2.68447   3.59654   1.78921
H     4.17783  -2.14682   2.94434
H     3.89183  -1.04713   4.34195
H     5.11328  -0.61898   3.08634
H    -3.07466  -0.48627  -1.06357
H    -4.94466   1.03987  -0.66870
H    -4.88863   2.64541   1.25252
H    -2.85679   2.71990   2.70884
H    -0.97031   1.22552   2.29472
H     0.40714  -1.78358  -2.03896
H    -0.30035  -3.72450  -3.34061
H    -2.25931  -5.09607  -2.61068
H    -3.49124  -4.45547  -0.52835
H    -2.80298  -2.46564   0.75767
