66
Generated by autodE on: 2022-12-31. E = -1774.361877 Ha
C   -41.24412 -12.04628   4.27836
N   -39.83990 -11.72051   4.10590
C   -38.88746 -12.48579   4.65925
O   -39.14928 -13.40519   5.44160
C   -37.40277 -12.10009   4.41363
C   -37.22232 -11.35397   3.05689
O   -37.88305 -11.69906   2.06920
N   -36.30833 -10.37792   3.02188
C   -35.89215  -9.70997   1.80433
C   -37.04074 -11.16937   5.61003
C   -37.29969 -11.65682   7.04053
C   -36.68095 -12.98778   7.47330
C   -35.16166 -13.12836   7.36827
C   -34.53906 -13.15998   5.95817
O   -33.37096 -13.96211   5.91616
C   -32.36412 -13.70972   6.88294
O   -34.17900 -11.84060   5.60010
C   -33.48672 -11.69496   4.36234
C   -35.46145 -13.81727   4.93309
C   -36.57778 -13.38197   4.28618
C   -36.89520 -14.46485   3.23370
C   -38.34407 -14.97849   3.29117
O   -39.24773 -14.52084   2.63123
O   -38.47313 -15.96301   4.16818
C   -39.80659 -16.44875   4.39913
C   -36.53334 -14.04730   1.78391
O   -37.09348 -14.46493   0.80028
O   -35.44576 -13.28877   1.76855
C   -34.93519 -12.91121   0.47965
N   -35.96346 -15.56824   3.48147
C   -35.18757 -15.17570   4.42859
C   -34.13978 -16.11736   4.95576
O   -33.19279 -16.50910   4.31078
O   -34.45252 -16.52847   6.18287
C   -33.50087 -17.38349   6.83688
H   -41.47951 -12.17231   5.34389
H   -41.85191 -11.22764   3.87335
H   -41.50660 -12.98035   3.75365
H   -39.58158 -11.15957   3.30056
H   -35.77517 -10.18436   3.86128
H   -35.87115  -8.62102   1.95729
H   -34.88560 -10.04064   1.50349
H   -36.60128  -9.94518   1.00303
H   -37.62143 -10.24727   5.46224
H   -35.98310 -10.90716   5.53640
H   -36.92016 -10.85909   7.70228
H   -38.38331 -11.71209   7.22581
H   -36.93925 -13.13866   8.53434
H   -37.16357 -13.81245   6.93071
H   -34.65567 -12.33097   7.93454
H   -34.89193 -14.08685   7.83459
H   -32.63689 -14.10902   7.87330
H   -31.45945 -14.22363   6.53028
H   -32.15195 -12.63250   6.97142
H   -34.02727 -12.17173   3.53099
H   -32.47193 -12.11851   4.41796
H   -33.41319 -10.61550   4.17221
H   -39.70669 -17.25722   5.13186
H   -40.24211 -16.82955   3.46493
H   -40.43127 -15.63967   4.80147
H   -35.68647 -12.32185  -0.06303
H   -34.04282 -12.30788   0.67708
H   -34.67263 -13.80706  -0.10031
H   -32.53592 -16.86558   6.93563
H   -33.36391 -18.31428   6.26873
H   -33.91978 -17.59910   7.82611
