42
Generated by autodE on: 2022-12-31. E = -957.543961 Ha
C    -3.34859   1.16988   3.22083
N    -2.79599   1.14659   1.88115
C    -1.57256   0.66498   1.63451
O    -0.83482   0.20967   2.51316
C    -1.14420   0.63209   0.13808
C    -1.64392   1.86752  -0.63401
O    -2.85605   2.11970  -0.69973
N    -0.71808   2.61755  -1.23925
C    -1.07328   3.77685  -2.03639
C     0.29198   0.40800   0.04911
C     1.35885  -0.14948  -0.08597
C     2.21755  -1.32955  -0.33027
O     2.60419  -1.24610  -1.68999
C     3.31220  -2.36651  -2.20897
O     3.33732  -1.40349   0.51763
C     4.24035  -0.31115   0.41809
C     1.33789  -2.55701  -0.00928
C    -0.01325  -2.61487  -0.74782
C    -1.26390  -2.00560  -0.05320
C    -1.78617  -0.64020  -0.53998
H    -3.40609   0.15473   3.64442
H    -4.35937   1.59368   3.18005
H    -2.73343   1.78367   3.89821
H    -3.31305   1.53275   1.09061
H     0.25660   2.33909  -1.17291
H    -0.15409   4.28603  -2.34936
H    -1.68930   4.47709  -1.45257
H    -1.64321   3.48684  -2.93354
H     4.10042  -2.70460  -1.51804
H     2.63812  -3.21080  -2.42986
H     3.78041  -2.03453  -3.14609
H     4.72968  -0.27268  -0.56847
H     3.72221   0.64880   0.59334
H     5.00330  -0.45405   1.19509
H     1.18316  -2.55769   1.08002
H     1.93543  -3.45128  -0.24129
H     0.10431  -2.18289  -1.75584
H    -0.22807  -3.68176  -0.91114
H    -1.11117  -1.98055   1.03809
H    -2.09501  -2.70884  -0.21649
H    -2.86990  -0.57105  -0.37156
H    -1.62208  -0.54624  -1.62502
