66
Generated by autodE on: 2022-12-31. E = -1774.247172 Ha. Imaginary frequency = -281.5 cm-1
C   -41.28166 -12.91591   4.39476
N   -40.01743 -12.22195   4.25390
C   -38.86374 -12.77635   4.63788
O   -38.78814 -13.84143   5.26146
C   -37.57533 -11.95448   4.37185
C   -37.59331 -11.10217   3.08031
O   -38.63020 -10.57539   2.65417
N   -36.39931 -10.86621   2.52261
C   -36.26640 -10.04500   1.33427
C   -37.42424 -10.91444   5.54953
C   -37.48790 -11.44725   6.98646
C   -36.44071 -12.47660   7.45963
C   -34.98430 -12.15520   7.08260
C   -34.36990 -13.09933   6.02645
O   -34.08913 -14.38950   6.52504
C   -33.20327 -14.48352   7.63182
O   -33.20562 -12.44385   5.57799
C   -32.45857 -13.08504   4.55318
C   -35.36805 -13.28970   4.92281
C   -36.40981 -12.84769   4.43009
C   -36.67063 -14.65577   2.41588
C   -38.09276 -15.01808   2.55842
O   -39.01483 -14.40778   2.04931
O   -38.24365 -16.10880   3.31860
C   -39.58655 -16.53625   3.58523
C   -36.19533 -13.81073   1.30208
O   -36.91435 -13.23853   0.50516
O   -34.85675 -13.74869   1.27765
C   -34.25557 -12.99368   0.21664
N   -35.77121 -15.32927   3.11304
C   -35.01110 -15.36921   4.03526
C   -33.98530 -16.29506   4.56235
O   -32.83934 -16.28386   4.17621
O   -34.51090 -17.10167   5.46632
C   -33.61852 -18.06202   6.06819
H   -41.36695 -13.35579   5.39796
H   -42.10241 -12.20176   4.24931
H   -41.38138 -13.72571   3.65286
H   -39.92785 -11.42568   3.61642
H   -35.59157 -11.38360   2.85897
H   -35.20432  -9.82640   1.17044
H   -36.66881 -10.55909   0.44747
H   -36.80966  -9.09802   1.46377
H   -38.22568 -10.17187   5.41842
H   -36.47303 -10.38960   5.37989
H   -37.40127 -10.55175   7.62559
H   -38.49146 -11.85709   7.18382
H   -36.52613 -12.53938   8.55556
H   -36.70772 -13.47511   7.08501
H   -34.32715 -12.17629   7.96334
H   -34.90024 -11.14139   6.66735
H   -32.31794 -13.84249   7.49900
H   -32.88101 -15.53239   7.68440
H   -33.70313 -14.21996   8.57856
H   -33.07636 -13.26481   3.65626
H   -32.03357 -14.04059   4.89226
H   -31.64174 -12.40031   4.28719
H   -39.49502 -17.47850   4.13785
H   -40.10666 -15.78751   4.19728
H   -40.13440 -16.69937   2.64634
H   -34.62165 -13.34233  -0.75926
H   -34.47441 -11.92382   0.33081
H   -33.17673 -13.16692   0.30184
H   -33.27152 -18.77827   5.31045
H   -34.20837 -18.57171   6.83731
H   -32.75832 -17.54746   6.51730
