40
Generated by autodE on: 2022-06-19. E = -1023.768964 Ha
C    -5.05188  -1.05338  -0.32679
N    -3.72709  -0.47036  -0.33788
C    -2.77387  -0.78348  -1.22428
O    -2.89516  -1.61785  -2.12952
C    -1.43296  -0.07108  -1.03967
C    -0.38072  -1.02282  -0.39436
C    -0.08283  -0.36889   0.96531
C     1.25921  -0.71586   1.59568
C     2.35924  -0.76462   0.56818
C     3.73373  -0.55553   1.03165
N     4.71253  -0.35798   0.10568
O     4.00814  -0.57074   2.24758
C     2.05492  -1.04544  -0.73007
N     0.79937  -1.16271  -1.24239
C     0.60340  -1.90437  -2.47860
C    -0.33838   1.14387   0.68507
C     0.81806   1.83030   0.03566
N     1.63658   2.42741  -0.52809
C    -0.62622   1.86680   1.94021
N    -0.86377   2.41547   2.93279
N    -1.51084   1.10815  -0.17263
C    -1.90093   2.34965  -0.82481
H    -5.13839  -1.75332  -1.16667
H    -5.82403  -0.27542  -0.43001
H    -5.23471  -1.60088   0.61123
H    -3.47932   0.24035   0.34646
H    -1.09686   0.20840  -2.05154
H    -0.81674  -2.02091  -0.22920
H    -0.89894  -0.65737   1.63946
H     1.49734   0.01247   2.38602
H     1.15799  -1.68806   2.10747
H     4.49685  -0.08067  -0.84393
H     5.64627  -0.16216   0.45031
H     2.84242  -1.19171  -1.47399
H     0.47767  -2.98539  -2.28398
H    -0.29582  -1.55340  -3.00161
H     1.47184  -1.76259  -3.13607
H    -2.01106   3.14715  -0.07532
H    -2.87380   2.20570  -1.31411
H    -1.17066   2.67539  -1.58960
