20
Generated by autodE on: 2022-06-19. E = -457.715330 Ha
C    -3.09188  -0.69111   0.21655
N    -1.83093  -0.00127  -0.00151
C    -1.82223   1.39116  -0.15263
C    -0.68816   2.10192  -0.25655
C     0.68418   1.47557  -0.22019
C     0.57609  -0.02693  -0.01778
C     1.77494  -0.87540   0.07709
N     2.96754  -0.23683  -0.02692
O     1.73120  -2.11116   0.24544
C    -0.63366  -0.64675   0.07972
H    -3.82103  -0.41505  -0.56040
H    -3.52457  -0.44427   1.20117
H    -2.92588  -1.77474   0.16885
H    -2.80947   1.85585  -0.18234
H    -0.76315   3.18485  -0.37906
H     1.29222   1.94025   0.58272
H     1.23570   1.71115  -1.15392
H     3.81849  -0.78547   0.03045
H     3.04395   0.76151  -0.17383
H    -0.68081  -1.72671   0.22796
