20
Generated by autodE on: 2022-06-19. E = -566.000292 Ha
C     4.28556  -0.10793   0.68676
N     2.97734   0.25695   0.18430
C     1.86180  -0.36813   0.61780
O     1.90800  -1.27285   1.46356
C     0.63974   0.16374  -0.02842
N    -0.59437  -0.25716   0.12401
C    -0.94624  -1.39586   1.00277
C    -1.67060   0.33273  -0.53469
C    -1.46671   1.43124  -1.38984
N    -1.29596   2.34516  -2.09867
C    -2.97547  -0.16086  -0.35449
N    -4.07394  -0.54243  -0.23023
H     4.51495  -1.16317   0.46831
H     4.34375   0.02988   1.77819
H     5.03893   0.52748   0.20671
H     2.90397   0.99259  -0.51129
H     0.77405   1.00347  -0.71207
H    -0.03631  -1.77581   1.46726
H    -1.42603  -2.16799   0.38859
H    -1.65203  -1.03847   1.76281
