65
Generated by autodE on: 2022-06-13. E = -1591.495396 Ha
C     2.29549   1.60718   3.34573
O     2.12024   1.17636   1.98767
C     1.13009   0.31971   1.75377
O     0.45922  -0.15854   2.64531
C     0.94679   0.00840   0.23768
C     2.29311  -0.44576  -0.34565
C     3.25588  -1.09306   0.44237
C     4.45628  -1.54301  -0.11329
C     4.72197  -1.34505  -1.47040
C     3.77645  -0.68857  -2.26306
C     2.57644  -0.24381  -1.70486
N     0.45449   1.18597  -0.47574
C     1.31148   2.36343  -0.60484
C    -0.98075   1.34092  -0.40978
C    -1.36166   2.29945   0.80554
C    -2.71571   2.94584   0.91159
O    -0.48340   2.57344   1.59817
C    -1.59582   1.98596  -1.68768
C    -0.72541   2.51390  -2.79448
O    -2.80734   2.08242  -1.76019
C    -1.54477  -0.15930  -0.24596
C    -2.66917  -0.17394   0.79316
O    -3.82479  -0.45015   0.54122
O    -2.28897   0.28271   1.98420
C    -3.26332   0.30796   3.02964
C    -2.04120  -0.79226  -1.58455
C    -2.46760  -2.27211  -1.38270
C    -1.12005  -3.03311  -1.29440
C    -0.09618  -1.88150  -1.27775
C    -0.72085  -0.97160  -2.34597
C    -0.23695  -1.02774   0.05244
C    -0.41507  -2.05713   1.17706
C     0.75129  -2.94321   1.53962
O    -1.52086  -2.28775   1.63991
H     3.14006   2.30532   3.33257
H     1.38630   2.11197   3.70125
H     2.51971   0.74803   3.99354
H     3.08562  -1.25123   1.50705
H     5.18812  -2.04564   0.52323
H     5.66193  -1.69278  -1.90522
H     3.97138  -0.51845  -3.32448
H     1.84949   0.26366  -2.33532
H     1.84430   2.37968  -1.56815
H     0.72001   3.28345  -0.53536
H     2.05828   2.40746   0.19462
H    -2.87101   3.25568   1.95317
H    -3.53807   2.31525   0.55948
H    -2.70731   3.84792   0.27737
H     0.17607   1.91719  -2.96575
H    -0.40332   3.53328  -2.52678
H    -1.33141   2.57280  -3.70802
H    -4.13291   0.91397   2.73992
H    -2.76011   0.75050   3.89683
H    -3.58900  -0.71688   3.26046
H    -2.81967  -0.20032  -2.06884
H    -3.05339  -2.59124  -2.25678
H    -3.09395  -2.41856  -0.49816
H    -0.93837  -3.63468  -2.19672
H    -1.06129  -3.71887  -0.44064
H     0.93249  -2.21091  -1.44665
H    -0.85554  -1.49628  -3.30295
H    -0.16714  -0.04981  -2.52520
H     0.35856  -3.87889   1.95894
H     1.39476  -3.15476   0.67605
H     1.36596  -2.45302   2.30657
