37
Generated by autodE on: 2022-07-27. E = -937.908115 Ha
C    -1.84665  -1.84288   2.27250
O    -1.07917  -1.43997   1.11902
C    -0.22804  -0.44703   1.28783
O     0.02504   0.10922   2.33381
C     0.52403  -0.13562   0.00551
C     1.66552  -0.99122  -0.31850
C     2.51347  -1.42040   0.72254
C     3.58650  -2.26231   0.44082
C     3.80034  -2.71197  -0.86674
C     2.93938  -2.31756  -1.89653
C     1.87833  -1.45457  -1.63191
N     0.09677   0.88242  -0.67535
C     0.75037   1.40371  -1.87965
C    -1.21487   1.42185  -0.35525
C    -1.28675   2.62403   0.41898
C     0.01758   3.20877   0.93846
O    -2.36042   3.18483   0.71806
C    -2.28335   0.66240  -0.93905
C    -3.71102   1.11289  -0.72204
O    -2.06104  -0.36427  -1.61579
H    -1.17355  -2.18895   3.06879
H    -2.49097  -2.65871   1.92856
H    -2.45079  -0.99802   2.63090
H     2.34262  -1.07404   1.74304
H     4.25425  -2.57516   1.24581
H     4.63586  -3.38152  -1.08253
H     3.09243  -2.68759  -2.91220
H     1.19111  -1.17775  -2.43063
H     1.82270   1.17888  -1.87614
H     0.58802   2.48709  -1.90511
H     0.26815   0.95681  -2.76056
H     0.47979   2.51825   1.66146
H     0.75008   3.37971   0.13469
H    -0.19730   4.16259   1.43795
H    -4.37835   0.40797  -1.23699
H    -3.95384   1.14340   0.35062
H    -3.87088   2.13106  -1.10591
