37
Generated by autodE on: 2022-06-13. E = -937.905757 Ha
C     1.41273   3.25049   1.07177
O     1.35060   1.93542   0.49591
C     0.31313   1.18568   0.83948
O    -0.54241   1.51327   1.63285
C     0.38534  -0.18029   0.19457
C     1.71358  -0.77555  -0.01255
C     2.66389  -0.74551   1.02526
C     3.92737  -1.30073   0.83046
C     4.26464  -1.86219  -0.40601
C     3.33236  -1.87076  -1.44885
C     2.05909  -1.33740  -1.25503
N    -0.73501  -0.81884  -0.05089
C    -0.74471  -2.25680  -0.37002
C    -1.94268  -0.10596  -0.30412
C    -3.14802  -0.45398   0.39985
C    -3.04199  -1.33937   1.63214
O    -4.27066  -0.01103   0.09503
C    -1.80087   0.98380  -1.23801
C    -3.03188   1.62846  -1.82902
O    -0.67755   1.41354  -1.57566
H     0.52875   3.83253   0.77457
H     2.32476   3.70872   0.67409
H     1.46170   3.18453   2.16777
H     2.40514  -0.30209   1.98895
H     4.65449  -1.28978   1.64512
H     5.25941  -2.28652  -0.55953
H     3.59915  -2.29191  -2.42046
H     1.33985  -1.32620  -2.07494
H    -1.70138  -2.67515  -0.04334
H    -0.66205  -2.39610  -1.45588
H     0.07795  -2.76656   0.14262
H    -2.02951  -1.40586   2.05078
H    -3.72210  -0.92945   2.39313
H    -3.39768  -2.35551   1.39498
H    -3.56743   2.18916  -1.04694
H    -3.73929   0.88881  -2.22551
H    -2.71187   2.32189  -2.61848
