28
Generated by autodE on: 2022-06-13. E = -653.567865 Ha
C     3.14622   2.26514   0.31391
O     2.32363   1.22079  -0.22149
C     1.04424   1.19385   0.18132
O     0.57897   2.01158   0.95961
C     0.30235   0.07472  -0.41901
C    -0.98460  -0.25609  -0.14592
C    -1.96842   0.39391   0.76207
C    -2.51036   1.73766   0.37371
O    -2.37144  -0.22576   1.73849
C    -1.22424  -1.63405  -0.74602
C    -0.39964  -2.61901   0.15009
C     1.07149  -2.24043  -0.17681
C     0.90950  -1.07458  -1.20686
C    -0.32571  -1.55234  -1.99580
H     2.75244   3.25120   0.02727
H     4.14350   2.11585  -0.11580
H     3.19064   2.19719   1.41074
H    -3.20067   1.58550  -0.47496
H    -1.70927   2.40557   0.03141
H    -3.06491   2.18287   1.21127
H    -2.27718  -1.90927  -0.87888
H    -0.65842  -2.50050   1.21054
H    -0.62566  -3.65453  -0.14400
H     1.60836  -3.07980  -0.64247
H     1.64265  -1.91996   0.70587
H     1.81669  -0.83235  -1.77080
H    -0.17986  -2.52825  -2.48266
H    -0.67856  -0.81526  -2.73194
