65
Generated by autodE on: 2022-06-13. E = -1591.430855 Ha. Imaginary frequency = -229.3 cm-1
C    -0.20421   0.78479   3.77880
O     0.12051   0.89451   2.38619
C     1.08029   0.12244   1.89778
O     1.70376  -0.65917   2.59238
C     1.32491   0.30267   0.42748
C     2.66660  -0.17276  -0.02330
C     3.79543  -0.08035   0.81632
C     5.04968  -0.50432   0.37653
C     5.20728  -1.03244  -0.90763
C     4.10143  -1.10906  -1.75919
C     2.85016  -0.67377  -1.32595
N     0.74800   1.31476  -0.30788
C     1.62227   2.07491  -1.23986
C    -0.61575   1.65675  -0.20503
C    -1.03276   2.46861   1.01747
C    -0.02893   3.50110   1.47804
O    -2.17218   2.47722   1.44657
C    -1.25681   2.22669  -1.45101
C    -2.62123   2.86011  -1.33988
O    -0.71761   2.14581  -2.54724
C    -1.52294  -0.37468  -0.20850
C    -2.70906  -0.12230   0.67481
O    -3.81441   0.10546   0.20154
O    -2.50348  -0.19091   1.98029
C    -3.62555   0.06111   2.82916
C    -1.91715  -0.60291  -1.68056
C    -2.55080  -2.02454  -1.75254
C    -1.32968  -2.96279  -1.55829
C    -0.15850  -1.95225  -1.35553
C    -0.55984  -0.85858  -2.34621
C    -0.41658  -1.29926   0.01468
C    -0.15627  -2.20620   1.16646
C     0.96955  -3.20490   0.98345
O    -0.77920  -2.20698   2.22324
H     0.65093   1.11296   4.38595
H    -1.06090   1.44929   3.93402
H    -0.46760  -0.25000   4.02707
H     3.70145   0.33887   1.81606
H     5.90987  -0.41736   1.04406
H     6.18853  -1.37216  -1.24693
H     4.21161  -1.50548  -2.77088
H     2.01181  -0.71436  -2.01406
H     1.74023   1.60095  -2.21886
H     1.19976   3.07380  -1.37477
H     2.60463   2.17682  -0.76507
H     1.00922   3.15563   1.42605
H    -0.27810   3.82296   2.49811
H    -0.13135   4.36963   0.80388
H    -2.98881   3.04302  -2.35736
H    -2.55152   3.81929  -0.80295
H    -3.32546   2.22590  -0.78758
H    -4.43775  -0.64930   2.61833
H    -3.99004   1.08753   2.68531
H    -3.26334  -0.07260   3.85488
H    -2.55560   0.17232  -2.11111
H    -3.01411  -2.16316  -2.74041
H    -3.33326  -2.17001  -0.99645
H    -1.13674  -3.56947  -2.45583
H    -1.44938  -3.65264  -0.71144
H     0.83074  -2.40007  -1.47891
H    -0.66144  -1.23623  -3.37418
H     0.09954   0.01057  -2.35357
H     0.63192  -4.03657   0.34471
H     1.84860  -2.75495   0.50310
H     1.24061  -3.60745   1.96758
