63
Generated by autodE on: 2022-06-12. E = -1520.190669 Ha
C    -4.10109  -0.04244  -2.24108
N    -2.91743  -0.65821  -1.67648
C    -2.44264  -0.29202  -0.47872
O    -3.06341   0.43715   0.29930
C    -1.03009  -0.80997  -0.10835
C    -1.12030  -1.61902   1.20539
O    -0.16658  -1.97896   1.86259
O    -2.35901  -2.04513   1.44939
C    -2.52879  -2.94877   2.55341
N    -0.47010  -1.72415  -1.11561
C    -1.01964  -3.07998  -1.15633
C     0.98865  -1.71689  -0.96902
C     1.72623  -2.27555  -2.17632
C     1.37016  -0.25938  -0.64178
F     1.72710   0.37784  -1.83741
C     2.62082  -0.20269   0.23155
C     3.78255   0.41397  -0.25644
C     4.94275   0.47059   0.52222
C     4.96276  -0.09061   1.80056
C     3.81204  -0.71788   2.28832
C     2.65442  -0.77687   1.51106
C     0.00233   0.42069  -0.10325
C     0.18243   1.12579   1.24358
C     1.23885   2.04588   1.37423
C     1.44227   2.75945   2.55339
C     0.57606   2.58539   3.63827
C    -0.50595   1.71497   3.50785
C    -0.70471   1.00289   2.31894
C    -0.52228   1.46541  -1.13405
C    -0.97206   2.72911  -0.72135
C    -1.52155   3.64169  -1.62848
C    -1.64472   3.30993  -2.97725
C    -1.21556   2.04961  -3.40483
C    -0.66443   1.14463  -2.49817
H    -3.90937   1.00771  -2.52126
H    -4.92422  -0.06055  -1.51358
H    -4.40428  -0.59927  -3.13654
H    -2.25973  -1.11701  -2.29954
H    -1.95014  -3.86802   2.38555
H    -2.20061  -2.47088   3.48716
H    -3.60047  -3.17292   2.59439
H    -0.73967  -3.56026  -2.10349
H    -2.11364  -3.05715  -1.10132
H    -0.64191  -3.71353  -0.32975
H     1.26698  -2.32511  -0.08999
H     1.43029  -1.76285  -3.10206
H     1.52960  -3.35082  -2.28917
H     2.81029  -2.14920  -2.03726
H     3.78116   0.86442  -1.24741
H     5.83451   0.95932   0.12229
H     5.86763  -0.04303   2.41108
H     3.81150  -1.16363   3.28599
H     1.76132  -1.25512   1.90551
H     1.90576   2.22207   0.53190
H     2.27874   3.45887   2.62202
H     0.73425   3.13767   4.56757
H    -1.21439   1.58885   4.32993
H    -1.59850   0.38964   2.23513
H    -0.91436   3.01783   0.32573
H    -1.86011   4.61557  -1.26680
H    -2.07403   4.02036  -3.68769
H    -1.31007   1.76330  -4.45504
H    -0.35559   0.16727  -2.85835
