27
Generated by autodE on: 2022-07-27. E = -648.764520 Ha
C     2.25316  -1.91629  -2.44775
C     1.24916  -1.55681  -1.42174
N     1.28486  -0.45807  -0.73258
C     2.39217   0.49448  -0.92808
C     0.14345  -0.04962   0.02800
C    -1.11868  -0.05191  -0.71098
O    -1.19567  -0.47267  -1.89053
N    -2.23221   0.42176  -0.09450
C    -3.50064   0.48804  -0.78396
C     0.42700   0.37150   1.35700
O     1.53591   0.31978   1.90504
O    -0.65276   0.86653   2.04420
C    -0.42200   1.27589   3.39124
H     2.33870  -1.12212  -3.20870
H     1.98087  -2.86022  -2.93471
H     3.25155  -2.02627  -1.98973
H     0.42071  -2.23145  -1.20362
H     3.35662  -0.01031  -0.78681
H     2.29463   1.30752  -0.20632
H     2.34082   0.89690  -1.95055
H    -2.13453   0.80521   0.83906
H    -3.79358  -0.49536  -1.18570
H    -3.48409   1.19705  -1.63025
H    -4.27188   0.81736  -0.07538
H    -0.06211   0.43684   4.00583
H     0.31348   2.09323   3.43783
H    -1.38986   1.62584   3.77162
