36
Generated by autodE on: 2022-06-12. E = -871.401307 Ha
F    -0.66255  -2.38173  -0.15807
C    -0.69152  -1.02957  -0.00763
C     0.48257  -0.35529  -0.03783
C     0.49943   1.13323  -0.08960
C    -0.19480   1.82914  -1.09312
C    -0.17288   3.22462  -1.13566
C     0.54771   3.94591  -0.17813
C     1.25626   3.26153   0.81545
C     1.23801   1.86585   0.85513
C     1.79500  -1.04922  -0.07893
C     2.04384  -2.22898   0.65033
C     3.29507  -2.84542   0.60525
C     4.32541  -2.30127  -0.16896
C     4.09450  -1.12746  -0.89304
C     2.84614  -0.50514  -0.84296
C    -2.06615  -0.53127   0.15155
C    -2.36566   0.58230   0.95997
C    -3.68221   1.01883   1.09883
C    -4.72266   0.35162   0.44162
C    -4.43733  -0.76704  -0.34691
C    -3.12143  -1.21041  -0.48689
H    -0.75561   1.26707  -1.84255
H    -0.71748   3.75137  -1.92298
H     0.56363   5.03790  -0.21030
H     1.82539   3.81793   1.56410
H     1.79202   1.33386   1.63177
H     1.25436  -2.65935   1.26694
H     3.46847  -3.75537   1.18496
H     5.30375  -2.78638  -0.20296
H     4.89170  -0.69149  -1.50001
H     2.67754   0.41278  -1.40918
H    -1.56606   1.09877   1.49047
H    -3.89941   1.88183   1.73247
H    -5.75283   0.69808   0.55185
H    -5.24387  -1.29884  -0.85699
H    -2.90387  -2.08528  -1.10139
