30
Generated by autodE on: 2022-06-09. E = -742.281182 Ha
C     3.83320  -0.45317   3.02023
N     2.51896  -0.20221   2.46565
C     2.34460  -0.00336   1.14460
O     3.27918  -0.01812   0.33550
C     0.92092   0.22928   0.78237
N     0.47673   0.50204  -0.41393
C     1.38487   0.72462  -1.55987
C    -0.90747   0.35578  -0.67003
C    -1.62572   1.35287  -1.39413
C    -0.98565   2.69898  -1.68436
O    -2.81849   1.20071  -1.76727
C    -1.49194  -0.91158  -0.17531
O    -0.84423  -1.73180   0.51136
N    -2.76950  -1.15249  -0.53513
C    -3.44255  -2.37759  -0.17069
H     4.51786   0.38233   2.80467
H     3.74372  -0.57174   4.10625
H     4.27421  -1.36865   2.59450
H     1.71512  -0.18896   3.08571
H     0.17760   0.16952   1.57513
H     1.90720  -0.21470  -1.77958
H     2.12024   1.49881  -1.31949
H     0.78384   1.00888  -2.42575
H    -0.71827   2.76014  -2.75200
H    -0.09440   2.92227  -1.08492
H    -1.74503   3.47259  -1.49736
H    -3.20367  -0.43918  -1.12832
H    -4.50051  -2.30060  -0.45331
H    -3.38160  -2.55983   0.91429
H    -3.01202  -3.25863  -0.67791
