21
Generated by autodE on: 2022-06-09. E = -5551.595274 Ha
N     0.04323  -2.30918  -4.42425
C    -0.47545  -2.30066  -3.38671
C    -1.16019  -2.26877  -2.08633
C    -0.28680  -1.71207  -1.05444
C     0.15036  -0.88365  -0.28537
C     0.21289   0.39188   0.37209
Br   -0.56545   0.21694   2.20615
Br    2.09143   1.01783   0.56697
C    -0.59218   1.41525  -0.44911
C    -2.00229   0.96434  -0.88455
C    -2.15305   0.16469  -2.20983
C    -2.42550  -1.35113  -2.13285
H    -1.46665  -3.30307  -1.85843
H    -0.65329   2.34061   0.14163
H     0.00939   1.64181  -1.34389
H    -2.57356   1.89690  -1.00528
H    -2.49459   0.42635  -0.05778
H    -3.01707   0.59406  -2.73868
H    -1.28674   0.35531  -2.86689
H    -3.01708  -1.58565  -1.23496
H    -3.01851  -1.66974  -3.00339
