51
Generated by autodE on: 2022-06-09. E = -6293.858520 Ha. Imaginary frequency = -269.2 cm-1
C    -4.12038  -4.46258   4.30921
N    -4.99099  -3.89519   3.29981
C    -6.03523  -3.10331   3.64934
O    -6.36067  -2.94553   4.82663
C    -6.64297  -2.43093   2.45920
C    -5.60024  -0.56816   2.95420
C    -6.30678   0.08518   3.74937
C    -6.30503   1.18494   4.69930
Br   -6.81295   0.52561   6.51950
Br   -7.62498   2.58843   4.17394
C    -4.93149   1.86724   4.81789
C    -3.76705   0.87514   5.00845
C    -2.80969   0.77235   3.81028
C    -3.41223   0.57784   2.41598
C    -4.29129  -0.68791   2.24962
C    -4.48827  -0.97143   0.82116
N    -4.63570  -1.17910  -0.31084
C    -8.58212  -1.37139   3.37865
C    -9.47537  -0.20602   3.20837
C   -10.31855   0.21913   4.38887
O    -9.55131   0.43271   2.15748
C    -8.86551  -2.31199   4.52344
O    -9.07369  -1.95548   5.68136
N    -9.06827  -3.60345   4.14028
C    -9.18545  -4.64820   5.13644
N    -7.86522  -1.86822   2.31630
C    -8.15160  -1.45488   0.92373
H    -3.60021  -3.67540   4.88105
H    -3.37304  -5.09757   3.81821
H    -4.69424  -5.07415   5.02156
H    -4.69991  -3.93502   2.32837
H    -6.22382  -2.76990   1.51251
H    -4.98695   2.59112   5.64209
H    -4.78978   2.45287   3.89738
H    -3.17530   1.18314   5.88370
H    -4.16369  -0.11982   5.25953
H    -2.20722   1.69512   3.76089
H    -2.09907  -0.04801   4.00657
H    -4.01374   1.44877   2.11384
H    -2.58429   0.50275   1.69429
H    -3.74838  -1.55736   2.66241
H    -9.70509   0.36458   5.28593
H   -10.83159   1.14992   4.11606
H   -11.06331  -0.55650   4.62824
H    -8.80408  -3.88069   3.20212
H   -10.04105  -4.46195   5.80253
H    -9.33934  -5.60915   4.62929
H    -8.27791  -4.71603   5.76053
H    -9.22957  -1.45808   0.74828
H    -7.75333  -0.45063   0.73590
H    -7.66445  -2.17465   0.25714
