38
Generated by autodE on: 2022-10-06. E = -834.876468 Ha
C    -3.32354  -2.69117  -0.05683
N    -2.48809  -1.51011  -0.20563
C    -1.26461  -1.45324   0.31461
O    -0.73994  -2.35246   0.97435
C    -0.45937  -0.15808   0.03356
C    -1.18657   1.07633   0.62102
O    -1.06520   1.33243   1.82039
N    -1.93744   1.75242  -0.24661
C    -2.71815   2.91192   0.14422
N    -0.11120  -0.00883  -1.35306
C     1.18371   0.68242  -1.34699
C     1.87627   0.64766  -2.69374
C     1.97289   0.02999  -0.17329
N     2.48428  -1.26019  -0.56981
N     2.84820   0.98660   0.44752
C     3.87062   0.44875   1.33788
N     0.83400  -0.28681   0.80208
H    -3.48524  -2.92051   1.00688
H    -2.85521  -3.56616  -0.53288
H    -4.29070  -2.49781  -0.53446
H    -2.84042  -0.72280  -0.74123
H    -1.85524   1.49145  -1.22697
H    -3.25537   2.70562   1.08053
H    -3.44469   3.13536  -0.64613
H    -2.07597   3.79392   0.29979
H     0.00738  -0.92874  -1.78226
H     1.00788   1.72852  -1.05305
H     2.86864   1.11809  -2.62518
H     1.99838  -0.38373  -3.05711
H     1.28444   1.20670  -3.43233
H     2.94375  -1.71810   0.21966
H     3.20118  -1.12823  -1.28430
H     3.27465   1.55642  -0.28221
H     4.58327  -0.23938   0.84757
H     3.40003  -0.09009   2.17505
H     4.44426   1.28247   1.76603
H     0.86075  -1.26012   1.15950
H     0.81534   0.36163   1.60366
