25
Generated by autodE on: 2022-10-06. E = -589.577881 Ha
C    -2.24188  -3.34355  -0.11687
C    -1.03911  -2.47996  -0.18836
N    -1.11556  -1.19513  -0.01671
C    -0.19073  -0.15363   0.00395
C    -0.87616   1.12281   0.16587
O    -2.11095   1.14910   0.39698
N    -0.18075   2.28856   0.04880
C    -0.86650   3.56531   0.06753
C     1.21745  -0.44458  -0.14364
O     1.63293  -1.55970  -0.52971
N     2.12479   0.54955   0.15314
C     3.54466   0.25294   0.13055
H    -3.15806  -2.76292   0.06927
H    -2.12510  -4.09289   0.68556
H    -2.36103  -3.91075  -1.05619
H    -0.05165  -2.89675  -0.38217
H    -2.05115  -0.79170   0.16083
H     0.73181   2.25142  -0.39237
H    -1.47036   3.66764   0.98069
H    -1.54070   3.69636  -0.79731
H    -0.11838   4.36856   0.05225
H     1.82842   1.25344   0.82169
H     3.83480  -0.50507   0.87993
H     4.10206   1.17703   0.33308
H     3.84357  -0.12450  -0.85771
