25
Generated by autodE on: 2022-10-13. E = -589.578698 Ha
C     3.59420   0.28248  -1.47605
C     2.37651   0.65815  -0.71709
N     1.34640  -0.13007  -0.65175
C     0.10431  -0.12259  -0.03709
C    -0.53668  -1.43398  -0.21737
O     0.04956  -2.31179  -0.90465
N    -1.73585  -1.65701   0.35903
C    -2.46398  -2.89825   0.23957
C    -0.49934   1.02164   0.61468
O    -1.53679   0.93026   1.32346
N     0.07333   2.25227   0.44848
C    -0.56203   3.43531   0.99582
H     3.50095  -0.71763  -1.92473
H     4.47718   0.29977  -0.81431
H     3.78928   1.01563  -2.27811
H     2.35719   1.60335  -0.17337
H     1.42797  -1.04801  -1.13119
H    -2.09651  -0.87954   0.91639
H    -2.59995  -3.38330   1.22100
H    -3.46326  -2.73651  -0.19771
H    -1.90749  -3.58395  -0.41078
H     0.69715   2.39687  -0.33736
H     0.09027   4.30014   0.81801
H    -1.54745   3.63734   0.54031
H    -0.71193   3.32671   2.07961
