38
Generated by autodE on: 2022-10-06. E = -834.840936 Ha. Imaginary frequency = -482.5 cm-1
C    -3.05425  -3.18301   0.50198
N    -2.44948  -1.87011   0.40758
C    -1.47388  -1.61187  -0.46651
O    -1.02939  -2.43826  -1.28042
C    -0.86467  -0.23814  -0.42819
C    -1.44764   0.87221   0.38295
O    -2.03253   0.63194   1.45157
N    -1.36156   2.11416  -0.11791
C    -1.91444   3.25226   0.59445
N     0.14394  -0.11557  -1.27061
C     1.26760   0.68125  -1.15373
C     2.17206   0.66649  -2.35467
C     2.12051  -0.09901   0.35782
N     2.57340  -1.38315  -0.02083
N     3.17468   0.80114   0.62892
C     2.88206   2.06804   1.27432
N     1.09007  -0.15153   1.28116
H    -3.89194  -3.13755   1.20790
H    -2.33015  -3.93545   0.85591
H    -3.42946  -3.50968  -0.47927
H    -2.65776  -1.13788   1.08967
H    -0.95080   2.26648  -1.03297
H    -3.00945   3.17337   0.68517
H    -1.66646   4.16579   0.04148
H    -1.49143   3.31940   1.60790
H     0.26126  -0.98148  -1.82223
H     1.06286   1.67349  -0.74855
H     2.37102  -0.36346  -2.69024
H     3.12948   1.15357  -2.12371
H     1.71979   1.22155  -3.19176
H     1.81281  -1.96325  -0.37592
H     3.30107  -1.33078  -0.73258
H     3.77546   0.91825  -0.18429
H     2.57678   1.91353   2.32080
H     2.09326   2.66044   0.77230
H     3.79824   2.67217   1.28309
H     0.90860   0.65594   1.86729
H     0.87932  -1.05034   1.70159
