35
Generated by autodE on: 2022-06-23. E = -878.730256 Ha
C    -4.31720   0.71827   1.65087
N    -3.54797   0.22663   0.52952
C    -2.20216   0.28022   0.51759
O    -1.55257   0.66970   1.51631
C    -1.53048  -0.10436  -0.72825
N    -0.14555  -0.05070  -0.74650
C     0.73405  -0.18211   0.22255
C     0.32782  -0.83075   1.53085
C     0.80132  -0.21480   2.81685
O    -0.24507  -1.90804   1.48347
C     2.13002   0.16790  -0.03520
C     3.17349  -0.53118   0.60782
C     4.50353  -0.21967   0.33409
C     4.81822   0.79308  -0.57904
C     3.79238   1.49593  -1.21921
C     2.45909   1.19256  -0.94850
C    -2.19753  -0.33912  -1.97757
C    -1.35484  -0.59678  -3.21261
O    -3.44508  -0.35742  -2.08628
H    -5.36299   0.40719   1.53123
H    -4.28850   1.81934   1.73013
H    -3.93222   0.30656   2.59562
H    -3.98325   0.01504  -0.37305
H     0.26110   0.16801  -1.66036
H     1.04409   0.84900   2.70201
H     1.70075  -0.74895   3.16378
H     0.01851  -0.34769   3.57558
H     2.94499  -1.34348   1.29906
H     5.30065  -0.77625   0.83148
H     5.86225   1.03734  -0.78719
H     4.03124   2.29659  -1.92246
H     1.66842   1.77643  -1.42480
H    -2.02347  -0.69614  -4.07684
H    -0.64986   0.22911  -3.41148
H    -0.76345  -1.52020  -3.10646
