49
Generated by autodE on: 2022-06-23. E = -1149.392381 Ha. Imaginary frequency = -354.4 cm-1
C     5.12991   0.20636   0.19497
N     3.73840   0.01783   0.56411
C     2.74252   0.43877  -0.23065
O     2.95395   1.03108  -1.29748
C     1.31963   0.10761   0.18152
C     0.98520   0.18119   1.68446
C     1.53844   1.37181   2.42767
O     0.30630  -0.65331   2.24347
N     0.45191   0.77388  -0.65888
C    -0.88003   0.62661  -0.73531
C    -1.39567   0.89560  -2.11679
C    -2.87077   0.84614  -2.35829
O    -0.58967   1.12463  -3.01783
C    -1.75119   0.78878   0.45612
C    -1.51549   1.89383   1.29373
C    -2.31572   2.11921   2.41569
C    -3.37274   1.25396   2.70699
C    -3.62816   0.16667   1.86306
C    -2.82893  -0.06479   0.74365
C    -0.43820  -1.89865  -0.47704
C    -1.24870  -2.01960  -1.64656
O    -2.45050  -2.35468  -1.65024
C     0.99083  -1.82394  -0.46588
C     1.68408  -2.70162   0.56437
C     1.70451  -1.83033  -1.80924
H     5.37027  -0.33153  -0.73601
H     5.76325  -0.17839   1.00314
H     5.35333   1.27312   0.04162
H     3.52909  -0.50157   1.40996
H     2.52906   1.10487   2.83084
H     1.66713   2.24554   1.77443
H     0.87864   1.60709   3.27266
H     0.89331   1.01797  -1.55762
H    -3.21847  -0.19365  -2.22963
H    -3.08290   1.17418  -3.38375
H    -3.41755   1.46563  -1.63310
H    -0.70337   2.58349   1.05940
H    -2.11215   2.97788   3.05964
H    -3.99928   1.42707   3.58494
H    -4.45474  -0.51303   2.08276
H    -3.02450  -0.92383   0.10263
H    -0.93378  -2.11859   0.47068
H    -0.74560  -1.82913  -2.61884
H     2.71587  -2.37665   0.75559
H     1.74304  -3.72465   0.15554
H     1.13894  -2.74371   1.51352
H     2.79018  -1.72087  -1.68165
H     1.53349  -2.79838  -2.30707
H     1.35300  -1.04083  -2.48634
