62
Generated by autodE on: 2022-06-12. E = -1582.378999 Ha
C    -3.94229  15.06283   6.32658
N    -5.17481  14.60066   5.71946
C    -5.90333  13.62847   6.27746
O    -5.58679  13.07283   7.33219
C    -7.16852  13.21609   5.48084
C    -8.53635  13.51858   6.18474
C    -8.53737  14.54871   7.27041
O    -9.54700  13.09037   5.66112
O    -7.24135  14.03384   4.31298
C    -7.26332  13.25043   3.12563
C    -8.62739  13.45764   2.44974
C    -6.18777  13.76609   2.24153
N    -5.36629  14.19604   1.54570
C    -6.98390  11.82221   3.61824
C    -7.03393  11.78303   4.96681
C    -7.01889  10.55979   5.88928
C    -7.18712  10.96391   7.39677
O    -8.09332  11.72931   7.74745
N    -6.42115  10.33757   8.29634
C    -6.49930  10.66999   9.70483
C    -5.70278   9.77650   5.74829
C    -4.50981  10.45504   5.45596
C    -3.29096   9.77587   5.39413
C    -3.23701   8.40225   5.63782
C    -4.41497   7.71644   5.94830
C    -5.63312   8.39630   6.00597
C    -8.35174   9.73714   5.64280
C    -8.95327   9.61046   4.24257
C    -8.19462   8.79799   3.19762
C    -6.76589   9.23784   2.90993
C    -6.57557  10.75653   2.57550
C    -5.12429  10.93964   2.32580
N    -3.98326  11.03733   2.15091
C    -7.25222  10.95442   1.27495
N    -7.77012  11.01043   0.24033
H    -3.47647  15.80204   5.66434
H    -4.13054  15.52928   7.30663
H    -3.24400  14.22535   6.47768
H    -5.50721  15.00699   4.85105
H    -8.23801  15.50891   6.81512
H    -9.54444  14.64716   7.69542
H    -7.80595  14.31059   8.05180
H    -8.68099  13.00547   1.45467
H    -9.40100  13.03166   3.10029
H    -8.79048  14.54059   2.35318
H    -5.64085   9.77814   7.97174
H    -5.88041   9.96386  10.27195
H    -6.13617  11.69456   9.89038
H    -7.53689  10.60422  10.06195
H    -4.52312  11.52418   5.24763
H    -2.38170  10.32782   5.14634
H    -2.28528   7.86872   5.58634
H    -4.39027   6.64193   6.14329
H    -6.53554   7.83426   6.24413
H    -8.21896   8.74189   6.08796
H    -9.11387  10.24112   6.24868
H    -9.18231  10.61100   3.84657
H    -9.93539   9.13015   4.38319
H    -8.13499   7.74416   3.51599
H    -8.77638   8.80709   2.26139
H    -6.37496   8.68814   2.04161
H    -6.10276   9.00422   3.74223
