39
Generated by autodE on: 2022-06-12. E = -935.970012 Ha
C     1.95577   3.79740   1.25757
N     1.22198   2.59587   0.90789
C     1.81255   1.39209   0.87353
O     3.01202   1.22834   1.10731
C     0.88180   0.19208   0.56745
C     0.26434  -0.27887   1.89665
C     1.11276  -0.56574   2.97826
C     0.58928  -1.02224   4.18900
C    -0.79034  -1.20095   4.33820
C    -1.63947  -0.91660   3.26667
C    -1.11561  -0.45719   2.05340
C    -0.13226   0.51456  -0.43067
C    -0.87584   0.42986  -1.38190
C    -1.43100  -0.23495  -2.56825
C    -2.89700  -0.08471  -2.66975
N    -4.05088   0.00075  -2.72823
C    -0.81302   0.31731  -3.79418
N    -0.29732   0.72114  -4.74986
C    -1.07141  -1.76792  -2.43207
C     0.41026  -2.06530  -2.14328
C     0.88731  -2.13265  -0.66572
C     1.70909  -0.95665  -0.10414
H     1.29314   4.66364   1.14361
H     2.31507   3.75895   2.29871
H     2.82930   3.92815   0.60103
H     0.22598   2.66110   0.72321
H     2.18975  -0.42511   2.87359
H     1.26395  -1.23916   5.02055
H    -1.19961  -1.55962   5.28547
H    -2.71871  -1.05210   3.36991
H    -1.78967  -0.23977   1.22387
H    -1.71098  -2.16025  -1.62780
H    -1.38405  -2.24473  -3.37250
H     1.05059  -1.37549  -2.71892
H     0.58729  -3.05763  -2.58441
H     1.53850  -3.01621  -0.58833
H     0.03076  -2.34375  -0.00373
H     2.40988  -1.32691   0.65633
H     2.31837  -0.51131  -0.90552
