23
Generated by autodE on: 2022-07-27. E = -646.281289 Ha
C     2.84790   0.15404   2.48467
N     1.88618   0.05400   1.40655
C     0.56891   0.26722   1.62577
O     0.13894   0.58590   2.74629
C    -0.32622   0.12724   0.45946
O     0.33004  -0.25619  -0.66288
C    -0.00770  -0.04282  -1.89908
C    -1.03879   0.90566  -2.33218
C     0.84773  -0.70175  -2.82615
N     1.51940  -1.23458  -3.61509
C    -1.76738   0.00768   0.50385
C    -2.51918   0.46553   1.72739
O    -2.37135  -0.53221  -0.43917
H     3.84842  -0.05208   2.08552
H     2.84653   1.16142   2.93116
H     2.63221  -0.56858   3.28843
H     2.20680  -0.19622   0.47840
H    -0.85030   1.22363  -3.36552
H    -2.05088   0.46928  -2.24099
H    -1.02444   1.76762  -1.63752
H    -2.25820   1.49881   1.99515
H    -3.59390   0.38383   1.51584
H    -2.26471  -0.16192   2.59417
