62
Generated by autodE on: 2022-06-12. E = -1582.251023 Ha. Imaginary frequency = -274.5 cm-1
C    -3.53741  13.76914   7.28135
N    -4.55742  13.94182   6.26734
C    -5.85914  13.73262   6.56018
O    -6.25010  13.57392   7.72461
C    -6.80499  13.69291   5.41031
C    -8.26683  13.87816   5.54683
C    -8.83902  14.34851   6.85957
O    -9.01642  13.66729   4.59405
O    -6.16490  13.79548   4.25107
C    -6.42214  13.57492   2.98075
C    -7.52471  14.21898   2.20708
C    -5.17938  13.32840   2.29478
N    -4.17589  13.09052   1.75610
C    -7.18177  11.38616   3.39822
C    -6.97490  11.10490   4.58362
C    -6.75556  10.20355   5.72825
C    -7.51512  10.73034   6.97539
O    -8.64862  11.20272   6.84267
N    -6.93520  10.55754   8.16990
C    -7.55216  11.01893   9.39786
C    -5.25484   9.98355   5.95258
C    -4.30334  10.85188   5.40004
C    -2.93835  10.66094   5.62754
C    -2.49765   9.58815   6.40584
C    -3.43521   8.70174   6.94388
C    -4.80018   8.89247   6.71448
C    -7.45556   8.83818   5.33711
C    -8.82751   8.97348   4.65089
C    -8.85447   8.62344   3.15555
C    -7.83176   9.26244   2.21428
C    -7.80628  10.83885   2.15347
C    -7.06804  11.20249   0.92574
N    -6.48604  11.42785  -0.04990
C    -9.18553  11.35885   2.03304
N   -10.28091  11.72946   1.96449
H    -2.55403  13.93462   6.82514
H    -3.67183  14.48906   8.10319
H    -3.56352  12.75393   7.71012
H    -4.27678  13.96542   5.29351
H    -8.22031  15.12069   7.33420
H    -9.85043  14.72801   6.65920
H    -8.91002  13.49939   7.55299
H    -7.50863  13.86798   1.16781
H    -8.50099  14.05154   2.67121
H    -7.33603  15.30798   2.20030
H    -5.96243  10.27206   8.19877
H    -7.09892  10.49251  10.24782
H    -7.40914  12.10281   9.53267
H    -8.62969  10.80808   9.37894
H    -4.62543  11.68681   4.78075
H    -2.21996  11.35859   5.19117
H    -1.43078   9.43843   6.58659
H    -3.10529   7.85043   7.54377
H    -5.51112   8.18297   7.13973
H    -6.75198   8.29484   4.69011
H    -7.54836   8.25040   6.26045
H    -9.22816   9.98355   4.80959
H    -9.54089   8.29870   5.14823
H    -8.70051   7.53702   3.04364
H    -9.86760   8.82494   2.77135
H    -8.03494   8.90723   1.19363
H    -6.80367   8.96752   2.46669
