75
Generated by autodE on: 2022-07-03. E = -1860.546896 Ha
C    10.29622   8.78657 -13.52002
O     9.03384   9.25096 -13.01409
C     8.54207   8.61735 -11.95226
O     9.09021   7.65932 -11.43941
C     7.22200   9.18387 -11.45306
C     6.62227  10.31227 -12.31149
C     5.31103  10.85181 -11.74670
C     4.23288   9.78125 -11.48938
C     4.00318   9.35946 -10.03182
C     4.99337   8.38304  -9.31255
C     4.34980   7.96123  -7.95245
C     4.71124   6.75391  -7.32807
C     4.14771   6.36089  -6.11326
C     3.18952   7.16238  -5.48813
C     2.80682   8.35811  -6.09781
C     3.37700   8.74938  -7.31284
C     5.20614   7.08439 -10.11756
C     6.41080   6.36726 -10.04636
C     6.57417   5.16040 -10.72982
C     5.52762   4.63596 -11.49271
C     4.31550   5.32901 -11.55483
C     4.15682   6.53807 -10.87182
C     6.32246   9.12285  -9.07709
C     7.26323   9.48202  -9.96981
C     8.35504  10.32214  -9.29017
C     9.74549   9.62100  -9.36440
O    10.69678  10.02547  -9.99551
O     9.75358   8.51050  -8.64815
C    10.94891   7.71625  -8.67649
C     8.41998  11.76997  -9.79159
C     7.81574  12.78625  -9.03798
C     7.81654  14.10947  -9.48858
C     8.42817  14.44128 -10.69902
C     9.04169  13.43655 -11.45220
C     9.03916  12.11398 -11.00438
O     7.97447  10.30762  -7.90973
C     6.71365   9.68023  -7.71480
C     5.76364  10.72479  -7.26302
N     5.07081  11.59204  -6.92790
C     6.96840   8.58351  -6.60769
C     6.49276   8.86760  -5.22257
O     7.61578   7.61074  -6.92021
H    10.52065   9.41455 -14.38945
H    10.22634   7.73078 -13.81673
H    11.07289   8.90504 -12.75106
H     6.54785   8.32339 -11.55808
H     7.33692  11.13307 -12.43639
H     6.44515   9.89127 -13.31387
H     4.92401  11.58683 -12.46984
H     5.50631  11.41668 -10.81978
H     4.41336   8.90257 -12.12952
H     3.26423  10.18500 -11.82327
H     3.94967  10.27897  -9.43260
H     3.00605   8.90259  -9.96525
H     5.45465   6.10668  -7.78861
H     4.46132   5.41925  -5.65684
H     2.74461   6.85689  -4.53834
H     2.05694   8.99966  -5.62918
H     3.05129   9.69076  -7.74706
H     7.23833   6.76057  -9.45770
H     7.52829   4.63216 -10.66520
H     5.65389   3.69415 -12.03180
H     3.48428   4.92947 -12.14082
H     3.19779   7.05257 -10.93060
H    10.75122   6.86101  -8.02081
H    11.14765   7.37674  -9.70231
H    11.80362   8.29754  -8.30321
H     7.34787  12.55288  -8.08466
H     7.33709  14.88231  -8.88326
H     8.43007  15.47508 -11.05226
H     9.52615  13.67876 -12.40095
H     9.51399  11.35052 -11.61515
H     6.92274   9.82495  -4.88281
H     6.79092   8.05528  -4.54920
H     5.39839   8.98592  -5.21451
