29
Generated by autodE on: 2022-07-03. E = -857.980479 Ha
C    -1.24838  -3.41131   0.65810
O    -1.04170  -1.99104   0.76650
C    -0.46129  -1.40119  -0.26203
O    -0.17785  -1.92665  -1.31703
C    -0.30458   0.08906  -0.07940
O     0.73373   0.68049  -0.56818
C     1.96776   0.11785  -0.84661
C     2.74112   0.91671  -1.70744
N     3.37976   1.56463  -2.44239
C     2.45074  -0.94193  -0.03156
C     3.88670  -1.37398  -0.17459
O     1.70625  -1.48265   0.81400
C    -1.35392   0.94804   0.40857
C    -1.07525   2.31966   0.63353
C    -2.07703   3.17104   1.07838
C    -3.36961   2.67730   1.30486
C    -3.65712   1.32524   1.08493
C    -2.66234   0.45931   0.64410
H    -1.73114  -3.71450   1.59327
H    -0.27979  -3.91736   0.54175
H    -1.89484  -3.63794  -0.20095
H     4.38741  -1.26964   0.80072
H     4.44169  -0.80554  -0.93126
H     3.90197  -2.44281  -0.44046
H    -0.06537   2.69573   0.46905
H    -1.85424   4.22458   1.25780
H    -4.15447   3.34986   1.65793
H    -4.66565   0.94485   1.25714
H    -2.89919  -0.58866   0.46943
