52
Generated by autodE on: 2022-06-02. E = -1300.911997 Ha
C     4.62411  -0.40405   1.24467
N     3.41000  -0.59184   0.47794
C     2.71616   0.45510  -0.00252
O     3.15433   1.60970   0.06372
C     1.36673   0.14076  -0.68210
C     0.73115   1.43626  -1.23766
C     1.23744   1.89542  -2.59459
N    -0.71590   1.23497  -1.21482
C    -1.03230   0.46731  -0.01792
C    -1.33285   1.41316   1.18359
C    -1.62076   2.85298   0.88557
O    -1.42575   0.95598   2.30829
C    -2.35510  -0.29172  -0.16096
C    -2.68029  -1.32572   0.73202
C    -3.88429  -2.01894   0.60559
C    -4.79408  -1.67731  -0.40105
C    -4.49255  -0.62730  -1.27092
C    -3.28484   0.06650  -1.14735
C     0.23553  -0.48442   0.23417
C     0.63250  -0.61039   1.70022
O     0.46112  -1.60230   2.38137
O     1.22863   0.48985   2.15305
C     1.63922   0.50095   3.52469
C     0.13041  -1.93927  -0.38825
C    -0.52634  -1.87843  -1.75652
C     0.38527  -1.31231  -2.55668
C     1.59979  -1.06397  -1.68265
O     1.50507  -2.16375  -0.75044
H     4.44414   0.23799   2.12272
H     4.98182  -1.38239   1.58879
H     5.41371   0.06752   0.63863
H     2.97856  -1.51117   0.41425
H     0.97551   2.21672  -0.50251
H     2.32818   2.02756  -2.56382
H     0.78162   2.86000  -2.86445
H     0.99804   1.17431  -3.39057
H    -0.98035   0.68760  -2.03191
H    -0.74026   3.33438   0.43467
H    -1.90018   3.36690   1.81425
H    -2.43500   2.92579   0.14911
H    -1.98866  -1.59923   1.52819
H    -4.11267  -2.83160   1.29902
H    -5.73545  -2.22257  -0.50051
H    -5.19962  -0.34045  -2.05273
H    -3.06837   0.88580  -1.83241
H     2.32508  -0.33373   3.72597
H     2.14881   1.45887   3.67753
H     0.76088   0.42525   4.18180
H    -0.21805  -2.69853   0.31393
H    -1.54231  -2.18900  -1.98867
H     0.29938  -1.04114  -3.60792
H     2.57259  -1.04591  -2.18371
