26
Generated by autodE on: 2022-06-02. E = -743.630331 Ha
C     3.29863   2.04790   0.64334
N     2.07413   1.41018   0.20713
C     1.97722   0.07448   0.12994
O     2.92164  -0.69350   0.37728
C     0.67264  -0.50387  -0.28338
C    -0.60778  -0.07318  -0.32769
C    -1.20220   1.22789  -0.00565
O    -0.59521   2.28555   0.10230
O    -2.52306   1.13072   0.15717
C    -3.23205   2.33620   0.48194
C    -1.43459  -1.34493  -0.66054
C    -1.36133  -2.26181   0.58057
C    -0.09410  -2.68255   0.61894
C     0.57821  -2.01634  -0.60111
O    -0.51031  -2.00538  -1.53698
H     3.53099   1.80865   1.69478
H     3.18887   3.13479   0.54469
H     4.15140   1.71860   0.02995
H     1.21983   1.96090   0.08509
H    -3.10922   3.07865  -0.31959
H    -4.28500   2.04859   0.57776
H    -2.86153   2.75417   1.42886
H    -2.41258  -1.18291  -1.12234
H    -2.18192  -2.43943   1.27435
H     0.42066  -3.29997   1.35375
H     1.48333  -2.47922  -1.00383
