26
Generated by autodE on: 2022-06-02. E = -557.222624 Ha
C     3.58372   1.47843  -0.93714
C     2.27683   1.05842  -0.37759
N     1.46174   0.28753  -1.03208
C     0.20067  -0.22928  -0.76305
C    -0.30421  -0.96993  -1.86716
C    -1.63407  -1.68374  -1.77315
O     0.35687  -1.06893  -2.94247
C    -0.45068   0.00381   0.53487
C     0.23602  -0.20803   1.75034
C    -0.39360  -0.00320   2.97891
C    -1.72916   0.41160   3.02967
C    -2.42451   0.62668   1.83581
C    -1.79123   0.43567   0.60582
H     4.40826   1.14509  -0.28271
H     3.64533   2.57978  -0.97910
H     3.74448   1.07240  -1.94707
H     1.96926   1.40425   0.61191
H     1.73723  -0.02234  -1.98128
H    -2.42138  -1.07610  -2.25040
H    -1.56125  -2.62489  -2.33882
H    -1.94619  -1.89636  -0.74266
H     1.27053  -0.55793   1.73360
H     0.15965  -0.18086   3.90461
H    -2.22209   0.56863   3.99196
H    -3.46548   0.95873   1.86050
H    -2.33731   0.63372  -0.31820
