52
Generated by autodE on: 2022-06-02. E = -1300.849013 Ha. Imaginary frequency = -222.6 cm-1
C     4.37974   1.19348   1.06460
N     3.08091   0.59761   0.83118
C     2.82268  -0.10292  -0.28431
O     3.68373  -0.23956  -1.17260
C     1.45068  -0.68773  -0.48346
C     0.66224   1.21933  -1.26496
C     1.23630   1.46851  -2.62123
N    -0.65650   0.95976  -1.15860
C    -1.37248   0.72455  -0.02414
C    -1.04706   1.45364   1.20759
C    -1.99730   1.34950   2.37634
O    -0.04802   2.17788   1.29928
C    -2.70050   0.09366  -0.22965
C    -3.15293  -0.93544   0.61583
C    -4.37632  -1.56166   0.37924
C    -5.17229  -1.17631  -0.70525
C    -4.73441  -0.15262  -1.54986
C    -3.51252   0.48078  -1.31178
C     0.50897  -1.20708   0.43946
C     0.31552  -1.11619   1.87675
O    -0.45234  -1.83779   2.51122
O     1.06078  -0.18433   2.50677
C     0.94971  -0.08182   3.93079
C    -0.02732  -2.50058  -0.24486
C    -0.85974  -2.13639  -1.47139
C     0.02495  -1.65686  -2.35287
C     1.37577  -1.74358  -1.64758
O     1.19418  -2.94943  -0.87321
H     4.34600   1.75591   2.00622
H     4.65252   1.88326   0.25041
H     5.17383   0.43152   1.13727
H     2.37375   0.60982   1.56354
H     1.08717   1.74887  -0.41923
H     2.29461   1.17426  -2.64430
H     0.69652   0.92406  -3.40960
H     1.18975   2.54662  -2.85399
H    -1.08679   0.59326  -2.00836
H    -3.03751   1.53783   2.07402
H    -1.68877   2.07866   3.13627
H    -1.96591   0.34220   2.81757
H    -2.51839  -1.28155   1.43087
H    -4.70299  -2.36947   1.03837
H    -6.12808  -1.67186  -0.89045
H    -5.34972   0.16305  -2.39565
H    -3.19297   1.29120  -1.97142
H     1.24463  -1.02703   4.40853
H    -0.07592   0.17466   4.22644
H     1.63669   0.72068   4.22387
H    -0.43654  -3.24036   0.44795
H    -1.94133  -2.21350  -1.55086
H    -0.14614  -1.23985  -3.34460
H     2.27426  -1.78156  -2.26627
