67
Generated by autodE on: 2022-06-09. E = -1498.306518 Ha
C     0.58980  -2.26365  13.23083
C     1.12298  -3.64531  13.03302
O     2.28622  -3.88086  12.76417
C     0.15842  -4.84443  13.29771
C     0.92785  -5.80039  14.14356
N     1.43398  -6.44487  14.96712
N    -1.03823  -4.44203  14.01126
C    -2.11628  -5.35332  13.62897
C    -2.25013  -6.57551  14.55049
C    -1.74547  -5.71552  12.19217
C    -0.42201  -5.48353  11.99475
C     0.48118  -5.68665  10.77314
C     0.54453  -4.37906   9.94262
C     0.78163  -4.44735   8.45805
O     0.40152  -3.30169  10.49577
C     1.92907  -6.10790  11.19428
C     3.11749  -5.57721  10.44162
O     2.06112  -6.96774  12.04309
C     0.06821  -6.88318   9.86343
C    -0.26127  -8.19641  10.59043
C    -1.72208  -8.59666  10.42364
C    -2.75637  -7.86672  11.28307
C    -2.86694  -6.30608  11.29383
C    -2.90866  -5.69878   9.88197
C    -3.51656  -6.39539   8.82445
C    -3.64264  -5.81544   7.56009
C    -3.18195  -4.51527   7.32746
C    -2.60821  -3.79943   8.37997
C    -2.47721  -4.38664   9.64099
C    -4.25983  -5.92200  11.90806
C    -4.72073  -4.59415  11.83205
C    -5.94534  -4.21060  12.37787
C    -6.75910  -5.15162  13.01726
C    -6.32002  -6.47194  13.10368
C    -5.08677  -6.85035  12.55812
H     1.29284  -1.53878  12.80085
H     0.50268  -2.08416  14.31635
H    -0.41170  -2.15004  12.80248
H    -0.88774  -4.41141  15.01821
H    -3.06241  -4.80098  13.66264
H    -2.36146  -6.23389  15.59204
H    -1.36774  -7.22880  14.48987
H    -3.13851  -7.16884  14.29901
H     0.97561  -3.43506   8.08187
H    -0.11959  -4.84472   7.96814
H     1.60949  -5.11766   8.19575
H     4.02986  -5.85780  10.98273
H     3.14600  -6.04085   9.44220
H     3.07592  -4.48842  10.30930
H    -0.78756  -6.57268   9.25560
H     0.88534  -7.05078   9.14903
H     0.36988  -8.99658  10.17475
H    -0.00345  -8.13561  11.65675
H    -1.98812  -8.51835   9.35746
H    -1.83002  -9.66427  10.67833
H    -3.73493  -8.26170  10.98006
H    -2.61801  -8.18183  12.32648
H    -3.90868  -7.39972   8.98319
H    -4.11019  -6.38366   6.75227
H    -3.27849  -4.06359   6.33749
H    -2.24919  -2.77949   8.22406
H    -2.03796  -3.80847  10.45064
H    -4.10931  -3.83350  11.34848
H    -6.26454  -3.16835  12.30113
H    -7.72160  -4.85664  13.44173
H    -6.93567  -7.22494  13.60182
H    -4.78449  -7.88952  12.66532
