50
Generated by autodE on: 2022-06-09. E = -1079.899413 Ha
C    -3.49132  -1.22985  -1.90538
C    -2.61611  -2.40598  -1.59663
O    -3.03180  -3.54680  -1.53699
C    -1.10737  -2.11574  -1.37703
C    -0.44328  -2.28210  -2.77884
C    -0.26563  -3.67847  -3.29685
O    -0.09335  -1.30335  -3.40911
C    -0.83094  -0.77618  -0.86820
C    -0.24306   0.07438  -0.23729
C     0.72029   0.68983   0.68180
C    -0.00775   1.09121   1.97593
C     0.46611   0.75877   3.25074
C    -0.21946   1.17904   4.39753
C    -1.38571   1.93787   4.28562
C    -1.86544   2.27689   3.01491
C    -1.18163   1.85548   1.87444
C     1.42768   1.90975   0.07177
C     1.43227   2.12362  -1.31353
C     2.13024   3.20224  -1.86544
C     2.83710   4.08041  -1.03905
C     2.84161   3.87007   0.34378
C     2.14071   2.79402   0.89427
C     1.78601  -0.44370   0.87902
C     1.25334  -1.85046   1.22819
C     0.96162  -2.83800   0.06179
C    -0.50559  -3.10395  -0.33295
H    -3.02380  -0.60491  -2.68258
H    -3.58066  -0.60062  -1.00471
H    -4.48622  -1.56835  -2.22157
H     0.60865  -4.12832  -2.79740
H    -0.07800  -3.64719  -4.37787
H    -1.13335  -4.31152  -3.06671
H     1.37644   0.17102   3.36735
H     0.16550   0.90702   5.38335
H    -1.92000   2.26326   5.18134
H    -2.77681   2.87102   2.91272
H    -1.56075   2.12398   0.88518
H     0.88910   1.43586  -1.96557
H     2.11896   3.35616  -2.94729
H     3.38021   4.92510  -1.46946
H     3.39056   4.54994   0.99997
H     2.14554   2.64343   1.97547
H     2.49259  -0.10275   1.65010
H     2.36389  -0.49909  -0.05618
H     2.02669  -2.31922   1.85646
H     0.36429  -1.76894   1.87452
H     1.54174  -2.54123  -0.82911
H     1.36945  -3.81587   0.36111
H    -0.60513  -4.12186  -0.73141
H    -1.14444  -3.06093   0.56297
