17
Generated by autodE on: 2022-06-09. E = -418.356019 Ha
C     3.40010   0.04046   0.57104
C     2.05308   0.56871   0.27142
N     1.00726  -0.18756   0.20012
C    -0.33172   0.11183  -0.06908
C    -0.70603   1.44093  -0.31361
N    -0.99393   2.55837  -0.51432
C    -1.20112  -1.02512  -0.06554
C    -2.66854  -0.83059  -0.34840
O    -0.74641  -2.16558   0.16855
H     3.39048  -1.04889   0.71801
H     4.09041   0.29400  -0.25168
H     3.79948   0.53002   1.47583
H     1.90917   1.64027   0.09789
H     1.10863  -1.20323   0.35702
H    -2.94648  -1.43882  -1.22396
H    -3.25038  -1.20873   0.50727
H    -2.94197   0.21604  -0.53580
