17
Generated by autodE on: 2022-07-27. E = -418.352786 Ha
C    -1.60359  -2.38987   0.61921
C    -2.04834  -1.07607   0.09948
N    -1.26414  -0.07268  -0.14603
C     0.10673   0.13999  -0.03303
C     1.01004  -0.82210   0.44669
N     1.82073  -1.57193   0.83630
C     0.51876   1.45465  -0.45358
C     1.98335   1.80517  -0.37417
O    -0.32525   2.27237  -0.87011
H    -1.10997  -2.28165   1.59974
H    -0.87214  -2.85738  -0.06136
H    -2.46449  -3.06081   0.72884
H    -3.10420  -0.88907  -0.11032
H    -1.69181   0.79181  -0.51324
H     2.13510   2.82920  -0.73875
H     2.58435   1.10745  -0.97881
H     2.34524   1.72852   0.66361
