21
Generated by autodE on: 2022-06-04. E = -797.432706 Ha
C    -3.08813  -0.97052   0.77289
C    -2.04230   0.05056   0.42864
O    -2.18495   1.24652   0.64766
C    -0.80301  -0.46383  -0.19774
C     0.40891   0.11140  -0.28772
C     0.88973   1.44059   0.19975
F     0.38620   2.46019  -0.51708
F     0.57672   1.66418   1.48784
F     2.23229   1.51895   0.10582
C     1.32974  -0.96935  -0.90381
C     1.50010  -2.06801   0.17185
C     0.30127  -2.64964   0.25647
C    -0.57908  -1.89420  -0.76478
O     0.38928  -1.60004  -1.78408
H    -3.90519  -0.50194   1.33594
H    -3.48443  -1.41703  -0.15460
H    -2.64198  -1.79292   1.35612
H     2.22604  -0.61672  -1.42277
H     2.41048  -2.24298   0.74335
H    -0.05032  -3.44184   0.91601
H    -1.45834  -2.41047  -1.16115
