25
Generated by autodE on: 2022-06-04. E = -833.903461 Ha
C     4.01337  -1.38222  -1.26483
N     3.31613  -0.90779  -0.08803
C     2.11124  -0.30994  -0.16604
O     1.45854  -0.20431  -1.21772
N     1.74381   0.26251   1.05320
O     0.49854   0.74885   1.07344
C    -0.54379   0.36591   0.42031
C    -1.76215   1.18977   0.65568
O    -2.86992   0.80804   0.33631
O    -1.48461   2.34644   1.24048
C    -2.60559   3.19529   1.54528
C    -0.64591  -0.97160  -0.24315
O    -0.20879  -1.96707   0.29660
O    -1.32826  -0.93271  -1.37017
C    -1.49374  -2.18378  -2.06483
H     4.53540  -0.56812  -1.79680
H     3.29736  -1.84160  -1.95956
H     4.75420  -2.13461  -0.96530
H     3.82609  -0.81763   0.78629
H    -3.14189   3.45916   0.62269
H    -3.29015   2.68525   2.23789
H    -2.18290   4.09093   2.01324
H    -2.07058  -1.94977  -2.96595
H    -0.50921  -2.59286  -2.33192
H    -2.03793  -2.89974  -1.43348
