46
Generated by autodE on: 2022-06-04. E = -1631.339673 Ha. Imaginary frequency = -229.9 cm-1
C    -1.41744   4.37510  -2.03307
N    -0.64354   3.27648  -1.49236
C    -1.19564   2.33740  -0.69586
O    -2.40497   2.26629  -0.43582
N    -0.22626   1.50936  -0.12476
O    -0.71098   0.43198   0.51471
C    -1.53936  -0.43810   0.02849
C    -1.72833  -1.65826   0.86785
O    -2.31803  -2.63194   0.44558
O    -1.18938  -1.53780   2.07081
C    -1.37484  -2.62800   2.99269
C    -2.58154  -0.17345  -1.04851
O    -2.35550   0.04852  -2.21487
O    -3.78626  -0.30250  -0.51256
C    -4.90700  -0.05680  -1.38261
C     0.27185  -1.15121  -1.71447
C     1.55788  -1.82752  -1.18568
O     2.55151  -1.13307  -1.97266
C     2.13843   0.18455  -1.56888
C     2.22178   0.02666  -0.03787
C     2.64733   1.12165   0.89124
F     3.87028   0.86999   1.40336
F     1.82103   1.30987   1.92719
F     2.73751   2.29470   0.23317
C     1.87365  -1.25029   0.20948
C     1.80816  -1.99469   1.49004
C     1.46553  -3.45438   1.39423
O     2.07250  -1.45014   2.55342
C     0.64694   0.13390  -1.96542
H    -1.58165   5.17592  -1.29133
H    -0.88534   4.80010  -2.89383
H    -2.39819   4.01090  -2.36808
H     0.37082   3.31058  -1.53776
H    -1.17974  -3.58986   2.50434
H    -0.66277  -2.45304   3.80614
H    -2.40668  -2.60745   3.37223
H    -4.86834   0.97825  -1.74973
H    -4.88893  -0.75631  -2.22995
H    -5.80077  -0.21625  -0.76990
H    -0.60247  -1.69404  -2.05970
H     1.62397  -2.91138  -1.30590
H     2.74409   0.97673  -2.01755
H     2.26727  -3.97157   0.83986
H     1.37449  -3.88954   2.39644
H     0.53715  -3.60689   0.82256
H     0.13991   0.89094  -2.55373
