12
Generated by autodE on: 2022-05-31. E = -306.615261 Ha
C     2.48021  -0.19742   0.05354
C     1.26669  -0.53895   0.49970
C     0.04181   0.06577  -0.07321
O     0.01036   0.89711  -0.96358
O    -1.06337  -0.41705   0.51536
C    -2.31791   0.09279   0.04665
H     2.59490   0.53860  -0.74787
H     3.38633  -0.64080   0.47392
H     1.12467  -1.27075   1.29851
H    -2.45317  -0.13486  -1.02103
H    -2.37291   1.18140   0.19472
H    -3.09110  -0.40854   0.64051
