36
Generated by autodE on: 2022-05-31. E = -788.358430 Ha
C    -2.84449  -2.19118   0.96414
C    -1.38712  -1.78011   0.79340
O    -0.51253  -2.65088   1.06914
C    -1.11539  -0.46120   0.34285
C    -2.22906   0.47973   0.03832
C    -3.05954   0.97507   1.05962
C    -4.12475   1.83139   0.76981
C    -4.37406   2.22028  -0.55020
C    -3.55412   1.74114  -1.57747
C    -2.49757   0.87568  -1.28562
N     0.19704   0.00600   0.12097
C     0.34794   1.46385  -0.07835
C     1.27641  -0.76103   0.16132
C     2.65833  -0.40732  -0.11644
C     3.63681  -1.21106   0.51793
C     4.99571  -0.99842   0.30297
C     5.41859   0.00726  -0.57413
C     4.46621   0.78641  -1.23915
C     3.10339   0.58725  -1.01904
H    -3.23637  -1.84866   1.93578
H    -2.88896  -3.28951   0.95047
H    -3.50384  -1.78803   0.18342
H    -2.85981   0.68507   2.09356
H    -4.75810   2.20292   1.57921
H    -5.20427   2.89313  -0.77806
H    -3.74461   2.03517  -2.61265
H    -1.87075   0.49277  -2.09462
H     0.23523   1.73080  -1.13579
H    -0.42107   1.98034   0.50207
H     1.33306   1.77369   0.28051
H     1.06996  -1.78576   0.46673
H     3.30960  -2.00366   1.19502
H     5.72998  -1.62293   0.81705
H     6.48397   0.17329  -0.74916
H     4.78695   1.55476  -1.94646
H     2.38921   1.18382  -1.58356
