55
Generated by autodE on: 2022-06-30. E = -2303.531641 Ha
C    -7.63087  -0.23906   9.46288
N    -7.55033  -0.26906   8.01573
C    -6.55901  -0.90885   7.37229
O    -5.72044  -1.60595   7.94374
C    -6.58807  -0.71601   5.83061
C    -7.76785  -1.46727   5.20032
O    -6.84216   0.66766   5.54308
C    -5.63111   1.32962   5.24555
C    -5.19441   2.08369   6.51792
O    -5.29169   3.28345   6.65318
O    -4.79755   1.25124   7.47072
C    -4.48011   1.80508   8.75527
C    -4.68969   0.21574   4.78531
C    -5.20943  -0.96944   5.18846
C    -4.57192  -2.35364   5.10235
Cl   -5.70541  -3.73337   5.67119
C    -4.46654  -2.82427   3.63660
O    -5.28985  -2.53689   2.79651
O    -3.43121  -3.62716   3.42425
C    -3.29914  -4.16904   2.09826
C    -3.33386  -2.52603   6.01795
C    -2.37926  -1.34888   6.20293
C    -1.57313  -0.91717   4.98354
C    -2.37446  -0.50183   3.75031
C    -3.46841   0.58302   3.92144
C    -3.97160   0.91136   2.47218
F    -3.01047   1.51639   1.75368
F    -5.04109   1.72076   2.44938
F    -4.31369  -0.20070   1.81726
C    -2.77596   1.86827   4.46871
F    -1.58652   2.08312   3.89914
F    -2.56551   1.77608   5.79295
F    -3.51344   2.97492   4.26484
H    -6.89527   0.45722   9.89994
H    -8.63749   0.08017   9.76210
H    -7.43933  -1.24050   9.87156
H    -8.09598   0.40145   7.48360
H    -7.60468  -1.58523   4.11994
H    -7.93528  -2.44973   5.64974
H    -8.66604  -0.85285   5.35777
H    -5.83219   2.09266   4.48800
H    -5.33939   2.36196   9.15371
H    -4.24498   0.94937   9.39723
H    -3.61122   2.47337   8.67050
H    -3.21130  -3.35371   1.36632
H    -2.38575  -4.77364   2.11214
H    -4.17127  -4.79281   1.85668
H    -3.74530  -2.75184   7.00700
H    -2.79364  -3.41807   5.67440
H    -1.66633  -1.65915   6.98375
H    -2.92681  -0.49776   6.62978
H    -0.92888  -1.75142   4.66138
H    -0.89176  -0.10447   5.27782
H    -1.67246  -0.13271   2.99112
H    -2.83694  -1.37594   3.29108
