32
Generated by autodE on: 2022-06-30. E = -1674.140419 Ha
C     1.49330  -3.73223  -2.35607
O     1.57829  -2.48806  -1.63778
C     1.65963  -1.38220  -2.36296
O     1.65095  -1.34253  -3.57141
C     1.79472  -0.12858  -1.47805
Cl    3.60892  -0.02567  -1.13717
C     1.03121  -0.23219  -0.25204
C     0.09125  -0.05699   0.48858
C    -1.17254   0.48636   0.97403
C    -2.09816  -0.66097   1.45265
F    -3.31884  -0.21287   1.77022
F    -1.60371  -1.29393   2.52477
F    -2.24037  -1.57420   0.48223
C    -0.90654   1.47511   2.13770
F    -2.04719   1.99519   2.60934
F    -0.27509   0.88447   3.16097
F    -0.13568   2.49258   1.73230
C    -1.84717   1.21709  -0.24109
C    -0.93912   2.03676  -1.18112
C    -0.19257   1.30432  -2.33125
C     1.33899   1.14902  -2.20679
H     0.60525  -3.73554  -3.00343
H     1.41446  -4.51365  -1.59229
H     2.39709  -3.87880  -2.96437
H    -2.35699   0.44368  -0.83255
H    -2.63071   1.86809   0.17224
H    -0.22820   2.64040  -0.59956
H    -1.61910   2.76239  -1.65216
H    -0.65899   0.32465  -2.52938
H    -0.35459   1.89191  -3.24706
H     1.80203   1.12800  -3.20299
H     1.75819   2.00722  -1.66227
