55
Generated by autodE on: 2022-06-30. E = -2303.402295 Ha. Imaginary frequency = -173.8 cm-1
C    -7.99609  -1.88660   8.65174
N    -7.56866  -1.70921   7.27875
C    -7.58798  -0.49639   6.70347
O    -8.14073   0.49004   7.20401
C    -7.04291  -0.40233   5.30809
C    -7.53842  -1.32145   4.23878
O    -6.67386   0.76604   4.85496
C    -5.94282   1.73407   5.38424
C    -5.48700   1.82202   6.75513
O    -5.48163   0.94350   7.60568
O    -4.94565   3.04613   6.97044
C    -4.26403   3.22646   8.21248
C    -3.97070   0.12738   4.85101
C    -4.39006  -0.90145   5.37938
C    -4.09215  -2.24173   5.90560
Cl   -4.35313  -2.26609   7.72409
C    -5.02990  -3.28939   5.27667
O    -5.92945  -3.86028   5.85389
O    -4.74198  -3.45233   3.99572
C    -5.56330  -4.36740   3.24467
C    -2.60187  -2.57987   5.65225
C    -1.63523  -1.46060   6.08348
C    -0.95330  -0.68966   4.93921
C    -1.79555  -0.19643   3.75586
C    -2.95831   0.81607   4.02604
C    -3.56931   1.17766   2.64280
F    -2.66827   1.80027   1.86702
F    -4.64143   1.97473   2.72282
F    -3.95999   0.06532   2.00429
C    -2.41373   2.09200   4.71720
F    -1.23723   2.46554   4.19397
F    -2.21832   1.86882   6.02691
F    -3.23957   3.14128   4.60777
H    -7.95078  -2.95363   8.90232
H    -7.34648  -1.32927   9.34804
H    -9.02816  -1.53278   8.79028
H    -6.98464  -2.43663   6.86893
H    -6.85136  -1.31612   3.38095
H    -7.63973  -2.34393   4.61939
H    -8.53673  -0.99803   3.88957
H    -5.81611   2.57561   4.71118
H    -3.85873   4.24528   8.19164
H    -4.95677   3.11499   9.06034
H    -3.44535   2.49953   8.31913
H    -6.60613  -4.02317   3.24350
H    -5.15659  -4.36298   2.22772
H    -5.50124  -5.37375   3.68080
H    -2.39180  -3.52077   6.18099
H    -2.50005  -2.79085   4.57862
H    -0.83267  -1.90419   6.69181
H    -2.15533  -0.76135   6.75330
H    -0.19909  -1.35187   4.48235
H    -0.38560   0.14727   5.37446
H    -1.11789   0.26682   3.02500
H    -2.26268  -1.05414   3.25534
