37
Generated by autodE on: 2022-06-17. E = -714.346476 Ha
C    -1.62120  -2.79917   0.82400
C    -1.00037  -1.60705   0.08639
C    -2.02059  -0.45488   0.06578
C    -1.83080   0.71080   0.81882
C    -2.77910   1.74031   0.80996
C    -3.94307   1.61978   0.04718
C    -4.15128   0.45600  -0.70178
C    -3.20136  -0.56809  -0.68933
C    -0.56116  -1.97421  -1.35379
C     0.61247  -1.03317  -1.59563
C     1.34981  -1.08850  -0.24809
C     2.28630   0.07689  -0.00347
C     1.79954   1.39106   0.10008
C     2.67157   2.46221   0.30275
C     4.05070   2.23970   0.40636
C     4.54669   0.93780   0.30442
C     3.66771  -0.13292   0.10222
N     0.26190  -1.19494   0.74835
H    -1.88131  -2.52477   1.85879
H    -0.91139  -3.64146   0.85219
H    -2.53984  -3.13752   0.32251
H    -0.92168   0.79945   1.41162
H    -2.60378   2.64158   1.40342
H    -4.68353   2.42339   0.03585
H    -5.05935   0.34468  -1.29995
H    -3.38587  -1.46988  -1.27793
H    -1.36664  -1.87832  -2.09387
H    -0.21186  -3.01943  -1.36587
H     1.26177  -1.32619  -2.43283
H     0.25065  -0.00993  -1.78654
H     1.96319  -2.00730  -0.24024
H     0.72627   1.57412   0.02102
H     2.27502   3.47783   0.38049
H     4.73279   3.07830   0.56662
H     5.62064   0.75173   0.38574
H     4.05935  -1.15125   0.02657
H     0.51555  -1.87249   1.46184
