31
Generated by autodE on: 2022-06-17. E = -635.651206 Ha
C    -1.19516  -2.50820  -0.68951
C    -1.17181  -1.08038  -0.26308
N     0.04137  -0.51245  -0.14903
C     1.26588  -1.03774  -0.34472
C     2.47303  -0.27687  -0.19547
C     3.71782  -0.91880  -0.43628
C     4.92335  -0.23570  -0.30708
C     4.94365   1.11529   0.06743
C     3.72693   1.76604   0.31220
C     2.51440   1.09178   0.18593
C    -2.35054  -0.28961   0.03958
C    -3.64543  -0.73303  -0.33539
C    -4.78184   0.02757  -0.06568
C    -4.68230   1.26167   0.58679
C    -3.41513   1.71598   0.97458
C    -2.27588   0.95869   0.71644
H    -2.20921  -2.91999  -0.71693
H    -0.59794  -3.13077   0.00364
H    -0.73955  -2.63974  -1.68952
H     0.03315   0.47517   0.10740
H     1.32195  -2.08670  -0.62651
H     3.71793  -1.97214  -0.72921
H     5.86167  -0.76231  -0.50131
H     5.89008   1.65104   0.16740
H     3.72220   2.81884   0.60699
H     1.59138   1.64173   0.39030
H    -3.76224  -1.68024  -0.86265
H    -5.75992  -0.34823  -0.37739
H    -5.57453   1.85577   0.79586
H    -3.31267   2.66944   1.49925
H    -1.31719   1.34118   1.07547
