31
Generated by autodE on: 2022-07-27. E = -635.640708 Ha
C    -2.21231  -2.81939  -0.19326
C    -1.23194  -1.74951   0.19724
N    -0.03684  -2.20351   0.63939
C     1.20557  -1.68893   0.81061
C     1.81101  -0.56150   0.17205
C     1.26475   0.14861  -0.93186
C     1.97248   1.19140  -1.53480
C     3.22312   1.58737  -1.05470
C     3.77962   0.90017   0.03790
C     3.09473  -0.15027   0.63362
C    -1.62416  -0.35913   0.18016
C    -0.96462   0.64844   0.93309
C    -1.44324   1.95818   0.96071
C    -2.56828   2.32738   0.21721
C    -3.22858   1.35114  -0.54232
C    -2.77417   0.03592  -0.55672
H    -3.22012  -2.61810   0.20253
H    -1.88343  -3.80231   0.18076
H    -2.30998  -2.91524  -1.29022
H    -0.07723  -3.19010   0.90465
H     1.84187  -2.31873   1.43325
H     0.30421  -0.14547  -1.34837
H     1.52953   1.70613  -2.39174
H     3.76071   2.41627  -1.52063
H     4.76007   1.19173   0.42393
H     3.54283  -0.68080   1.47820
H    -0.09544   0.39360   1.53620
H    -0.92032   2.70273   1.56670
H    -2.92528   3.35970   0.22503
H    -4.10914   1.62031  -1.13147
H    -3.30866  -0.70087  -1.15770
