56
Generated by autodE on: 2022-06-12. E = -6542.543049 Ha
C     5.16613  -1.10797   1.74943
N     4.17867  -0.81285   0.72623
C     3.06328  -0.13477   1.01341
O     2.83260   0.37811   2.10152
C     2.00815  -0.02026  -0.15962
C     2.80080   0.17984  -1.40562
N     3.48660   0.51507  -2.27981
N     1.13532   1.10928   0.08440
C     1.75305   2.42529  -0.06325
C    -0.19900   0.88853  -0.46965
C    -1.30453   1.74763   0.23400
C    -1.01411   2.53192   1.48310
O    -2.41120   1.76704  -0.26762
C    -0.13159   1.27021  -1.96745
O     0.32590   0.56256  -2.83333
O    -0.47836   2.54218  -2.15728
C    -0.27503   3.07658  -3.47664
C    -0.46327  -0.64885  -0.15338
C    -1.05138  -0.68275   1.29415
C    -2.41255  -0.97259   1.49197
C    -2.98657  -0.92607   2.76467
C    -2.21253  -0.59102   3.87716
C    -0.86183  -0.28925   3.69435
C    -0.29146  -0.32608   2.42108
C    -1.44057  -1.38801  -1.07659
C    -1.57879  -2.77813  -0.90818
C    -2.48547  -3.51402  -1.66738
C    -3.29415  -2.87338  -2.61192
C    -3.18967  -1.49165  -2.76780
C    -2.27571  -0.75661  -2.00367
C     1.01885  -1.26463  -0.24695
Br    1.38646  -2.61991   1.16303
Br    1.37968  -2.26889  -1.91300
H     6.05236  -1.54056   1.27068
H     5.45378  -0.18923   2.27999
H     4.76995  -1.82478   2.48724
H     4.29770  -1.22809  -0.19242
H     2.59896   2.50190   0.63232
H     2.12035   2.61685  -1.08716
H     1.03286   3.20881   0.18926
H    -1.01530   3.60004   1.20750
H    -0.06429   2.28184   1.96054
H    -1.84523   2.37225   2.18445
H     0.78568   3.00376  -3.75475
H    -0.58867   4.12502  -3.42672
H    -0.88711   2.52665  -4.20514
H    -3.05150  -1.21964   0.64746
H    -4.04885  -1.15355   2.87927
H    -2.65878  -0.55916   4.87387
H    -0.23813  -0.01287   4.54765
H     0.75505  -0.05402   2.32548
H    -0.97745  -3.29806  -0.16276
H    -2.56312  -4.59299  -1.51533
H    -4.00735  -3.44584  -3.20952
H    -3.82681  -0.96780  -3.48405
H    -2.27140   0.32309  -2.11744
