30
Generated by autodE on: 2022-06-12. E = -854.412768 Ha
C     3.69977  -0.02665   1.13984
N     2.66477  -1.02299   1.36615
C     1.44528  -1.07629   0.80738
O     0.53670  -1.79784   1.21904
C     1.24287  -0.30600  -0.48100
C     2.27542  -0.36522  -1.45218
N     3.15853  -0.44796  -2.20849
N     0.04755   0.15937  -0.83961
C    -0.17925   0.43312  -2.28001
C    -0.91282   0.51621   0.08639
C    -0.47290   1.15746   1.32211
C    -1.49471   1.78336   2.23861
O     0.72770   1.23830   1.61193
C    -2.32415   0.32996  -0.25754
O    -3.27205   0.90431   0.25494
O    -2.48901  -0.62816  -1.19189
C    -3.82566  -0.84757  -1.65565
H     3.26394   0.90316   0.75441
H     4.47273  -0.38002   0.44033
H     4.18038   0.20017   2.10111
H     2.77099  -1.63174   2.17471
H    -1.10981   0.98834  -2.40564
H     0.65207   1.05076  -2.64399
H    -0.21189  -0.51172  -2.83511
H    -0.96070   2.21787   3.09334
H    -2.20928   1.02432   2.59039
H    -2.07957   2.55661   1.72251
H    -4.24494   0.07514  -2.08323
H    -4.46934  -1.19170  -0.83316
H    -3.75309  -1.62289  -2.42736
