30
Generated by autodE on: 2022-07-27. E = -854.409458 Ha
C     4.24416  -1.48690   1.27766
N     2.97231  -1.20773   0.63699
C     1.91430  -0.78865   1.35240
O     1.94770  -0.60497   2.56930
C     0.65601  -0.60058   0.54356
C     0.44695  -1.49276  -0.54230
N     0.30182  -2.28041  -1.38840
N    -0.28008   0.30509   0.82220
C    -0.19605   1.07804   2.08687
C    -1.28909   0.61149  -0.07985
C    -2.63327   0.84309   0.44983
C    -3.71724   1.37274  -0.45652
O    -2.89184   0.59325   1.63292
C    -0.98150   0.70868  -1.51339
O    -1.80820   0.66707  -2.40977
O     0.32521   0.92949  -1.75910
C     0.73330   0.92721  -3.13139
H     4.10873  -2.19301   2.11024
H     4.70063  -0.56799   1.67941
H     4.92197  -1.92784   0.53762
H     2.91070  -1.26961  -0.37510
H     0.81776   1.48607   2.16250
H    -0.91975   1.89130   2.04138
H    -0.38713   0.42516   2.94343
H    -3.37058   2.21506  -1.07104
H    -4.56299   1.67948   0.17319
H    -4.05062   0.58474  -1.14830
H     0.25658   1.75175  -3.68061
H     1.82144   1.06025  -3.12108
H     0.47377  -0.02924  -3.60801
