56
Generated by autodE on: 2022-06-12. E = -6542.478363 Ha. Imaginary frequency = -276.1 cm-1
C     5.48633  -0.58219   1.35611
N     4.45052  -0.10247   0.46221
C     3.28498   0.36153   0.94616
O     3.07821   0.48572   2.15566
C     2.20702   0.64034  -0.07957
C     2.71169   0.74881  -1.41770
N     3.22712   0.84851  -2.45639
N     1.12578   1.43632   0.27683
C     1.23779   2.40045   1.40615
C    -0.01480   1.37597  -0.48596
C    -1.26385   2.00531   0.04698
C    -2.19436   2.70079  -0.91458
O    -1.50148   1.99055   1.24680
C     0.14782   1.50029  -1.99423
O    -0.27158   0.76266  -2.85061
O     0.77062   2.66020  -2.24924
C     0.99925   2.97409  -3.63217
C    -0.31111  -1.02580  -0.05468
C    -0.78212  -0.86107   1.34671
C    -2.15074  -1.03235   1.65971
C    -2.63009  -0.84905   2.95629
C    -1.76157  -0.48195   3.98656
C    -0.40458  -0.31176   3.69875
C     0.07773  -0.50444   2.40589
C    -1.36199  -1.57597  -0.98973
C    -1.38828  -2.97304  -1.16120
C    -2.40443  -3.59100  -1.89041
C    -3.42439  -2.82389  -2.46139
C    -3.42381  -1.43921  -2.27623
C    -2.40648  -0.82622  -1.54118
C     1.06315  -1.36123  -0.33042
Br    2.01730  -2.53595   0.90941
Br    1.50442  -1.94840  -2.11427
H     5.77271   0.19786   2.07698
H     6.36428  -0.85877   0.76058
H     5.14541  -1.46366   1.92331
H     4.58000  -0.22745  -0.53592
H     2.28751   2.68473   1.50899
H     0.86746   1.99648   2.35049
H     0.66460   3.29263   1.13538
H    -1.79811   3.72049  -1.06241
H    -3.19342   2.77207  -0.46638
H    -2.25517   2.23433  -1.90520
H     0.04317   3.03600  -4.17108
H     1.63535   2.20352  -4.09045
H     1.50806   3.94443  -3.64012
H    -2.85614  -1.31821   0.88267
H    -3.69394  -0.99405   3.15802
H    -2.13633  -0.33521   5.00221
H     0.29403  -0.02446   4.48822
H     1.13786  -0.35163   2.24138
H    -0.61111  -3.58815  -0.70479
H    -2.39995  -4.67730  -2.00728
H    -4.21913  -3.30358  -3.03743
H    -4.22183  -0.82622  -2.70140
H    -2.44382   0.24632  -1.39076
