43
Generated by autodE on: 2022-05-30. E = -1145.371724 Ha
C    -1.80660  -2.27969  -2.86642
N    -1.48788  -1.55976  -1.64794
C    -1.47420  -0.21651  -1.61450
O    -1.84081   0.50154  -2.54497
C    -0.94028   0.37074  -0.29937
C    -1.77138   0.01149   0.97050
O    -1.34731   0.39150   2.06243
N    -2.94004  -0.61509   0.81092
C    -3.76360  -0.96514   1.95500
N    -1.08469   1.85556  -0.31933
N    -0.06264   2.44664   0.03679
C     1.09130   1.55181   0.25051
F     1.52817   1.78886   1.53810
C     2.17196   1.83701  -0.79333
C     3.37416   0.91461  -0.48833
C     2.87756  -0.48118  -0.96558
C     1.41026  -0.21571  -1.36117
C     1.54723   1.16550  -2.02848
C     0.58355   0.10340  -0.05991
C     0.74729  -1.05134   0.92726
O     0.15436  -2.11455   0.67019
N     1.55197  -0.92668   1.98259
C     1.75603  -2.02141   2.91335
H    -1.90346  -3.34772  -2.63479
H    -1.02024  -2.14968  -3.62959
H    -2.75543  -1.91850  -3.28778
H    -0.99392  -2.04011  -0.88618
H    -3.18213  -0.99887  -0.09631
H    -4.72051  -1.35976   1.59364
H    -3.27350  -1.72909   2.58009
H    -3.95070  -0.07934   2.57863
H     2.40768   2.90597  -0.86116
H     4.25272   1.25104  -1.05538
H     3.64130   0.93198   0.57720
H     2.99443  -1.26620  -0.20835
H     3.42462  -0.80816  -1.86094
H     0.96907  -1.01509  -1.96344
H     2.23879   1.14141  -2.88197
H     0.60110   1.60955  -2.36170
H     1.93833  -0.01382   2.19574
H     2.52445  -1.72855   3.63886
H     0.82645  -2.26347   3.45375
H     2.08956  -2.92513   2.38215
