19
Generated by autodE on: 2022-05-30. E = -565.067808 Ha
C    -3.20741   1.45403   0.04121
N    -1.81288   1.06631   0.06683
C    -1.43751  -0.20270  -0.15327
O    -2.22969  -1.12467  -0.39350
C     0.03041  -0.46245  -0.09335
N     0.35243  -1.71421  -0.32664
N     0.60869  -2.79577  -0.53214
C     1.09742   0.52792   0.18997
O     0.80908   1.72269   0.37781
N     2.37149   0.09546   0.23364
C     3.46427   1.01160   0.50411
H    -3.79109   0.91163   0.80260
H    -3.27878   2.52943   0.24514
H    -3.66572   1.25022  -0.94013
H    -1.06674   1.74064   0.24853
H     2.59072  -0.88609   0.10668
H     3.36417   1.47471   1.49850
H     3.50184   1.81794  -0.24466
H     4.40606   0.45142   0.46810
