43
Generated by autodE on: 2022-05-30. E = -1145.306121 Ha. Imaginary frequency = -500.7 cm-1
C    -2.16153  -1.96456  -2.65352
N    -1.84507  -1.26077  -1.42169
C    -1.77628   0.09289  -1.42407
O    -2.07639   0.79354  -2.39260
C    -1.27076   0.69513  -0.14884
C    -1.78939   0.42546   1.24102
O    -1.43517   1.15982   2.16904
N    -2.60911  -0.63048   1.38058
C    -3.06859  -1.10680   2.67002
N    -0.82447   1.97064  -0.25579
N     0.17847   2.55663  -0.25146
C     1.63440   1.14075  -0.00225
F     2.05783   1.58046   1.21048
C     2.51538   1.37893  -1.20714
C     3.63225   0.29447  -1.13494
C     2.85621  -1.02573  -1.41711
C     1.37973  -0.54059  -1.57119
C     1.60359   0.79745  -2.30355
C     0.97435  -0.09184  -0.16474
C     0.67601  -1.12984   0.85122
O     0.18117  -2.21899   0.49109
N     0.95215  -0.84943   2.13791
C     0.53847  -1.68434   3.24725
H    -2.25654  -3.03530  -2.43342
H    -1.37677  -1.82393  -3.41630
H    -3.11167  -1.60070  -3.06836
H    -1.23482  -1.75101  -0.75281
H    -2.82350  -1.18664   0.55816
H    -4.12992  -1.38592   2.60644
H    -2.49384  -1.98694   2.99990
H    -2.95207  -0.30927   3.41282
H     2.86513   2.41230  -1.31936
H     4.39221   0.49126  -1.90470
H     4.13383   0.29829  -0.15668
H     2.96200  -1.76914  -0.61451
H     3.18878  -1.49464  -2.35488
H     0.71562  -1.26881  -2.04629
H     2.13185   0.66522  -3.25822
H     0.68577   1.37186  -2.48176
H     1.28971   0.08344   2.34986
H    -0.22564  -1.17318   3.85324
H     1.39508  -1.92350   3.89603
H     0.12031  -2.61837   2.85604
