45
Generated by autodE on: 2022-06-07. E = -1870.346184 Ha
C    -3.68501   1.85880   2.33703
N    -3.53439   1.82168   0.88941
C    -2.45184   1.45334   0.18969
O    -2.41548   1.46531  -1.04372
C    -1.17770   1.11713   1.00118
O    -0.39827   2.31274   1.03204
C     0.57750   2.23649   0.01825
C     0.13452   2.98370  -1.18717
N    -0.20792   3.62350  -2.09079
C     0.77245   0.73154  -0.22558
C    -0.26890   0.08215   0.33658
C    -0.55964  -1.41855   0.50046
C    -2.08652  -1.71876   0.43158
F    -2.33239  -3.02651   0.57164
F    -2.59923  -1.34022  -0.74504
F    -2.79304  -1.09068   1.38945
C    -0.04990  -1.81643   1.92669
F    -0.21609  -3.12086   2.17366
F    -0.67881  -1.14676   2.90699
F     1.25518  -1.54793   2.04469
C     0.13637  -2.37534  -0.50832
C    -0.12140  -2.20454  -2.01073
C     0.08896  -0.82489  -2.63287
C     1.47998  -0.20980  -2.50966
C     1.94993   0.22682  -1.06919
C     2.72692  -0.83093  -0.39562
N     3.45837  -1.59309   0.08027
C     3.06194   1.31417  -1.26125
F     2.62060   2.39617  -1.90959
F     3.55568   1.72179  -0.08223
F     4.07320   0.80916  -1.97455
H    -2.92377   2.49763   2.80772
H    -4.67047   2.28289   2.56449
H    -3.63429   0.85358   2.78143
H    -4.33282   2.09657   0.32158
H    -1.40978   0.85616   2.03693
H     1.48968   2.72818   0.38729
H    -0.16433  -3.39365  -0.23234
H     1.20735  -2.34629  -0.30729
H     0.55269  -2.92279  -2.50570
H    -1.14269  -2.53407  -2.24944
H    -0.09784  -0.92228  -3.71428
H    -0.66591  -0.11355  -2.26962
H     2.24477  -0.88443  -2.91933
H     1.48870   0.70491  -3.11786
