24
Generated by autodE on: 2022-06-16. E = -626.423733 Ha
C     4.07621  -0.14744  -0.51993
O     2.71080   0.22078  -0.27240
C     1.79059  -0.71294  -0.51119
O     2.04366  -1.83382  -0.91494
C     0.40598  -0.26145  -0.24906
N     0.14719   0.93465   0.15599
N    -1.20977   1.03942   0.29837
C    -1.76165   2.20530   0.60098
N    -2.28700   3.20918   0.88584
C    -1.94896  -0.13071  -0.28150
C    -3.18234  -0.48495   0.52229
C    -0.79900  -1.17030  -0.35906
C    -0.78577  -2.23377   0.74604
H     4.21647  -0.41285  -1.57780
H     4.36465  -0.99967   0.11224
H     4.67583   0.73419  -0.26665
H    -2.24184   0.15853  -1.30337
H    -3.68470  -1.34863   0.06274
H    -2.93458  -0.73244   1.56373
H    -3.89297   0.35566   0.52095
H    -0.81508  -1.66907  -1.33794
H     0.09440  -2.88141   0.62861
H    -1.68427  -2.86489   0.68784
H    -0.74592  -1.77488   1.74532
