24
Generated by autodE on: 2022-06-16. E = -626.315313 Ha. Imaginary frequency = -268.9 cm-1
C     4.05490  -0.41864  -0.20076
O     2.71770   0.05956   0.05413
C     1.73404  -0.59588  -0.54928
O     1.85542  -1.55907  -1.27090
C     0.44191   0.01302  -0.19953
N    -0.11579   1.06119  -0.04477
N    -1.23917   1.66358  -0.05757
C    -1.35792   2.82298   0.57262
N    -1.61198   3.84506   1.08479
C    -2.28433  -0.99780  -0.41291
C    -3.21967  -0.88211   0.74831
C    -1.13685  -1.73127  -0.42306
C    -0.67936  -2.60665   0.71342
H     4.28364  -0.34561  -1.27302
H     4.15136  -1.46151   0.13202
H     4.71585   0.23415   0.37942
H    -2.57966  -0.50134  -1.34212
H    -3.91979  -1.73898   0.75523
H    -2.68963  -0.89994   1.71279
H    -3.82529   0.03313   0.69369
H    -0.64181  -1.87579  -1.38923
H     0.38751  -2.85545   0.62326
H    -1.23657  -3.56038   0.71101
H    -0.84476  -2.13536   1.69405
