20
Generated by autodE on: 2022-06-20. E = -457.715339 Ha
C     3.13386  -0.47154  -0.23672
N     1.82511   0.13806  -0.06624
C     1.73322   1.44622   0.42535
C     0.55919   2.03979   0.69225
C    -0.77258   1.35984   0.49152
C    -0.57286  -0.06256  -0.00637
C    -1.71891  -0.95050  -0.26020
N    -2.94470  -0.42798  -0.00401
O    -1.60555  -2.11783  -0.68674
C     0.67157  -0.56572  -0.24292
H     3.02140  -1.43635  -0.74710
H     3.78312   0.17358  -0.84838
H     3.63056  -0.64261   0.73356
H     2.69043   1.94956   0.57258
H     0.56912   3.06576   1.06723
H    -1.39545   1.94304  -0.21778
H    -1.35102   1.37086   1.43790
H    -3.07664   0.50902   0.35445
H    -3.76177  -1.00848  -0.15795
H     0.78665  -1.59038  -0.60002
