24
Generated by autodE on: 2022-07-27. E = -593.105528 Ha
C    -2.36629   4.62618  -0.30802
N    -2.22112   3.39492   0.43182
C    -1.37675   2.38420   0.06005
O    -0.64921   2.46752  -0.95980
C    -1.39043   1.23908   0.92247
O    -0.63034   0.16369   0.71240
C     0.22655  -0.14604  -0.20895
C     0.88851  -1.41703  -0.13394
C     0.64789  -2.34775   0.90526
C     1.32134  -3.56502   0.92473
C     2.24447  -3.88452  -0.08165
C     2.49003  -2.97109  -1.11412
C     1.82158  -1.74938  -1.14382
H    -3.39768   4.76175  -0.67545
H    -1.69222   4.59907  -1.17248
H    -2.10751   5.50417   0.30762
H    -2.78504   3.26260   1.26440
H    -2.00481   1.14593   1.81582
H     0.40975   0.57300  -1.00613
H    -0.06914  -2.10238   1.69070
H     1.12835  -4.27595   1.73170
H     2.76974  -4.84195  -0.05938
H     3.20797  -3.21470  -1.90072
H     2.01223  -1.03555  -1.94883
