24
Generated by autodE on: 2022-06-20. E = -593.108430 Ha
C     3.99905   1.38690   0.55922
N     2.80561   0.57890   0.44411
C     2.88018  -0.77573   0.28772
O     3.97559  -1.38009   0.35446
C     1.65621  -1.49210   0.05783
O     0.52429  -0.79873  -0.01011
C    -0.68558  -1.21145  -0.21057
C    -1.75719  -0.26263  -0.24231
C    -1.54808   1.12707  -0.06212
C    -2.62446   2.00704  -0.10161
C    -3.92620   1.53208  -0.31933
C    -4.14362   0.16041  -0.49835
C    -3.07435  -0.73113  -0.46137
H     3.71152   2.41679   0.80758
H     4.65526   1.00705   1.35696
H     4.58988   1.40761  -0.37459
H     1.91942   1.03931   0.26910
H     1.61996  -2.57498  -0.06849
H    -0.84396  -2.28586  -0.34975
H    -0.53677   1.50178   0.10825
H    -2.45160   3.07673   0.03863
H    -4.76629   2.22950  -0.34872
H    -5.15545  -0.21514  -0.66777
H    -3.24354  -1.80161  -0.60112
