44
Generated by autodE on: 2022-06-20. E = -1050.834399 Ha. Imaginary frequency = -303.6 cm-1
C    -1.40456   5.59637  -0.25509
N    -1.33111   4.35113   0.47668
C    -0.40696   3.39458   0.16983
O     0.36230   3.53629  -0.80823
C    -0.44316   2.22673   1.02092
O     0.47029   1.24804   0.96758
C     1.09631   0.84164  -0.12016
C     1.89572  -0.35742   0.00329
C     1.80562  -1.21263   1.12317
C     2.54772  -2.38880   1.17320
C     3.38314  -2.74669   0.10633
C     3.47944  -1.90844  -1.00952
C     2.74484  -0.72322  -1.06208
C    -0.88955   0.41991  -1.43024
C    -0.66709  -1.05834  -1.64969
C    -1.03787  -1.82020  -0.39486
C    -0.51049  -3.16050  -0.09452
N     0.27315  -3.73142  -1.04948
O    -0.77298  -3.77628   0.95725
C    -1.90187  -1.26556   0.49832
N    -2.44244  -0.01453   0.35896
C    -3.28983   0.52004   1.41267
C    -1.85989   0.86503  -0.55844
H    -2.32245   6.12660   0.02992
H    -1.43029   5.40819  -1.33879
H    -0.54343   6.25811  -0.05162
H    -1.85343   4.26119   1.34134
H    -0.93975   2.26425   1.98997
H     1.29812   1.57667  -0.89320
H     1.13757  -0.95026   1.94430
H     2.45866  -3.04616   2.04107
H     3.95416  -3.67714   0.14493
H     4.12936  -2.18035  -1.84456
H     2.81868  -0.06812  -1.93356
H    -0.58701   1.10445  -2.22308
H    -1.26506  -1.40944  -2.51727
H     0.38202  -1.24281  -1.93112
H     0.79889  -4.55492  -0.77402
H     0.67535  -3.16903  -1.79003
H    -2.20978  -1.81946   1.38657
H    -3.87287   1.36405   1.02063
H    -2.69689   0.87596   2.27263
H    -3.98591  -0.25507   1.76017
H    -2.36670   1.81950  -0.67394
