35
Generated by autodE on: 2022-10-07. E = -1028.328854 Ha
C    -0.69526   2.47747   1.73431
C    -1.66043   1.38200   1.38597
O    -2.48851   0.96602   2.18178
C    -1.66372   0.84259  -0.04543
C    -1.77743  -0.69304  -0.10932
C    -2.57345  -1.16207  -1.35919
O    -3.70367  -0.62771  -1.50451
O    -2.06579  -2.03569  -2.10780
C    -0.30114  -1.11903  -0.04599
C     0.07030  -1.51989   1.40705
O     0.38941  -0.60789   2.21175
O    -0.03266  -2.74614   1.66825
N     0.40623   0.06166  -0.54304
C     1.76034   0.25774  -0.43273
C     2.62266  -0.83497  -0.16400
C     4.00041  -0.64355  -0.07509
C     4.57094   0.62328  -0.25259
C     3.72364   1.70399  -0.52358
C     2.34208   1.53522  -0.61706
N    -0.45265   1.16865  -0.79349
C    -0.66500   1.33581  -2.23443
H    -0.84374   2.78456   2.77811
H    -0.84351   3.33742   1.06217
H     0.33515   2.12620   1.58295
H    -2.53861   1.30749  -0.52419
H    -2.34100  -1.06115   0.75966
H    -0.14289  -1.99042  -0.69570
H     2.20856  -1.83410  -0.02504
H     4.63956  -1.50521   0.13683
H     5.65177   0.76363  -0.18401
H     4.14348   2.70380  -0.66615
H     1.69574   2.38614  -0.82557
H     0.28337   1.63681  -2.70415
H    -1.01703   0.41482  -2.73207
H    -1.39566   2.14079  -2.39810
