25
Generated by autodE on: 2022-10-07. E = -573.226790 Ha
C     3.23045  -1.57260  -0.35626
C     2.80014  -0.15642  -0.02726
O     3.64496   0.70428   0.26245
C     1.37395   0.04645  -0.08304
N     0.72910   1.21296   0.12101
C     1.49334   2.45520   0.36394
N    -0.55073   1.40860   0.09663
C    -1.40437   0.29212  -0.00003
C    -2.34209   0.26334  -1.04507
C    -3.27945  -0.76989  -1.12240
C    -3.30488  -1.77376  -0.15034
C    -2.38391  -1.73749   0.90439
C    -1.43608  -0.71811   0.98218
H     4.32242  -1.65388  -0.27591
H     2.75525  -2.29156   0.33072
H     2.91540  -1.84371  -1.37712
H     0.74132  -0.80623  -0.31519
H     0.76219   3.26617   0.41685
H     2.04619   2.36025   1.30482
H     2.20670   2.61257  -0.45153
H    -2.32351   1.05914  -1.79240
H    -3.99709  -0.78535  -1.94623
H    -4.04187  -2.57787  -0.20827
H    -2.40586  -2.51032   1.67666
H    -0.72374  -0.69277   1.80933
