25
Generated by autodE on: 2022-10-13. E = -573.223419 Ha
C    -2.15699   0.09600   2.24632
C    -2.97786   0.35272   1.00948
O    -4.19804   0.57233   1.10466
C    -2.39047   0.38760  -0.31096
N    -1.11108   0.15797  -0.66024
C    -0.78982   0.44738  -2.08786
N    -0.24822  -0.35125   0.16136
C     1.11707  -0.30283  -0.11314
C     1.87639  -1.42725   0.27643
C     3.25968  -1.44340   0.11169
C     3.92205  -0.33162  -0.42290
C     3.18207   0.80022  -0.78106
C     1.79541   0.82381  -0.62827
H    -2.77630   0.31819   3.12652
H    -1.82881  -0.95420   2.27899
H    -1.23943   0.70256   2.25294
H    -3.05600   0.65892  -1.12766
H     0.05287  -0.17507  -2.40235
H    -0.54575   1.50880  -2.20959
H    -1.67677   0.20676  -2.68296
H     1.35384  -2.28661   0.70128
H     3.82668  -2.32985   0.40625
H     5.00711  -0.34255  -0.54676
H     3.69019   1.68325  -1.17639
H     1.24205   1.72918  -0.87773
