35
Generated by autodE on: 2022-10-07. E = -1028.265939 Ha. Imaginary frequency = -312.2 cm-1
C    -0.80590   1.91702   2.09949
C    -1.88208   1.67272   1.07787
O    -3.06756   1.87770   1.34798
C    -1.55696   1.19292  -0.27838
C    -1.85640  -0.95840   0.08224
C    -2.71568  -1.19696  -1.14447
O    -3.95257  -0.98854  -1.00607
O    -2.15543  -1.58341  -2.21110
C    -0.54749  -1.43374   0.18873
C    -0.00089  -1.91296   1.51438
O    -0.47889  -1.42565   2.57683
O     0.89241  -2.80694   1.46816
N     0.55136   0.43682   0.00238
C     1.91322   0.50886  -0.29261
C     2.73939  -0.60876  -0.05233
C     4.11695  -0.52208  -0.25548
C     4.70890   0.66785  -0.69493
C     3.89580   1.78292  -0.92425
C     2.51658   1.71261  -0.72640
N    -0.29466   1.10412  -0.77116
C    -0.17101   1.04123  -2.24344
H    -1.21611   2.55980   2.89098
H     0.09238   2.36761   1.65559
H    -0.50565   0.94970   2.52894
H    -2.32859   1.41989  -1.01433
H    -2.41844  -0.84331   1.01178
H    -0.09923  -1.88515  -0.69924
H     2.28932  -1.53756   0.29883
H     4.73715  -1.40276  -0.06814
H     5.78821   0.72699  -0.85156
H     4.33862   2.72561  -1.25651
H     1.89689   2.59608  -0.88901
H     0.88016   1.11477  -2.53514
H    -0.59624   0.08753  -2.58683
H    -0.72692   1.87813  -2.68299
