29
Generated by autodE on: 2022-06-16. E = -687.820523 Ha
C    -2.41880  -0.93676  -0.92813
C    -1.69998  -0.32066   0.27094
C    -2.61097  -0.32706   1.48779
O    -0.56124  -1.19529   0.60143
C     0.63466  -0.73099   0.01728
C     1.17761  -1.74964  -0.91130
N     1.57121  -2.55157  -1.64936
C     1.62381  -0.54470   1.11310
N     2.32986  -0.47642   2.02928
C     0.26558   0.57397  -0.74813
C     1.37026   1.57392  -0.92219
O     2.53468   1.35753  -0.66256
C    -1.02469   1.05688  -0.03288
C    -1.86836   1.95379  -0.94114
C    -0.66947   1.82561   1.25040
H    -3.35413  -0.39959  -1.13916
H    -1.80209  -0.93263  -1.83842
H    -2.66942  -1.98103  -0.69149
H    -2.06584  -0.06739   2.40387
H    -3.05455  -1.32518   1.61872
H    -3.42922   0.39409   1.34447
H    -0.00453   0.28733  -1.77859
H     1.04580   2.54503  -1.35972
H    -2.03951   1.50354  -1.92824
H    -1.36603   2.92104  -1.09177
H    -2.84442   2.15386  -0.47320
H    -0.04248   2.69722   1.00665
H    -0.12446   1.21132   1.98103
H    -1.57904   2.20223   1.73873
