14
Generated by autodE on: 2022-06-16. E = -270.683208 Ha
C    -1.21351   0.81907   0.61366
C    -0.70629  -0.50120   0.10835
C    -1.67962  -1.63700   0.13468
C     0.55928  -0.68949  -0.35631
C     1.59571   0.32853  -0.43746
O     1.49034   1.51074  -0.11879
H    -0.57221   1.20821   1.41958
H    -1.18700   1.57835  -0.18474
H    -2.24453   0.73268   0.98417
H    -2.57740  -1.37510  -0.45261
H    -2.03245  -1.80473   1.16756
H    -1.25301  -2.57093  -0.25627
H     0.85182  -1.68411  -0.70532
H     2.57003  -0.04490  -0.83645
