15
Generated by autodE on: 2022-07-27. E = -417.068415 Ha
C    -1.15169   1.27471  -1.55335
C    -1.35463   0.98395  -0.11988
C    -2.48856   1.54888   0.63989
O    -0.57143   0.23379   0.55210
C     0.57681  -0.46749   0.21681
C     1.16564  -0.49760  -1.05193
N     1.72210  -0.57600  -2.08081
C     1.12236  -1.17718   1.29437
N     1.59394  -1.77763   2.18309
H    -1.15021   0.33810  -2.13496
H    -0.17368   1.75988  -1.70857
H    -1.94768   1.93239  -1.92088
H    -3.43293   1.24950   0.15300
H    -2.44663   2.65048   0.58091
H    -2.47727   1.22197   1.68637
