49
Generated by autodE on: 2022-10-08. E = -1141.983286 Ha
C    -2.57690   3.09306  -2.32416
N    -1.76496   2.04764  -1.72728
C    -1.81225   1.74131  -0.42674
O    -2.53364   2.30850   0.40016
C    -0.92480   0.57973   0.05412
C    -1.83023  -0.65682   0.20622
C    -2.35485  -1.18265  -0.98898
C    -3.13905  -2.33367  -0.98067
C    -3.41565  -2.98648   0.22564
C    -2.90827  -2.46728   1.41634
C    -2.12579  -1.30746   1.41078
N     0.16207   0.24740  -0.88146
C     1.11287  -0.53361  -0.13853
C     0.75048  -1.97061  -0.13672
N     0.55582  -3.13368  -0.17726
C     2.55019  -0.40771  -0.62903
C     3.59403  -0.88086   0.17896
C     4.91353  -0.79061  -0.26468
C     5.19521  -0.24576  -1.52135
C     4.15242   0.20545  -2.33370
C     2.82876   0.12222  -1.89405
N     0.97532  -0.02794   1.34030
C    -0.10175   1.07104   1.30816
N     0.62379   2.25991   0.90398
N    -0.81749   1.10353   2.53858
C    -0.23703   1.89625   3.61949
H    -2.92767   2.76687  -3.31251
H    -3.44210   3.29269  -1.68039
H    -2.00341   4.02638  -2.44332
H    -1.14587   1.51361  -2.32973
H    -2.13113  -0.69885  -1.93980
H    -3.53050  -2.72653  -1.92163
H    -4.02377  -3.89393   0.23376
H    -3.11526  -2.96605   2.36589
H    -1.73349  -0.91981   2.34731
H     0.63118   1.12017  -1.13387
H     3.38602  -1.32490   1.15540
H     5.72252  -1.15264   0.37293
H     6.22836  -0.17804  -1.86889
H     4.36442   0.62442  -3.31947
H     2.02552   0.46651  -2.54519
H     0.68405  -0.77856   1.98072
H     1.87337   0.33641   1.68890
H     1.35108   2.48315   1.58630
H    -0.02443   3.04999   0.91218
H    -1.77085   1.40271   2.33228
H    -0.16045   2.97451   3.39278
H    -0.86361   1.77754   4.51416
H     0.76923   1.52515   3.86770
