36
Generated by autodE on: 2022-10-14. E = -896.732196 Ha
C    -3.34821   3.62507  -0.19203
N    -2.80083   2.29559  -0.01219
C    -1.47582   2.06874  -0.03670
O    -0.64501   2.98257  -0.21740
C    -1.00810   0.67124   0.12499
N     0.31049   0.58559  -0.03032
C     1.23494  -0.39393   0.09658
C     0.88645  -1.63139   0.67829
N     0.66356  -2.66766   1.17136
C     2.61706  -0.14786  -0.32394
C     3.65224  -1.01416   0.09064
C     4.97311  -0.78314  -0.28921
C     5.30147   0.31777  -1.08830
C     4.28407   1.17785  -1.51422
C     2.95760   0.94644  -1.14951
C    -1.89048  -0.49014   0.31363
C    -1.86418  -1.55518  -0.60818
C    -2.72291  -2.64249  -0.45533
C    -3.62058  -2.68616   0.61715
C    -3.65605  -1.63369   1.53674
C    -2.79822  -0.54210   1.38853
H    -4.42730   3.59280   0.00091
H    -3.18264   3.99758  -1.21658
H    -2.88213   4.33703   0.50582
H    -3.43372   1.50968   0.09059
H     0.68334   1.52294  -0.25961
H     3.41673  -1.87074   0.72547
H     5.75494  -1.46747   0.04891
H     6.33753   0.49854  -1.38269
H     4.52043   2.03286  -2.15214
H     2.18704   1.61652  -1.53745
H    -1.16951  -1.52372  -1.45018
H    -2.69367  -3.46018  -1.17910
H    -4.29152  -3.54009   0.73522
H    -4.35033  -1.66458   2.37951
H    -2.81807   0.27027   2.11765
