13
Generated by autodE on: 2022-10-08. E = -245.298500 Ha
C     1.78853   0.65798   0.52828
N     0.80507   0.22590  -0.45029
C    -0.43424  -0.16047  -0.13839
N    -1.27783  -0.53550  -1.10437
N    -0.83405  -0.17902   1.13468
H     2.01070  -0.13981   1.25483
H     2.71363   0.90856  -0.00281
H     1.44837   1.55242   1.07463
H     1.06109   0.22366  -1.43268
H    -2.22224  -0.82800  -0.87891
H    -0.98497  -0.52756  -2.07518
H    -0.22116   0.12176   1.88279
H    -1.78339  -0.44940   1.36753
