49
Generated by autodE on: 2022-10-08. E = -1141.975900 Ha. Imaginary frequency = -430.1 cm-1
C    -3.37358   3.02697  -1.09671
N    -2.69923   1.83131  -0.62948
C    -1.36871   1.71628  -0.61175
O    -0.59176   2.56832  -1.07545
C    -0.79249   0.48427   0.06631
C    -1.66397  -0.75249   0.00645
C    -1.68054  -1.47298  -1.20378
C    -2.45177  -2.62530  -1.34310
C    -3.23532  -3.07738  -0.27687
C    -3.24967  -2.35503   0.91747
C    -2.47696  -1.19836   1.05759
N     0.49360   0.30062  -0.49226
C     1.36129  -0.66749  -0.33166
C     0.96961  -1.90334   0.29419
N     0.77510  -2.97094   0.70892
C     2.73159  -0.56516  -0.83522
C     3.69648  -1.51171  -0.43310
C     5.01197  -1.40456  -0.87800
C     5.38052  -0.36383  -1.73492
C     4.42491   0.57233  -2.15159
C     3.11027   0.47663  -1.70991
N     0.22911  -0.09378   2.33375
C    -0.34855   1.08083   1.80682
N     0.62576   2.09139   1.69402
N    -1.57107   1.49614   2.37600
C    -1.93336   2.90237   2.42711
H    -3.40233   3.80574  -0.31594
H    -4.40308   2.77245  -1.37850
H    -2.85047   3.43267  -1.97266
H    -3.24643   1.10818  -0.17253
H    -1.07438  -1.13224  -2.04586
H    -2.44064  -3.17149  -2.28894
H    -3.83692  -3.98320  -0.38044
H    -3.86716  -2.68929   1.75412
H    -2.52439  -0.64252   1.98979
H     0.81875   1.17409  -0.93491
H     3.42078  -2.32346   0.24085
H     5.75218  -2.13769  -0.55228
H     6.41155  -0.28310  -2.08575
H     4.70615   1.37756  -2.83279
H     2.38200   1.20368  -2.07336
H    -0.44436  -0.77203   2.68041
H     0.93605   0.11275   3.03816
H     1.49534   1.75162   1.28747
H     0.31243   2.90751   1.17241
H    -1.76828   0.99769   3.23852
H    -1.88735   3.36574   1.43284
H    -2.97167   2.98762   2.77652
H    -1.28830   3.49314   3.10300
