39
Generated by autodE on: 2022-06-18. E = -843.954600 Ha
C     4.53027   1.78011  -1.26287
C     3.52430   1.46574  -0.42183
C     3.51998   1.91413   1.01596
C     2.38617   0.67930  -0.91039
C     1.33819   0.28722  -0.16359
C     0.16375  -0.45783  -0.70551
C    -0.15328  -1.82985  -0.02564
C     0.25688  -1.92506   1.45438
C     0.45467  -2.99554  -0.81160
C    -1.67111  -1.79869  -0.12647
C    -2.45380  -2.97755   0.15509
N    -3.04256  -3.95084   0.38969
N    -2.24243  -0.70038  -0.44218
C    -1.20534   0.32436  -0.65067
C    -1.46804   1.08658  -1.94588
C    -1.23174   1.25658   0.56546
O    -1.62992   0.93903   1.66737
O    -0.70015   2.44558   0.29166
C    -0.52250   3.34947   1.39351
H     5.38828   2.37176  -0.93149
H     4.51822   1.45190  -2.30673
H     3.48744   1.05105   1.70157
H     2.62662   2.52309   1.23522
H     4.41380   2.50879   1.25124
H     2.40525   0.41244  -1.97353
H     1.30974   0.54297   0.89894
H     0.33849  -0.65953  -1.77210
H    -0.13797  -1.08527   2.04122
H     1.35363  -1.93201   1.53937
H    -0.12259  -2.86198   1.89096
H     1.55121  -2.89622  -0.82123
H     0.09904  -3.00546  -1.85312
H     0.20484  -3.96158  -0.34588
H    -2.39951   1.66801  -1.88474
H    -0.63574   1.77197  -2.15498
H    -1.54967   0.37212  -2.77766
H    -1.49566   3.62143   1.82611
H    -0.02864   4.23525   0.97874
H     0.10703   2.88705   2.16697
