16
Generated by autodE on: 2022-06-18. E = -492.340659 Ha
C    -3.58067  -0.46962  -0.06457
O    -2.24989  -1.00593  -0.12320
C    -1.25073  -0.15692   0.11931
O    -1.39340   1.02199   0.38270
C     0.06706  -0.84391   0.03068
C     0.19432  -2.30610  -0.27204
N     1.08686  -0.10054   0.23651
C     2.00422   0.62775   0.57455
C     2.85044   1.45666  -0.16213
N     3.62906   2.18683  -0.63971
H    -3.78853  -0.07279   0.93954
H    -3.70303   0.33082  -0.80841
H    -4.25197  -1.30572  -0.29044
H    -0.25643  -2.53173  -1.25098
H     1.24936  -2.60758  -0.28283
H    -0.34403  -2.89594   0.48642
