39
Generated by autodE on: 2022-06-18. E = -843.859995 Ha. Imaginary frequency = -355.5 cm-1
C     3.88811   2.53768  -0.51856
C     3.16703   1.63959   0.19037
C     3.17096   1.65042   1.69795
C     2.33402   0.65966  -0.49596
C     1.55770  -0.27507   0.11484
C     0.70827  -1.20482  -0.58330
C     0.08294  -2.30914  -0.00092
C     0.36961  -2.71047   1.42976
C    -0.35367  -3.43591  -0.91178
C    -1.98795  -1.55215   0.34061
C    -2.87813  -2.30257   1.12058
N    -3.48489  -3.03875   1.79404
N    -2.10727  -0.50614  -0.28391
C    -1.44431   0.39559  -0.97142
C    -1.56731   0.46215  -2.46089
C    -0.86320   1.48973  -0.17141
O    -0.87559   1.54179   1.04830
O    -0.28462   2.40958  -0.95166
C     0.28940   3.55011  -0.29767
H     4.50427   3.29360  -0.02402
H     3.87418   2.53651  -1.61289
H     2.15021   1.79543   2.08935
H     3.52952   0.68988   2.10363
H     3.81196   2.45241   2.09012
H     2.33078   0.70907  -1.59100
H     1.56049  -0.32598   1.20625
H     0.69817  -1.13590  -1.67489
H     1.34595  -3.22387   1.48732
H     0.40176  -1.85063   2.11305
H    -0.38953  -3.41409   1.80260
H     0.49005  -4.13297  -1.06793
H    -1.17818  -4.02409  -0.47962
H    -0.66742  -3.06102  -1.89744
H    -0.60267   0.76274  -2.89314
H    -1.85496  -0.51753  -2.86534
H    -2.31829   1.20920  -2.77051
H     0.83230   4.10128  -1.07371
H    -0.50850   4.17719   0.12744
H     0.97885   3.24283   0.49772
