59
Generated by autodE on: 2022-06-26. E = -1438.534853 Ha
C     3.27399   1.40696   1.08933
O     2.39932   1.85937   0.06221
C     1.35825   1.00517  -0.35602
C     1.98935  -0.26918  -0.96783
O     2.47454  -0.18502  -2.08707
C     2.08647  -1.51657  -0.18788
C     2.86397  -2.64663  -0.78854
C     1.48571  -1.62913   1.02900
C     1.60563  -2.87763   1.84495
C     0.72569  -0.50698   1.63167
O     0.42927  -0.53895   2.81544
C     0.31198   0.70036   0.76828
O     0.21414   1.75347   1.68961
C    -0.20311   3.05708   1.30421
C    -1.03221   0.43283  -0.07518
C    -2.31579   0.82405   0.67830
C    -2.46281   0.73193   2.07004
C    -3.68203   1.04591   2.68010
C    -4.77755   1.44750   1.91257
C    -4.64304   1.53232   0.52333
C    -3.42394   1.22455  -0.08398
C    -1.14218  -1.06169  -0.45847
C    -1.58232  -2.00524   0.48427
C    -1.56742  -3.37093   0.19622
C    -1.12428  -3.82507  -1.04978
C    -0.71090  -2.89472  -2.00419
C    -0.72163  -1.52653  -1.71130
N    -0.84666   1.29470  -1.24975
C     0.50766   1.77346  -1.39988
C     0.98757   1.73483  -2.84983
C     2.19991   2.55600  -3.17942
O     0.31721   1.17974  -3.70763
H     3.86648   0.53101   0.77799
H     3.95936   2.24031   1.29323
H     2.72636   1.17054   2.01499
H     3.22817  -2.38654  -1.78859
H     2.23804  -3.54975  -0.85977
H     3.72679  -2.90377  -0.15261
H     1.41996  -3.76642   1.22534
H     0.90734  -2.87147   2.68925
H     2.63025  -2.97287   2.24468
H     0.63854   3.64013   0.90067
H    -0.56476   3.54477   2.22059
H    -1.02424   3.03888   0.57502
H    -1.62296   0.42630   2.68965
H    -3.77039   0.97524   3.76704
H    -5.72845   1.69238   2.39182
H    -5.49085   1.84093  -0.09329
H    -3.33196   1.29966  -1.16789
H    -1.92536  -1.67826   1.46510
H    -1.90214  -4.08344   0.95354
H    -1.10701  -4.89381  -1.27450
H    -0.36591  -3.22881  -2.98534
H    -0.36962  -0.83389  -2.47382
H    -1.18372   0.88047  -2.11377
H     0.60302   2.83582  -1.11715
H     1.85892   3.58529  -3.38759
H     2.68845   2.16296  -4.08063
H     2.90136   2.59808  -2.33680
