33
Generated by autodE on: 2022-06-26. E = -749.056008 Ha
C     4.35662   1.59795   1.61776
C     3.34647   0.53444   1.25895
O     3.62505  -0.68344   1.43580
C     2.09860   0.94630   0.73361
N     1.21608  -0.06311   0.47630
C    -0.01708  -0.10847   0.00163
C    -0.71038  -1.40357  -0.00196
C    -0.37717  -2.41957   0.92030
C    -1.01670  -3.65765   0.87811
C    -2.01041  -3.90840  -0.07442
C    -2.35885  -2.90637  -0.98653
C    -1.71916  -1.66801  -0.95267
C    -0.67611   1.11383  -0.49747
C    -0.01499   1.99321  -1.37602
C    -0.66260   3.13128  -1.85742
C    -1.97448   3.41585  -1.46321
C    -2.63999   2.54895  -0.59045
C    -1.99988   1.40372  -0.11567
H     4.60511   1.51987   2.68934
H     5.29031   1.41881   1.05919
H     3.99889   2.61513   1.40480
H     1.80894   1.97959   0.57032
H     1.64956  -0.96223   0.73513
H     0.36781  -2.23467   1.69748
H    -0.74733  -4.42727   1.60507
H    -2.51459  -4.87699  -0.10129
H    -3.13136  -3.09252  -1.73621
H    -1.98802  -0.90181  -1.68090
H     1.00468   1.77497  -1.69822
H    -0.14113   3.79827  -2.54774
H    -2.47771   4.31023  -1.83770
H    -3.66398   2.76520  -0.27735
H    -2.52388   0.72863   0.56334
