33
Generated by autodE on: 2022-07-27. E = -749.055999 Ha
C     2.81916   3.11983  -2.53948
C     2.20439   1.77144  -2.24962
O     2.50012   0.77761  -2.96880
C     1.30639   1.66485  -1.16112
N     0.82380   0.40917  -0.92863
C    -0.00283  -0.10732  -0.03556
C    -0.71480   0.76516   0.91875
C    -0.74644   0.43324   2.28639
C    -1.42636   1.24328   3.19660
C    -2.09534   2.38935   2.75499
C    -2.07865   2.72238   1.39628
C    -1.39034   1.92136   0.48468
C    -0.17853  -1.56516  -0.01391
C    -1.37046  -2.13163   0.48602
C    -1.55854  -3.51315   0.48313
C    -0.56516  -4.36209  -0.01644
C     0.62370  -3.81453  -0.51113
C     0.81973  -2.43448  -0.50592
H     2.57448   3.41861  -3.57233
H     2.47640   3.90208  -1.84772
H     3.91756   3.04177  -2.48086
H     1.02616   2.48630  -0.50909
H     1.23076  -0.24086  -1.61793
H    -0.22763  -0.46170   2.63474
H    -1.43376   0.97800   4.25625
H    -2.63093   3.02071   3.46770
H    -2.60842   3.61006   1.04310
H    -1.39236   2.18408  -0.57467
H    -2.16063  -1.48087   0.86242
H    -2.49197  -3.92977   0.86859
H    -0.71365  -5.44422  -0.01495
H     1.41255  -4.46823  -0.89030
H     1.77165  -2.03481  -0.86210
