26
Generated by autodE on: 2022-06-26. E = -689.460853 Ha
C     2.60610   1.87024   0.55029
O     1.81345   1.41780  -0.55229
C     0.73986   0.63499  -0.23752
C     0.68634  -0.69898  -0.51212
O     1.61493  -1.48656  -1.05419
C     2.93376  -1.02574  -1.36593
C    -0.56718  -1.47547  -0.20815
O    -0.59393  -2.67286  -0.45785
C    -1.73144  -0.77952   0.39726
C    -2.95362  -1.59384   0.69002
C    -1.66299   0.54578   0.67642
C    -2.80576   1.28547   1.29697
C    -0.43209   1.32452   0.34392
O    -0.38570   2.53829   0.53682
H     3.41424   2.48013   0.12518
H     3.04165   1.01427   1.09221
H     2.01411   2.48265   1.24614
H     3.46273  -1.90593  -1.75283
H     3.44431  -0.65772  -0.46450
H     2.90807  -0.23986  -2.13168
H    -2.82651  -2.63316   0.36529
H    -3.17634  -1.58686   1.77004
H    -3.83574  -1.16863   0.18419
H    -3.08414   0.83194   2.26246
H    -3.70056   1.22854   0.65476
H    -2.55498   2.34024   1.45831
