59
Generated by autodE on: 2022-06-26. E = -1438.519941 Ha. Imaginary frequency = -431.0 cm-1
C     2.60366   3.21793   0.50783
O     1.61053   2.70364  -0.37794
C     1.31808   1.35869  -0.21237
C     2.34467   0.40686  -0.75714
O     3.24887   0.81847  -1.48249
C     2.20806  -1.02310  -0.42823
C     3.00816  -1.95049  -1.29585
C     1.47516  -1.37601   0.66625
C     1.39578  -2.76917   1.20586
C     0.68842  -0.36822   1.46227
O     0.11081  -0.74761   2.51492
C     0.66138   0.97413   0.99245
O    -0.07382   1.95521   1.59770
C     0.02857   2.13404   3.00867
C    -1.54202  -0.40219  -0.67510
C    -2.32217   0.52934   0.15071
C    -2.63427   0.20284   1.48567
C    -3.37043   1.08340   2.27670
C    -3.82438   2.29502   1.74816
C    -3.54124   2.61881   0.41673
C    -2.79596   1.74777  -0.37577
C    -1.81909  -1.84872  -0.66429
C    -3.04947  -2.34468  -0.18326
C    -3.31932  -3.71214  -0.19473
C    -2.37340  -4.61433  -0.69067
C    -1.15529  -4.13645  -1.18577
C    -0.88009  -2.77197  -1.17562
N    -0.67334   0.03158  -1.58745
C     0.00630   1.23649  -1.68862
C     0.74273   1.32644  -2.97973
C     1.26727   2.66044  -3.41322
O     0.94829   0.30205  -3.63201
H     3.56050   2.68512   0.38983
H     2.74520   4.27325   0.23775
H     2.27925   3.15406   1.55832
H     2.84822  -1.69507  -2.35559
H     4.08918  -1.84259  -1.10497
H     2.73941  -3.00243  -1.14618
H     1.83059  -3.51444   0.53151
H     0.35217  -3.04042   1.41814
H     1.92945  -2.81979   2.17040
H     1.08067   2.09128   3.33605
H    -0.54975   1.38005   3.55817
H    -0.37291   3.13456   3.22273
H    -2.26507  -0.72680   1.91238
H    -3.58794   0.82115   3.31434
H    -4.40401   2.98259   2.36825
H    -3.91036   3.55337  -0.01132
H    -2.61284   2.00344  -1.41987
H    -3.80995  -1.65479   0.17996
H    -4.27972  -4.07367   0.17872
H    -2.58525  -5.68584  -0.69483
H    -0.40758  -4.83210  -1.57214
H     0.09143  -2.43652  -1.53803
H    -0.29230  -0.66078  -2.24005
H    -0.51286   2.13364  -1.36009
H     1.45511   2.64784  -4.49527
H     0.58513   3.47764  -3.14154
H     2.22094   2.83254  -2.88935
