30
Generated by autodE on: 2022-06-06. E = -671.815924 Ha
C     4.42018   0.00354   2.26943
O     3.79140  -0.28485   1.02238
C     2.44307  -0.11850   0.97056
O     1.80365   0.26360   1.96803
C     1.85921  -0.41340  -0.30228
C     2.63621  -0.84447  -1.50252
N     0.50681  -0.20163  -0.28328
C    -0.51864  -0.31394  -1.11370
C    -0.39719  -0.88565  -2.49117
C    -1.83586   0.11022  -0.62199
C    -1.99761   0.90277   0.54038
C    -3.26269   1.27738   0.98656
C    -4.40995   0.88821   0.28452
C    -4.26943   0.11925  -0.87401
C    -3.00497  -0.26263  -1.32386
H     5.49004  -0.19245   2.12439
H     4.27114   1.05598   2.55630
H     4.02937  -0.64190   3.07108
H     3.69882  -0.90441  -1.24121
H     2.54088  -0.13458  -2.34231
H     2.33118  -1.83772  -1.87416
H     0.25887   0.12460   0.66010
H    -0.92196  -0.24860  -3.21956
H     0.63850  -0.99627  -2.81631
H    -0.87167  -1.88142  -2.53840
H    -1.13146   1.26247   1.10109
H    -3.35220   1.89222   1.88530
H    -5.40024   1.18865   0.63386
H    -5.15367  -0.19108  -1.43599
H    -2.93030  -0.87083  -2.22519
