30
Generated by autodE on: 2022-07-27. E = -671.815191 Ha
C    -4.42043   2.07227  -0.65416
O    -3.30399   1.43098  -0.04296
C    -2.35519   0.93235  -0.88573
O    -2.46416   1.05022  -2.11894
C    -1.27927   0.27429  -0.21886
C    -1.23317  -0.00069   1.24506
N    -0.38300  -0.28010  -1.10060
C     0.79283  -0.87611  -0.97659
C     1.27287  -1.67937  -2.14762
C     1.64548  -0.74061   0.20518
C     2.49418  -1.80061   0.59318
C     3.37375  -1.65448   1.66470
C     3.44886  -0.44066   2.35814
C     2.63953   0.62940   1.96223
C     1.74604   0.48460   0.90102
H    -5.06101   2.41947   0.16653
H    -4.10199   2.93119  -1.26501
H    -4.98313   1.37323  -1.29247
H    -2.24209   0.09622   1.66685
H    -0.87456  -1.02673   1.43384
H    -0.56746   0.66917   1.81941
H    -0.75415  -0.24726  -2.05830
H     0.66356  -1.47347  -3.04053
H     1.19625  -2.76185  -1.94200
H     2.32930  -1.46697  -2.37309
H     2.44792  -2.75173   0.06001
H     4.00765  -2.49385   1.96062
H     4.14147  -0.32673   3.19519
H     2.70862   1.58907   2.48002
H     1.14776   1.33840   0.58077
