26
Generated by autodE on: 2022-05-26. E = -1451.732564 Ha
C     3.58001   1.36077   0.43490
O     2.41551   0.53771   0.63837
C     1.92020  -0.07142  -0.42655
O     2.36203  -0.01504  -1.54888
C     0.70075  -0.88780  -0.05844
O    -0.26507  -0.88205  -1.13419
N    -1.19406  -1.78766  -0.59345
O    -0.29965  -2.94312  -0.30194
C     0.91823  -2.41121   0.01694
O     1.88045  -3.06187   0.29953
C    -1.46921  -1.22517   0.75918
C    -2.45063  -0.00750   0.83085
O    -1.91965   0.61697   2.00795
C    -0.60523   0.89639   1.48687
C    -0.95338   1.60104   0.18228
Cl    0.06644   2.69593  -0.66041
C    -2.08958   1.02382  -0.22308
F    -2.73844   1.15921  -1.36492
C    -0.13352  -0.56739   1.19368
H     4.40036   0.75886   0.02069
H     3.84621   1.74918   1.42357
H     3.33753   2.18496  -0.25024
H    -1.82505  -2.03692   1.39882
H    -3.51002  -0.26416   0.92973
H     0.00901   1.45271   2.20020
H     0.30441  -1.01060   2.09401
