13
Generated by autodE on: 2022-05-26. E = -585.238009 Ha
C    -3.39598  -0.44415   0.09012
O    -1.98560  -0.69684   0.22247
C    -1.17170   0.29625  -0.11920
O    -1.51545   1.38899  -0.52413
C     0.23795  -0.05915   0.03866
O     0.61343  -1.26935   0.48009
N     1.90760  -1.40588   0.53788
O     2.42664  -0.28070   0.13331
C     1.40006   0.70155  -0.23167
O     1.69788   1.79215  -0.62760
H    -3.64573  -0.22915  -0.95858
H    -3.69160   0.40488   0.72240
H    -3.89506  -1.36112   0.42193
