45
Generated by autodE on: 2022-06-04. E = -1424.658824 Ha
C    -3.84159   0.33598  -1.27111
C    -2.73270  -0.12328  -0.37022
O    -2.90864  -0.92859   0.51964
C    -1.30742   0.37562  -0.70156
C    -1.23937   1.82236  -1.26629
C    -1.74767   2.81569  -0.19094
C    -0.53801   2.93932   0.77411
C     0.41975   1.84283   0.25832
C     0.27242   2.09460  -1.25208
C    -0.20151   0.40360   0.45268
C    -0.67459   0.24666   1.91955
F     0.25514   0.77456   2.74522
F    -0.85455  -1.01406   2.33134
F    -1.82246   0.89741   2.16496
C     0.84447  -0.72372   0.02898
C     0.57523  -2.08801   0.56043
N     0.45969  -3.20226   0.85628
C     2.30930  -0.40820   0.33009
C     3.15864   0.05953  -0.67869
C     4.48811   0.36991  -0.38005
C     4.97491   0.21230   0.91967
C     4.12841  -0.26850   1.92361
C     2.80160  -0.58564   1.63053
O     0.68233  -0.82663  -1.38518
C    -0.67284  -0.66640  -1.74112
C    -1.35746  -1.98870  -1.74554
N    -1.87057  -3.02526  -1.79819
C    -0.69900  -0.19189  -3.14010
N    -0.72163   0.14880  -4.24608
H    -3.57345   0.14184  -2.32303
H    -3.99956   1.42041  -1.17684
H    -4.76294  -0.20015  -1.01270
H    -1.74890   1.91958  -2.23038
H    -2.65491   2.46682   0.31937
H    -1.99136   3.77507  -0.66705
H    -0.02589   3.90163   0.63614
H    -0.80467   2.87055   1.83232
H     1.42902   1.90925   0.67366
H     0.87171   1.44915  -1.90034
H     0.50477   3.13755  -1.50646
H     2.78711   0.18072  -1.69500
H     5.14492   0.73447  -1.17286
H     6.01459   0.45579   1.14955
H     4.50259  -0.40525   2.94037
H     2.15335  -0.97025   2.41951
