25
Generated by autodE on: 2022-06-04. E = -762.779835 Ha
C     2.90846  -1.42161  -0.69159
C     2.02417  -0.29759  -0.22636
O     2.40644   0.86712  -0.21660
C     0.66587  -0.66418   0.24066
C    -0.41894   0.14322   0.34009
C    -0.54120   1.59216  -0.02584
F    -1.83604   1.97330  -0.03769
F     0.08896   2.40028   0.84730
F    -0.05352   1.87055  -1.25028
C    -1.61424  -0.72165   0.68484
C    -1.91727  -1.53833  -0.61843
C    -0.68433  -2.47565  -0.73356
C     0.17384  -2.08061   0.51339
C    -0.93109  -1.79921   1.54969
H     3.15184  -2.07485   0.16291
H     3.83477  -1.01798  -1.12018
H     2.38441  -2.04782  -1.43104
H    -2.47776  -0.19277   1.10218
H    -2.04559  -0.87824  -1.48745
H    -2.84825  -2.10762  -0.48295
H    -0.97579  -3.53348  -0.66089
H    -0.12536  -2.34214  -1.67016
H     0.94853  -2.80683   0.78225
H    -0.54084  -1.40361   2.49878
H    -1.57679  -2.66865   1.74276
