20
Generated by autodE on: 2022-07-27. E = -661.819456 Ha
N    -3.43504  -1.97231  -0.75779
C    -2.60701  -1.20751  -1.06719
C    -1.64833  -0.27750  -1.50072
C    -1.76189   0.37289  -2.74303
N    -1.87615   0.90175  -3.77847
O    -0.56224   0.06914  -0.78705
C    -0.08369  -0.27285   0.36536
C    -0.75450  -1.23125   1.18420
N    -1.25203  -2.00355   1.89737
C     1.14989   0.34278   0.79749
C     1.79413   1.29882  -0.02181
C     2.98049   1.88293   0.40267
C     3.54129   1.52865   1.63850
C     2.90834   0.58349   2.45365
C     1.71924  -0.00980   2.04205
H     1.35584   1.57277  -0.98196
H     3.47626   2.62105  -0.23084
H     4.47458   1.99225   1.96524
H     3.34502   0.30742   3.41525
H     1.22968  -0.74734   2.68033
