35
Generated by autodE on: 2022-06-17. E = -898.825608 Ha
C     4.25615  -0.16310   0.51588
O     2.83440   0.05546   0.52525
C     2.12547  -0.58768  -0.39472
O     2.59691  -1.33171  -1.22816
C     0.64299  -0.36721  -0.25343
C    -0.13916  -0.24578  -1.57786
O     0.13433  -0.57692  -2.70190
O    -1.31909   0.30901  -1.22803
C    -1.24757   0.50702   0.24402
C    -2.24791   1.56771   0.68965
C    -3.17706   2.13439  -0.33227
O    -2.24950   1.88207   1.86460
C    -1.42465  -0.88458   0.88441
C    -2.67410  -1.63921   0.45994
C    -0.07865  -1.55894   0.48979
C     0.70783  -2.10646   1.67277
N     0.14693   0.80142   0.49437
C     0.60577   2.11069   0.02051
H     4.47591  -1.22677   0.68422
H     4.65758   0.44513   1.33379
H     4.68357   0.15523  -0.44512
H    -2.59142   2.62381  -1.12744
H    -3.74101   1.31961  -0.81428
H    -3.86114   2.85141   0.13842
H    -1.44176  -0.70996   1.96926
H    -3.58572  -1.09565   0.75433
H    -2.69864  -1.79370  -0.62898
H    -2.69798  -2.62649   0.94566
H    -0.24978  -2.36526  -0.23789
H     0.09000  -2.83823   2.21588
H     1.62348  -2.62119   1.34320
H     0.98709  -1.30682   2.37343
H     0.42611   2.28170  -1.05678
H     1.68031   2.20510   0.21346
H     0.08998   2.89586   0.58925
