35
Generated by autodE on: 2022-06-17. E = -898.767734 Ha. Imaginary frequency = -464.2 cm-1
C     4.31640  -0.10124   0.40348
O     2.93555   0.27456   0.30394
C     2.20296  -0.36808  -0.61132
O     2.65967  -1.22644  -1.34891
C     0.78920  -0.00372  -0.60462
C    -0.14570  -0.50359  -1.58697
O    -0.05133  -1.23816  -2.54865
O    -1.36226   0.07263  -1.23712
C    -1.19513   0.67558  -0.00367
C    -2.27759   1.64823   0.38074
C    -3.36446   1.88104  -0.62234
O    -2.24468   2.17994   1.47732
C    -1.38677  -0.90897   1.18766
C    -2.79460  -1.38703   0.88480
C    -0.29973  -1.72898   0.82317
C     0.89573  -1.96555   1.69468
N     0.14382   0.98570   0.11637
C     0.68639   1.74291   1.23702
H     4.40652  -1.16293   0.67449
H     4.74130   0.52925   1.19279
H     4.83526   0.07896  -0.54876
H    -2.93036   2.30863  -1.54098
H    -3.83206   0.92575  -0.90643
H    -4.11345   2.56294  -0.20088
H    -1.27829  -0.38357   2.14579
H    -3.54468  -0.59721   1.03995
H    -2.87867  -1.74754  -0.15122
H    -3.06007  -2.22251   1.55269
H    -0.48892  -2.49330   0.06085
H     0.65213  -2.75995   2.42637
H     1.76496  -2.32491   1.12393
H     1.18408  -1.07318   2.26696
H     1.68301   2.10362   0.97274
H     0.74997   1.12030   2.14207
H     0.02838   2.59257   1.43827
