54
Generated by autodE on: 2022-06-27. E = -1410.495445 Ha
C     3.17529   1.15410   3.57036
O     2.62238   0.80746   2.29068
C     1.34701   1.12138   2.07502
O     0.65670   1.69824   2.89099
C     0.87033   0.60596   0.69477
C     1.74465   1.21302  -0.39865
C     2.11085   0.48296  -1.53636
C     2.84743   1.08863  -2.55896
C     3.22193   2.43115  -2.45869
C     2.85308   3.16745  -1.32812
C     2.11985   2.56094  -0.30613
C    -0.63243   0.93488   0.49590
C    -1.07491   0.87280  -0.97686
C    -2.48062   0.35738  -1.15625
C    -3.09701   0.30101  -2.49171
N    -2.35582   0.78912  -3.51731
O    -4.22645  -0.18557  -2.70373
C    -3.19024  -0.16009  -0.11689
N    -2.71319  -0.28084   1.15350
C    -3.49377  -0.94568   2.18669
C    -1.30531  -0.13118   1.36699
C    -0.39403  -1.42202   1.09702
C    -0.28488  -2.18239   2.36056
N    -0.13207  -2.73624   3.36867
C    -1.04787  -2.35807   0.05338
O    -1.93992  -3.12598   0.34586
O    -0.56661  -2.19119  -1.16465
C    -1.26010  -2.85960  -2.23339
N     0.86613  -0.86107   0.68165
C     2.06270  -1.65935   0.85734
H     4.21286   0.80229   3.55493
H     2.61467   0.65727   4.37482
H     3.14296   2.24302   3.71694
H     1.81085  -0.56084  -1.62770
H     3.12702   0.50542  -3.43956
H     3.79841   2.90300  -3.25780
H     3.13632   4.21891  -1.24046
H     1.83112   3.14954   0.56862
H    -0.85478   1.92147   0.91789
H    -0.97634   1.88418  -1.40339
H    -0.38907   0.23708  -1.55305
H    -1.44011   1.19837  -3.38382
H    -2.74077   0.75262  -4.45463
H    -4.21124  -0.51038  -0.27718
H    -4.56340  -0.79659   1.98917
H    -3.25447  -0.50960   3.16771
H    -3.28926  -2.02807   2.22482
H    -1.14698   0.12462   2.41992
H    -2.31853  -2.56410  -2.23097
H    -0.77251  -2.52930  -3.15680
H    -1.17485  -3.94914  -2.11896
H     2.91352  -1.17085   0.36866
H     2.32796  -1.82368   1.91773
H     1.91384  -2.64225   0.38185
