34
Generated by autodE on: 2022-06-27. E = -952.728877 Ha
C    -4.22308   0.61538   1.72752
O    -3.55353   0.69279   0.46454
C    -2.26334   0.30381   0.44067
O    -1.67698  -0.09277   1.44430
C    -1.70061   0.38663  -0.88861
C    -2.52373   0.74668  -1.97182
N    -3.22148   1.05681  -2.85825
N    -0.39887  -0.05590  -1.14031
C    -0.17545  -0.68890  -2.45768
C     0.58222   0.03293  -0.25535
C     0.50639   1.07727   0.82528
O     0.04663   2.18816   0.66131
O     1.09928   0.66801   1.93949
C     1.12729   1.60094   3.03127
C     1.79531  -0.79088  -0.33619
C     3.06123  -0.20126  -0.14773
C     4.21447  -0.98113  -0.20414
C     4.12184  -2.35918  -0.42982
C     2.86812  -2.95515  -0.60086
C     1.71074  -2.17927  -0.55782
H    -3.70297   1.22473   2.48117
H    -4.27865  -0.42612   2.07709
H    -5.23270   1.00746   1.55695
H    -0.63549  -0.04694  -3.21872
H    -0.65300  -1.67623  -2.48344
H     0.89511  -0.76869  -2.65767
H     1.67552   2.50944   2.74455
H     1.64086   1.08732   3.85139
H     0.10129   1.86432   3.32515
H     3.14029   0.87351   0.02732
H     5.19130  -0.51165  -0.06977
H     5.02704  -2.96946  -0.46574
H     2.78975  -4.03238  -0.76275
H     0.73464  -2.65258  -0.67326
