34
Generated by autodE on: 2022-07-27. E = -952.720348 Ha
C    -3.22752  -3.13136  -1.85231
O    -2.21182  -2.27029  -1.32820
C    -1.84845  -2.47517  -0.04593
O    -2.40279  -3.30588   0.67007
C    -0.78484  -1.61418   0.41553
C    -0.49035  -1.64229   1.78823
N    -0.23148  -1.66732   2.92965
N    -0.07759  -0.72301  -0.41897
C     0.30307  -1.20759  -1.76969
C     0.36007   0.44581  -0.00327
C    -0.16794   1.01494   1.29077
O    -1.34889   1.21879   1.46790
O     0.79755   1.32394   2.13885
C     0.39922   1.91315   3.39211
C     1.24408   1.32144  -0.80106
C     0.81221   1.82745  -2.04108
C     1.63344   2.68859  -2.76850
C     2.89093   3.04655  -2.27275
C     3.32299   2.54926  -1.03914
C     2.50197   1.70045  -0.29667
H    -4.17170  -2.99929  -1.30380
H    -3.35903  -2.83858  -2.90085
H    -2.91795  -4.18514  -1.79137
H     1.32119  -0.86672  -1.98604
H     0.27113  -2.29900  -1.76658
H    -0.38848  -0.81302  -2.52076
H     1.32872   2.10667   3.93812
H    -0.23465   1.20691   3.94578
H    -0.14655   2.84986   3.21376
H    -0.17325   1.55968  -2.42478
H     1.28737   3.08280  -3.72630
H     3.53383   3.71758  -2.84688
H     4.30523   2.82518  -0.64959
H     2.83661   1.31642   0.66674
