54
Generated by autodE on: 2022-06-27. E = -1410.428715 Ha. Imaginary frequency = -230.2 cm-1
C     2.48194   0.41961   4.01358
O     2.23184   0.17402   2.62025
C     1.33773   0.96066   2.02376
O     0.81144   1.91204   2.55794
C     1.19440   0.54318   0.56170
C     2.01662   1.39225  -0.34517
C     2.01534   1.19629  -1.74300
C     2.73035   2.04458  -2.58639
C     3.47193   3.10669  -2.06105
C     3.48646   3.31439  -0.67948
C     2.76547   2.47309   0.16700
C    -0.83949   1.28747   0.19013
C    -1.18099   0.74221  -1.17930
C    -2.48741  -0.01380  -1.19542
C    -3.05462  -0.53766  -2.46655
N    -2.30967  -0.34095  -3.57486
O    -4.14194  -1.13608  -2.51283
C    -3.15662  -0.29979  -0.05961
N    -2.72589   0.13567   1.18456
C    -3.42412  -0.35140   2.37343
C    -1.62863   0.91106   1.27869
C     0.08221  -1.56618   0.99129
C    -0.10081  -1.46892   2.38159
N    -0.28236  -1.40117   3.53874
C    -0.79855  -2.46390   0.30526
O    -1.71326  -3.09355   0.85099
O    -0.57213  -2.57096  -1.02916
C    -1.45043  -3.42776  -1.75876
N     1.05852  -0.79649   0.30412
C     2.01399  -1.53224  -0.55141
H     3.24678  -0.30523   4.31355
H     1.55781   0.26114   4.58706
H     2.84481   1.44628   4.16179
H     1.45014   0.38311  -2.19000
H     2.70747   1.87015  -3.66427
H     4.03478   3.76750  -2.72406
H     4.06246   4.13832  -0.25282
H     2.79270   2.67314   1.23781
H    -0.39899   2.28094   0.27136
H    -1.18892   1.55316  -1.92478
H    -0.39073   0.04004  -1.50610
H    -1.40719   0.11815  -3.55760
H    -2.65076  -0.70529  -4.45869
H    -4.07596  -0.88350  -0.06649
H    -4.49885  -0.13699   2.28675
H    -3.02050   0.14848   3.26078
H    -3.27856  -1.43559   2.47405
H    -1.41491   1.29877   2.27396
H    -2.49697  -3.11522  -1.64134
H    -1.15263  -3.34027  -2.81042
H    -1.34725  -4.47179  -1.42616
H     2.97395  -1.00415  -0.56953
H     2.16722  -2.51975  -0.09846
H     1.65309  -1.67359  -1.57603
