45
Generated by autodE on: 2022-06-06. E = -1424.656870 Ha
C     0.31448  -3.25647  -0.12421
C    -0.45833  -2.06903   0.39353
O    -1.22251  -2.19811   1.32553
C    -0.21339  -0.69664  -0.27463
C    -0.29639  -0.83127  -1.83202
C    -1.61241  -1.56724  -2.17817
C    -2.69506  -0.48717  -1.90627
C    -1.87333   0.72540  -1.41150
C    -0.63411   0.58740  -2.31191
C    -1.24908   0.48615   0.00774
C    -2.32913   0.38490   1.10335
F    -2.97397   1.57964   1.14145
F    -1.83553   0.18682   2.33417
F    -3.26024  -0.54246   0.89245
C    -0.28076   1.71920   0.38314
C    -0.57056   2.94177  -0.39680
N    -0.78070   3.92960  -0.96232
C    -0.28647   2.18586   1.79906
N    -0.19501   2.64330   2.85866
O     1.03238   1.30995   0.06289
C     1.17160  -0.10057   0.23138
C     1.32733  -0.37449   1.68480
N     1.44128  -0.56878   2.82106
C     2.42846  -0.54511  -0.50703
C     2.83388   0.13313  -1.66491
C     3.96666  -0.29073  -2.36220
C     4.70337  -1.38989  -1.91188
C     4.30890  -2.05769  -0.74993
C     3.18065  -1.63332  -0.04544
H    -0.39213  -4.08717  -0.26737
H     0.87354  -3.07468  -1.04692
H     1.01717  -3.56352   0.66613
H     0.59927  -1.28893  -2.26106
H    -1.77468  -2.48451  -1.59758
H    -1.59145  -1.85957  -3.23705
H    -3.47747  -0.81803  -1.21998
H    -3.18836  -0.18179  -2.83948
H    -2.42487   1.67029  -1.46070
H     0.15353   1.33065  -2.15793
H    -0.90866   0.60427  -3.37548
H     2.27501   0.99709  -2.01999
H     4.27492   0.24660  -3.26160
H     5.58901  -1.71884  -2.46009
H     4.88392  -2.90958  -0.38108
H     2.89328  -2.15544   0.86775
