25
Generated by autodE on: 2022-06-06. E = -762.779880 Ha
C     2.33482  -2.27572  -0.55154
C     1.84184  -0.88887  -0.24276
O     2.53315   0.10426  -0.43969
C     0.48023  -0.77638   0.33206
C    -0.33224   0.30927   0.32797
C    -0.09034   1.65429  -0.28895
F     0.35308   1.57991  -1.55903
F     0.80258   2.38754   0.40211
F    -1.23186   2.37338  -0.32787
C    -1.68340  -0.11706   0.86517
C    -2.30705  -1.01048  -0.26188
C    -1.38942  -2.26335  -0.25711
C    -0.35312  -1.93468   0.86807
C    -1.24743  -1.19244   1.87954
H     3.29445  -2.22381  -1.08172
H     2.46353  -2.83779   0.38845
H     1.59374  -2.82670  -1.15212
H    -2.33177   0.69331   1.21522
H    -2.32490  -0.48684  -1.22773
H    -3.34254  -1.26519   0.00654
H    -0.89692  -2.44279  -1.22290
H    -1.94985  -3.17069   0.01095
H     0.21489  -2.79810   1.23094
H    -0.68505  -0.77833   2.72912
H    -2.08632  -1.80243   2.24611
