20
Generated by autodE on: 2022-07-27. E = -661.819421 Ha
N    -2.80280   2.65540  -1.92505
C    -2.30684   2.09564  -1.02747
C    -1.72943   1.43196   0.07027
C    -2.19978   1.62552   1.37928
N    -2.62881   1.82882   2.44742
O    -0.70568   0.61776  -0.24440
C     0.06907  -0.17195   0.42707
C    -0.09452  -0.33962   1.83554
N    -0.18236  -0.52482   2.98039
C     1.10532  -0.87645  -0.29212
C     1.24767  -0.70121  -1.68842
C     2.25223  -1.37659  -2.36916
C     3.12590  -2.22891  -1.67809
C     2.98974  -2.40668  -0.29670
C     1.98697  -1.73848   0.39848
H     0.56862  -0.03589  -2.22251
H     2.36086  -1.23992  -3.44688
H     3.91517  -2.75448  -2.21982
H     3.67018  -3.06937   0.24126
H     1.88521  -1.87979   1.47587
