20
Generated by autodE on: 2022-06-06. E = -661.819443 Ha
N     3.74464  -1.47023   0.29106
C     3.00668  -0.59417   0.05822
C     2.17710   0.49867  -0.24147
C     2.70767   1.73505  -0.65305
N     3.16987   2.75328  -0.99142
O     0.83419   0.46288  -0.17339
C    -0.03670  -0.43382   0.16075
C     0.37288  -1.73060   0.59537
N     0.64364  -2.80003   0.96370
C    -1.43597  -0.08279   0.08191
C    -1.82393   1.21257  -0.33273
C    -3.17215   1.53724  -0.40818
C    -4.14878   0.58674  -0.07639
C    -3.77108  -0.69659   0.33444
C    -2.42444  -1.03602   0.41598
H    -1.06259   1.94918  -0.59090
H    -3.46992   2.53778  -0.72786
H    -5.20699   0.84926  -0.13936
H    -4.53103  -1.43663   0.59187
H    -2.13418  -2.03828   0.73574
