41
Generated by autodE on: 2022-05-31. E = -1430.147249 Ha
C    -3.28925  -2.93270  -0.08908
N    -2.48026  -1.87418   0.48504
C    -1.51519  -1.27028  -0.23045
O    -1.26855  -1.58681  -1.39394
C    -0.65585  -0.24830   0.53313
C    -1.38926   0.49801   1.68798
C    -2.62281   1.24161   1.11280
C    -2.00090   2.47634   0.40757
C    -0.48865   2.22071   0.54745
C    -0.44134   1.67390   1.98374
C    -0.09411   0.98111  -0.30815
Cl   -0.67640   1.21813  -2.00433
C     1.45778   0.71867  -0.37896
C     1.84712  -0.02301  -1.62148
N     2.25553  -0.66091  -2.49882
C     2.22733   1.97979  -0.39542
N     2.83856   2.96318  -0.41333
N     1.74106  -0.04257   0.81966
C     3.11603  -0.49127   1.00596
C     0.65545  -1.00816   1.03404
C     0.58905  -1.47815   2.49585
C     0.92485  -2.24715   0.24297
N     1.24558  -3.23694  -0.26983
H    -3.86693  -2.56734  -0.95272
H    -2.65843  -3.76826  -0.43110
H    -3.98556  -3.29949   0.67458
H    -2.64388  -1.59617   1.44573
H    -1.62884  -0.14948   2.53807
H    -3.21173   0.62280   0.42462
H    -3.28697   1.53643   1.93706
H    -2.24043   3.40659   0.94137
H    -2.32722   2.59462  -0.63121
H     0.13097   3.09550   0.32079
H     0.55580   1.38754   2.32665
H    -0.87746   2.38575   2.69862
H     3.22887  -0.90925   2.01361
H     3.79053   0.37209   0.92321
H     3.42329  -1.25302   0.26612
H    -0.30332  -2.10249   2.63557
H     1.46966  -2.08531   2.74226
H     0.54930  -0.62247   3.17829
