17
Generated by autodE on: 2022-05-31. E = -489.491611 Ha
C     2.40971  -1.62752   0.07070
C     1.35565  -0.57001   0.17146
C     1.76549   0.73911   0.53920
N     2.17514   1.76452   0.91220
N     0.06677  -0.83430  -0.01833
C    -0.32479  -2.25430  -0.13948
C    -0.93157   0.12099  -0.17071
C    -0.64675   1.43204  -0.59886
N    -0.46203   2.51603  -0.99524
C    -2.28490  -0.21383   0.04007
N    -3.42002  -0.43942   0.20393
H     2.30928  -2.36255   0.88663
H     3.40231  -1.16735   0.14226
H     2.33598  -2.16998  -0.88475
H     0.07848  -2.81899   0.70825
H     0.07923  -2.65171  -1.07998
H    -1.41460  -2.33045  -0.15330
