17
Generated by autodE on: 2022-07-26. E = -489.491659 Ha
C    -0.64347  -2.21183   1.77313
C    -0.51247  -1.22137   0.65960
C    -1.04758  -1.57507  -0.60749
N    -1.57137  -1.91225  -1.59253
N     0.03790  -0.02442   0.83673
C     0.33890   0.38940   2.22266
C     0.41392   0.83963  -0.18561
C     0.69332   0.37360  -1.48479
N     0.97781   0.02287  -2.56293
C     0.59303   2.21501   0.06698
N     0.75329   3.36198   0.22519
H    -1.37644  -1.86841   2.52210
H     0.31987  -2.36199   2.28481
H    -0.98665  -3.17328   1.37294
H    -0.53932   0.22492   2.85582
H     0.60969   1.44804   2.23281
H     1.18498  -0.20612   2.59170
