41
Generated by autodE on: 2022-05-31. E = -1430.085958 Ha. Imaginary frequency = -306.7 cm-1
C    -3.32781  -2.95038   0.54609
N    -2.43371  -1.85509   0.86267
C    -1.77521  -1.18282  -0.11103
O    -1.93012  -1.47248  -1.30045
C    -0.86508  -0.08938   0.37510
C    -1.25993   0.67249   1.65941
C    -2.56414   1.44694   1.29102
C    -2.05528   2.52805   0.29445
C    -0.51645   2.26704   0.24989
C    -0.26449   1.84442   1.70316
C    -0.35772   0.94193  -0.47514
Cl   -0.53095   0.98384  -2.20647
C     1.98797   0.51722  -0.25633
C     2.23806   0.00245  -1.56561
N     2.46958  -0.35375  -2.64951
C     2.53009   1.81860  -0.05733
N     2.91331   2.91257   0.06195
N     1.89802  -0.34378   0.84060
C     2.59242  -0.02454   2.09743
C     0.94496  -1.33003   0.84227
C     0.70144  -2.09412   2.11588
C     0.84831  -2.15738  -0.33450
N     0.74794  -2.91567  -1.20927
H    -3.73993  -3.35227   1.47998
H    -4.16020  -2.61525  -0.09331
H    -2.79812  -3.75720   0.01394
H    -2.26753  -1.62445   1.83499
H    -1.33200   0.05985   2.56619
H    -3.33317   0.79379   0.85882
H    -2.98450   1.90387   2.19866
H    -2.23660   3.54581   0.66877
H    -2.51057   2.44668  -0.70173
H     0.07795   3.09082  -0.16015
H     0.76647   1.57139   1.92619
H    -0.57400   2.61907   2.41886
H     1.89350   0.24876   2.89724
H     3.28462   0.80481   1.92603
H     3.17025  -0.90287   2.41465
H    -0.13340  -2.78899   1.96969
H     1.59296  -2.68388   2.38636
H     0.46344  -1.41689   2.94562
