25
Generated by autodE on: 2022-10-21. E = -502.004891 Ha
C     2.02098  -2.19175   0.01657
O     1.39350  -1.10017   0.68068
C     0.37505  -0.50133  -0.01843
C     0.17168   0.82093  -0.22576
O     0.89153   1.93248   0.06917
C     2.20422   1.75134   0.59119
C    -1.25458   0.98872  -0.71274
C    -2.17519   0.68960   0.51565
C    -1.95118  -0.83411   0.75150
C    -0.93248  -1.20814  -0.37357
C    -1.42872  -0.31126  -1.52255
H     2.81372  -2.56217   0.68144
H     1.31152  -3.01253  -0.18355
H     2.46928  -1.86774  -0.93902
H     2.63972   2.75399   0.69865
H     2.82561   1.15538  -0.09779
H     2.18085   1.25442   1.57319
H    -1.45424   1.94203  -1.21949
H    -1.89862   1.30651   1.38298
H    -3.22530   0.90827   0.26865
H    -2.88811  -1.40037   0.63297
H    -1.54527  -1.06075   1.74813
H    -0.84767  -2.28379  -0.57457
H    -0.78399  -0.35452  -2.41235
H    -2.47509  -0.50514  -1.80633
