23
Generated by autodE on: 2022-10-26. E = -589.041444 Ha
C    -2.06343  -1.93871  -0.55187
N    -1.00531  -1.09568   0.05234
C    -0.70289  -1.27351   1.35103
C    -1.39071  -2.17022   2.17693
N    -1.92435  -2.90051   2.92128
C    -0.37947  -0.21261  -0.76426
C    -0.67976  -0.26320  -2.14348
N    -0.89194  -0.26125  -3.29351
C     0.62529   0.77248  -0.31691
C     0.43644   1.56486   0.83367
C     1.37875   2.52963   1.18868
C     2.52166   2.72639   0.40567
C     2.71156   1.95520  -0.74478
C     1.77235   0.98830  -1.10511
H    -2.79431  -1.29408  -1.05308
H    -2.56103  -2.51837   0.22955
H    -1.60371  -2.61964  -1.27903
H     0.12533  -0.71154   1.77657
H    -0.45926   1.44246   1.44465
H     1.21392   3.13844   2.08058
H     3.25824   3.48130   0.68962
H     3.59813   2.10379  -1.36539
H     1.92639   0.38964  -2.00549
