23
Generated by autodE on: 2022-10-21. E = -589.041443 Ha
C     2.64280   0.80129   0.83621
N     1.46482   0.18788   0.17947
C     1.66846  -0.75238  -0.76097
C     2.94141  -1.22454  -1.10155
N     3.97626  -1.66212  -1.43295
C     0.24363   0.64470   0.55043
C     0.18891   1.75336   1.42341
N     0.08589   2.66831   2.14457
C    -1.03687   0.08409   0.07228
C    -1.28455  -1.30336   0.05923
C    -2.52796  -1.79456  -0.33744
C    -3.54641  -0.91598  -0.72335
C    -3.31490   0.46247  -0.70172
C    -2.07254   0.95985  -0.30603
H     2.72128   1.84936   0.52103
H     2.51704   0.74581   1.92335
H     3.54707   0.26163   0.54389
H     0.80952  -1.15068  -1.29657
H    -0.50953  -2.00273   0.37719
H    -2.70522  -2.87247  -0.33636
H    -4.51806  -1.30545  -1.03541
H    -4.10477   1.15650  -0.99774
H    -1.89752   2.03788  -0.29125
