48
Generated by autodE on: 2022-10-21. E = -1091.038740 Ha. Imaginary frequency = -267.2 cm-1
C    -1.22472  -0.05360   3.43395
O    -0.86545   0.63627   2.24242
C    -1.27363   0.08945   1.05412
C    -2.66137  -0.50680   0.86038
C    -3.64194   0.70860   0.88690
C    -3.31499   1.45500  -0.44129
C    -2.16721   0.59010  -1.06057
C    -2.63144  -0.81610  -0.64434
C    -0.98780   0.80708  -0.12841
O    -0.35290   2.00277  -0.02709
C    -0.08642   2.70261  -1.23647
C     0.91100  -0.57728  -1.05987
C     0.65494  -0.54321  -2.45756
N     0.39607  -0.45290  -3.59407
C     2.04315   0.26893  -0.58881
C     2.17386   0.77807   0.71929
C     3.28476   1.54312   1.08380
C     4.28145   1.84535   0.15389
C     4.15469   1.37217  -1.15603
C     3.05514   0.59618  -1.51866
N     0.50762  -1.74429  -0.42171
C     0.11980  -2.89637  -1.24622
C     0.20351  -1.70228   0.90660
C    -0.35835  -2.83751   1.54103
N    -0.88691  -3.71415   2.10351
H    -2.31757  -0.07767   3.57179
H    -0.84228  -1.08600   3.43746
H    -0.77073   0.50053   4.26592
H    -2.92615  -1.33324   1.53127
H    -4.68254   0.35247   0.90574
H    -3.48296   1.33495   1.77606
H    -2.99674   2.49412  -0.27928
H    -4.17898   1.46706  -1.12209
H    -1.98171   0.76115  -2.12782
H    -1.94627  -1.61961  -0.91884
H    -3.62989  -1.05365  -1.03902
H    -1.01788   3.05641  -1.70686
H     0.53533   3.56696  -0.96941
H     0.45876   2.07071  -1.95263
H     1.38916   0.64248   1.45703
H     3.35486   1.92263   2.10595
H     5.14352   2.45077   0.44300
H     4.92138   1.59907  -1.90063
H     2.98419   0.22488  -2.54272
H    -0.31324  -3.67742  -0.61407
H     1.01105  -3.29699  -1.74922
H    -0.61651  -2.61585  -2.00998
H     0.81094  -1.07333   1.55077
