55
Generated by autodE on: 2022-06-24. E = -1282.285929 Ha
C    -0.87052  -2.04624   4.17169
O    -1.23689  -1.73621   2.81811
C    -0.95653  -0.51033   2.37782
O    -0.43293   0.34022   3.06914
C    -1.30049  -0.36951   0.87719
C    -2.79887  -0.72680   0.73190
C    -3.27047  -1.52045  -0.44881
O    -3.56230  -0.31862   1.59146
C    -1.07912   1.09353   0.41054
C    -1.98825   1.53793  -0.74867
C    -1.38918   2.69986  -1.49872
C    -2.19496   3.57409  -2.35590
N    -3.51765   3.27577  -2.45689
O    -1.72588   4.55008  -2.98025
C    -0.04146   2.92389  -1.45336
N     0.84614   2.21410  -0.72191
C     2.27402   2.46096  -0.80835
C     0.41775   1.07936   0.06620
C     0.69420  -0.33216  -0.55625
C     0.53619  -0.32183  -2.08185
C     2.07513  -0.85281  -0.12316
C     3.03974  -1.28130  -1.04650
C     4.28272  -1.76645  -0.62377
C     4.58694  -1.83975   0.73654
C     3.63272  -1.42350   1.67092
C     2.39565  -0.93828   1.24418
N    -0.39654  -1.13520   0.04264
C    -0.21950  -2.55987   0.20821
H    -1.18910  -3.08105   4.34046
H    -1.38231  -1.36971   4.87054
H     0.21747  -1.95656   4.30175
H    -2.56297  -1.49140  -1.28506
H    -4.26581  -1.16604  -0.75082
H    -3.37245  -2.57128  -0.12668
H    -1.24566   1.77086   1.25612
H    -2.17983   0.70341  -1.44204
H    -2.96625   1.81162  -0.32332
H    -4.09554   3.84463  -3.06530
H    -3.93171   2.46646  -2.01285
H     0.38151   3.75007  -2.02886
H     2.78773   1.70067  -1.42022
H     2.72176   2.44199   0.19776
H     2.45195   3.44786  -1.25603
H     0.96573   1.12811   1.01490
H    -0.44586   0.07729  -2.35948
H     0.60592  -1.34513  -2.47839
H     1.30461   0.28915  -2.57488
H     2.83540  -1.23965  -2.11552
H     5.01482  -2.08933  -1.36808
H     5.55664  -2.21886   1.06771
H     3.85073  -1.47734   2.74034
H     1.67394  -0.62287   1.99845
H     0.44238  -2.84130   1.04875
H    -1.18792  -3.05160   0.37014
H     0.21485  -2.98059  -0.71182
