20
Generated by autodE on: 2022-06-24. E = -457.715323 Ha
C     3.07965   0.67910   0.39977
N     1.82836   0.00984   0.08453
C     1.85395  -1.24685  -0.53330
C     0.73765  -1.90238  -0.88879
C    -0.64915  -1.35347  -0.66074
C    -0.57663   0.01662  -0.00651
C    -1.79553   0.77674   0.31173
N    -2.97050   0.17938  -0.01009
O    -1.78444   1.90554   0.84424
C     0.61779   0.59141   0.31137
H     3.71358   0.04185   1.03643
H     2.86655   1.60979   0.94030
H     3.64463   0.92485  -0.51489
H     2.85195  -1.65523  -0.70255
H     0.83909  -2.88082  -1.36385
H    -1.20181  -1.30456  -1.62136
H    -1.24004  -2.05817  -0.03987
H    -3.02037  -0.73762  -0.43503
H    -3.83537   0.66760   0.19439
H     0.64000   1.57685   0.77932
