35
Generated by autodE on: 2022-07-27. E = -824.533787 Ha
C    -3.28556   1.55552   2.72753
O    -3.06480   0.68055   1.62186
C    -1.77056   0.45876   1.27949
O    -0.85001   0.99819   1.90805
C    -1.58355  -0.41973   0.16079
C    -2.57149  -1.01768  -0.68002
C    -2.06472  -1.74437  -1.92003
O    -3.80317  -0.94224  -0.48988
N    -0.18474  -0.64899  -0.12766
C     0.37462  -1.90087   0.40342
C     0.54875   0.28797  -0.66715
C    -0.07272   1.50663  -1.24574
C     2.02438   0.20590  -0.65047
C     2.75805   0.30042  -1.84405
C     4.15214   0.25354  -1.80725
C     4.81914   0.15117  -0.58203
C     4.09036   0.08870   0.61047
C     2.69627   0.10598   0.58031
H    -4.37419   1.61689   2.85166
H    -2.87660   2.55848   2.53130
H    -2.82883   1.15949   3.64751
H    -1.41619  -2.59758  -1.66720
H    -1.47563  -1.06798  -2.56069
H    -2.92949  -2.11492  -2.48630
H     0.54367  -1.79176   1.48384
H    -0.36573  -2.69355   0.24862
H     1.31177  -2.16103  -0.10033
H     0.53390   1.87276  -2.08489
H    -1.11348   1.33945  -1.54787
H    -0.06107   2.29144  -0.46911
H     2.23477   0.39029  -2.79806
H     4.72013   0.30507  -2.73851
H     5.91093   0.12691  -0.55582
H     4.60971   0.02570   1.56906
H     2.12131   0.07087   1.50696
