35
Generated by autodE on: 2022-06-24. E = -824.538580 Ha
C    -3.25953  -1.74738   1.57943
O    -2.25279  -0.79151   1.25125
C    -2.10752  -0.49145  -0.07836
O    -2.79415  -1.06461  -0.92611
C    -1.09244   0.49127  -0.29552
C    -0.61490   0.95887  -1.55870
C    -1.23644   0.41384  -2.82876
O     0.31090   1.79630  -1.64975
N    -0.48897   1.10578   0.85661
C    -1.32038   2.05223   1.61267
C     0.80218   1.04135   1.05448
C     1.46620   1.98363   1.99983
C     1.60745  -0.00582   0.39550
C     1.18558  -1.34741   0.43135
C     1.96844  -2.33961  -0.15567
C     3.16446  -2.00279  -0.80134
C     3.58710  -0.67106  -0.83850
C     2.81982   0.32432  -0.23029
H    -3.23830  -1.84913   2.67176
H    -4.25426  -1.40377   1.25702
H    -3.04955  -2.72105   1.11145
H    -2.32240   0.58263  -2.85567
H    -0.75918   0.90787  -3.68599
H    -1.08465  -0.67420  -2.89940
H    -1.17385   3.06687   1.21120
H    -1.06044   2.03730   2.67795
H    -2.36820   1.76524   1.48834
H     2.55602   1.91575   1.91595
H     1.18925   1.71485   3.03403
H     1.14259   3.02100   1.82993
H     0.25701  -1.60882   0.93965
H     1.64393  -3.38142  -0.10955
H     3.77032  -2.78198  -1.26959
H     4.51983  -0.40464  -1.34031
H     3.14798   1.36459  -0.26407
