55
Generated by autodE on: 2022-06-24. E = -1282.202791 Ha. Imaginary frequency = -429.8 cm-1
C    -3.78901  -1.00664   3.28971
O    -3.18092  -1.00660   1.99484
C    -1.84744  -1.19329   1.95600
O    -1.20278  -1.39913   2.97618
C    -1.28372  -1.03499   0.60443
C    -2.25083  -1.12892  -0.53698
C    -2.10183  -2.32326  -1.45876
O    -3.20989  -0.37753  -0.67969
C    -0.66565   1.08425   1.04717
C    -1.82785   1.97652   0.69017
C    -1.66521   2.55999  -0.69697
C    -2.78655   3.12977  -1.44629
N    -3.99548   3.13444  -0.82302
O    -2.67147   3.61792  -2.59187
C    -0.41507   2.66262  -1.24094
N     0.70090   2.14566  -0.66754
C     2.02693   2.40991  -1.19678
C     0.58030   1.22318   0.40019
C     0.83799  -0.79608  -0.46845
C     0.29931  -0.43629  -1.83168
C     2.30069  -1.09355  -0.41669
C     3.00982  -1.46165  -1.57549
C     4.38538  -1.70083  -1.52992
C     5.08527  -1.56729  -0.32805
C     4.39542  -1.19635   0.83163
C     3.02199  -0.96390   0.78726
N     0.02204  -1.50582   0.40034
C     0.55238  -2.61470   1.20947
H    -4.85544  -0.81518   3.12096
H    -3.35923  -0.21589   3.92203
H    -3.65399  -1.97921   3.78522
H    -1.12262  -2.80935  -1.40501
H    -2.33916  -2.03685  -2.49340
H    -2.86054  -3.05529  -1.13108
H    -0.60049   0.77838   2.08979
H    -2.76406   1.40971   0.77921
H    -1.89056   2.78430   1.45030
H    -4.80349   3.44759  -1.34944
H    -4.15054   2.66593   0.06039
H    -0.26856   3.18406  -2.18887
H     1.94655   3.04993  -2.08436
H     2.64974   2.92591  -0.44657
H     2.54156   1.47818  -1.47596
H     1.48984   1.12382   0.99006
H     0.22789  -1.33877  -2.45864
H    -0.69403   0.02232  -1.79141
H     0.96604   0.26594  -2.34129
H     2.48495  -1.57551  -2.52403
H     4.91177  -1.99318  -2.44158
H     6.16212  -1.74815  -0.29418
H     4.93208  -1.08090   1.77620
H     2.50332  -0.66342   1.69836
H     1.01699  -2.29541   2.14995
H    -0.27246  -3.29676   1.44452
H     1.28901  -3.16635   0.61371
