32
Generated by autodE on: 2022-10-06. E = -859.832275 Ha
C     3.51753   0.76176  -0.98923
C     2.04977   0.94477  -0.72528
O     1.59678   2.05128  -0.45909
C     1.06677  -0.23379  -0.90577
C     1.75274  -1.51185  -1.38591
N     0.02744   0.21163  -1.87431
C    -1.31710  -0.00354  -1.27573
C    -2.28257   1.05503  -1.80065
C    -1.84018  -1.39774  -1.64503
C    -1.06953   0.14418   0.25259
C    -2.19720  -0.44192   1.11575
O    -2.09752  -1.63696   1.50654
O    -3.18659   0.31304   1.33712
C     0.30712  -0.47724   0.44783
C     1.05364  -0.03620   1.71688
O     0.37500   0.41703   2.67431
O     2.30805  -0.19385   1.72239
H     4.06327   1.65993  -0.67141
H     3.92065  -0.12724  -0.49041
H     3.65843   0.62241  -2.07500
H     2.45572  -1.88545  -0.62703
H     0.99523  -2.28981  -1.55646
H     2.29660  -1.35594  -2.32955
H     0.12471   1.22299  -1.95493
H    -2.44007   0.95036  -2.88627
H    -3.25448   0.96289  -1.29535
H    -1.89304   2.06715  -1.60216
H    -1.83816  -1.51567  -2.73976
H    -1.22493  -2.19997  -1.21461
H    -2.87067  -1.53933  -1.28577
H    -1.01214   1.22156   0.46972
H     0.17416  -1.56522   0.56237
