40
Generated by autodE on: 2022-05-29. E = -1304.515961 Ha
C    -1.16367  -2.76490  -0.64364
C    -0.58981  -1.35970  -0.79162
C    -1.46694  -0.39864  -1.59077
C    -2.85346  -0.57602  -1.68702
C    -3.64586   0.36997  -2.34593
C    -3.06100   1.50005  -2.92202
C    -1.67569   1.67821  -2.83840
C    -0.88606   0.73760  -2.17563
O     0.70317  -1.50947  -1.47542
N     1.73336  -1.00971  -0.61620
C     2.60513  -0.23830  -1.27600
N     3.43593   0.35935  -1.83800
C     1.11086  -0.54358   0.59176
C    -0.20994  -0.74123   0.54377
C    -1.21146  -0.35679   1.58404
C    -1.71279   1.09632   1.44851
C    -0.61680   2.14931   1.25815
C     0.52568   2.13918   2.29684
C     1.87000   1.57861   1.81823
C     2.01090   0.06899   1.62012
Cl    1.83195  -0.81099   3.22901
H    -2.08346  -2.75749  -0.04347
H    -0.42578  -3.40046  -0.13473
H    -1.39242  -3.19413  -1.63024
H    -3.33056  -1.44688  -1.23740
H    -4.72616   0.21894  -2.40803
H    -3.68022   2.23862  -3.43650
H    -1.20751   2.55674  -3.28849
H     0.19191   0.89459  -2.11264
H    -0.75075  -0.49123   2.57247
H    -2.07395  -1.03943   1.53884
H    -2.29315   1.32798   2.35776
H    -2.41523   1.16606   0.60315
H    -0.18903   2.05212   0.24696
H    -1.10800   3.13552   1.27516
H     0.21402   1.61243   3.21435
H     0.72588   3.17583   2.60908
H     2.66006   1.87651   2.52510
H     2.13290   2.03390   0.84670
H     3.04937  -0.14106   1.33642
