20
Generated by autodE on: 2022-05-29. E = -532.635313 Ha
C     0.41296  -2.31291   0.38106
C     0.26949  -0.86708   0.13542
O     1.32485  -0.16112  -0.05707
N     2.58782  -0.81961  -0.02423
C     3.49651   0.10836  -0.23829
N     4.40693   0.83543  -0.41790
C    -0.98058  -0.12701   0.08441
C    -2.21475  -0.78159   0.28490
C    -3.40610  -0.06132   0.23290
C    -3.38584   1.31382  -0.01827
C    -2.16572   1.97430  -0.21876
C    -0.97225   1.26551  -0.16876
H    -0.54412  -2.81559   0.53736
H     1.06994  -2.45832   1.25516
H     0.94792  -2.76385  -0.47187
H    -2.24873  -1.85246   0.48260
H    -4.35549  -0.57690   0.38975
H    -4.32205   1.87504  -0.05830
H    -2.15052   3.04819  -0.41518
H    -0.02372   1.77953  -0.32512
