20
Generated by autodE on: 2022-05-29. E = -771.782810 Ha
Cl   -0.08775   0.54518  -2.45674
C    -0.71804   1.05066  -0.78480
C     0.39659   1.20368   0.12956
C     1.13642   0.87440   1.03482
C     1.66636   0.06860   2.12724
C     1.06707  -1.35212   1.97517
C    -0.45600  -1.41823   1.72399
C    -0.97432  -1.33773   0.25745
C    -1.64998  -0.03732  -0.22370
H    -1.26917   1.97776  -0.98435
H     1.36120   0.51111   3.09124
H     2.76742   0.02870   2.13207
H     1.58919  -1.86990   1.15290
H     1.30532  -1.90896   2.89601
H    -0.78949  -2.38871   2.12405
H    -0.96478  -0.65785   2.34268
H    -0.16488  -1.60288  -0.44382
H    -1.73091  -2.12892   0.14019
H    -2.39314  -0.26619  -1.00316
H    -2.20227   0.42685   0.61165
