11
Generated by autodE on: 2022-05-26. E = -356.653539 Ha
C     3.37530  -0.24945   0.37524
C     1.94859  -0.15075   0.21066
N     0.79961  -0.06226   0.08461
C    -0.54850   0.03978  -0.06243
C    -1.11535   1.30572  -0.30748
N    -1.59626   2.35224  -0.51147
C    -1.33722  -1.12304   0.03729
N    -2.00224  -2.08181   0.11821
H     3.77500   0.77400   0.46568
H     3.83450  -0.74564  -0.49362
H     3.60603  -0.80332   1.29899
