18
Generated by autodE on: 2022-05-26. E = -1453.832121 Ha
C     4.15486   0.56642   0.26186
O     2.76207   0.85624   0.05126
C     1.95967  -0.18697  -0.11995
O     2.31795  -1.34289  -0.09840
C     0.53553   0.23870  -0.35639
Cl    0.35445   1.68300  -1.30656
C    -0.53759  -0.41538   0.13655
Cl   -0.37893  -1.79338   1.18125
C    -1.96151  -0.01403  -0.14770
O    -2.35908   0.30739  -1.24439
O    -2.71250  -0.07305   0.94410
C    -4.10331   0.25990   0.78742
H     4.56496   0.02776  -0.60421
H     4.28400  -0.04078   1.16906
H     4.64790   1.53787   0.37759
H    -4.55134   0.14501   1.78050
H    -4.57792  -0.42407   0.06970
H    -4.20836   1.29601   0.43565
