29
Generated by autodE on: 2022-05-26. E = -1810.475675 Ha. Imaginary frequency = -370.1 cm-1
C    -3.78157  -0.77277   0.03228
O    -2.36267  -0.60828  -0.11236
C    -1.62426  -0.72872   0.98907
O    -2.08024  -0.89606   2.10083
C    -0.16892  -0.58313   0.69306
Cl    0.80960  -0.40471   2.12649
C    -0.52787   1.95413   0.09935
C     0.53864   2.47574   0.88508
N     1.41700   2.86713   1.54058
C    -1.86574   2.23110   0.50231
N    -2.94976   2.43850   0.87134
N    -0.26768   1.60310  -1.16728
C     0.18858   0.73624  -1.86562
C     0.67211   0.47869  -3.21702
C     0.42864  -0.95383  -0.52248
Cl   -0.34019  -2.20044  -1.52043
C     1.93958  -1.01730  -0.60571
O     2.57316  -2.00260  -0.90108
O     2.46201   0.17439  -0.33987
C     3.89372   0.27398  -0.28070
H    -4.00917  -1.77828   0.41397
H    -4.18553  -0.01384   0.71568
H    -4.19924  -0.64268  -0.97232
H     1.77366   0.43507  -3.17714
H     0.36246   1.29297  -3.88793
H     0.30128  -0.48962  -3.57793
H     4.28738  -0.41387   0.48071
H     4.33044   0.03696  -1.26105
H     4.10529   1.31277  -0.00456
