63
Generated by autodE on: 2022-06-27. E = -1569.412270 Ha
C    -2.27075  -4.61405  -2.16612
N    -1.83734  -3.64334  -1.18010
C    -1.79798  -2.33474  -1.45840
O    -2.12549  -1.89507  -2.56472
C    -1.32665  -1.32959  -0.32471
C    -2.07252  -1.74688   0.97530
O    -2.10430  -2.89184   1.39086
O    -2.74282  -0.75478   1.54559
C    -3.40642  -1.05303   2.78159
N    -1.56892   0.02506  -0.72145
C    -2.89395   0.49812  -1.05433
C    -0.40458   0.76280  -1.22297
C    -0.62907   1.30616  -2.64370
C    -0.09258   1.94930  -0.28230
C    -0.64801   2.00651   1.00359
C    -0.31206   3.03461   1.88980
C     0.57691   4.03891   1.49951
C     1.11231   4.01090   0.20800
C     0.77824   2.97939  -0.67277
C     0.75218  -0.34562  -1.19448
C     0.93367  -1.05757  -2.54578
C     2.12105   0.27833  -0.88415
O     2.85115   0.65061  -1.79651
C     2.57552   0.43575   0.50528
O     3.81774   0.93298   0.72785
C     4.13388   2.27749   0.33970
C     1.80958  -0.00627   1.54642
O     2.04972   0.16876   2.84776
C     2.81725   1.28177   3.32311
C     0.55833  -0.78049   1.31957
O    -0.12391  -1.06136   2.28944
C     0.24483  -1.32238  -0.08458
C     0.91571  -2.70696  -0.09849
H    -2.18434  -5.61918  -1.73531
H    -1.64515  -4.55967  -3.07047
H    -3.31713  -4.44448  -2.46887
H    -1.69078  -3.92492  -0.21416
H    -4.14196  -1.85723   2.64040
H    -3.90664  -0.12641   3.08476
H    -2.66892  -1.35567   3.53868
H    -3.05784   1.51015  -0.64345
H    -3.64784  -0.15890  -0.60576
H    -3.09247   0.53330  -2.13809
H    -1.02634   0.52704  -3.30383
H     0.30931   1.67824  -3.07358
H    -1.34104   2.14277  -2.62241
H    -1.34670   1.23066   1.31006
H    -0.74941   3.04714   2.89113
H     0.84482   4.84119   2.19088
H     1.80181   4.79369  -0.11653
H     1.22494   2.97252  -1.66674
H     0.01507  -1.53390  -2.89165
H     1.71934  -1.82028  -2.46316
H     1.26121  -0.34417  -3.30744
H     5.21487   2.38876   0.49439
H     3.89032   2.46304  -0.71293
H     3.59609   2.99307   0.97980
H     2.58792   1.35880   4.39368
H     2.50585   2.20585   2.81378
H     3.89257   1.11651   3.18225
H     1.99737  -2.59875   0.06672
H     0.50474  -3.32911   0.70821
H     0.76019  -3.22322  -1.05094
