37
Generated by autodE on: 2022-07-27. E = -879.934186 Ha
C    -0.07834  -4.28656   0.77315
N    -0.67261  -2.98839   0.54993
C    -0.25220  -2.18415  -0.46308
O     0.55546  -2.60617  -1.32883
C    -0.75541  -0.82705  -0.50303
C    -1.53263  -0.21286   0.51101
O    -1.91456  -0.75423   1.56467
O    -1.87121   1.08554   0.24903
C    -2.48504   1.81162   1.30939
N    -0.31573  -0.04020  -1.61973
C    -0.84506  -0.40955  -2.94066
C     0.41264   1.03516  -1.46747
C     0.59539   1.98718  -2.59995
C     1.08093   1.30529  -0.17827
C     1.87109   0.31058   0.42665
C     2.52490   0.57791   1.62722
C     2.37641   1.82469   2.24864
C     1.59131   2.81391   1.65070
C     0.95752   2.56285   0.43132
H    -0.14660  -4.91621  -0.12738
H    -0.61549  -4.79064   1.58739
H     0.98989  -4.22413   1.05061
H    -1.21501  -2.53197   1.28200
H    -3.44557   1.36125   1.60218
H    -2.65377   2.82594   0.92606
H    -1.82713   1.85642   2.19121
H    -1.13719  -1.46250  -2.90653
H    -0.08728  -0.26457  -3.72011
H    -1.72853   0.20740  -3.16531
H     1.05034   2.92129  -2.25319
H     1.27339   1.53671  -3.34562
H    -0.35739   2.20092  -3.10668
H     1.98314  -0.65925  -0.06015
H     3.15146  -0.19137   2.08389
H     2.88032   2.02535   3.19692
H     1.47429   3.78783   2.13081
H     0.34187   3.33468  -0.03443
