37
Generated by autodE on: 2022-06-27. E = -879.933662 Ha
C    -2.15057  -2.77588   1.70363
N    -1.90517  -1.44486   1.19944
C    -1.14102  -1.23342   0.09513
O    -0.53006  -2.18187  -0.45129
C    -1.06688   0.13244  -0.40321
C    -1.74726   1.24073   0.15573
O    -2.56878   1.21806   1.08946
O    -1.39789   2.43372  -0.42109
C    -2.08166   3.59291   0.05115
N    -0.21804   0.33106  -1.53638
C    -0.86205   0.69108  -2.80872
C     1.04204  -0.02814  -1.50713
C     1.80417  -0.18858  -2.77924
C     1.73896  -0.21565  -0.21899
C     1.62537   0.75718   0.79160
C     2.32669   0.60763   1.98601
C     3.12861  -0.52136   2.19598
C     3.24411  -1.49009   1.19542
C     2.56323  -1.33317  -0.01362
H    -2.75307  -3.39054   1.01029
H    -2.69285  -2.70275   2.65564
H    -1.20636  -3.31349   1.88290
H    -2.44492  -0.64882   1.53527
H    -3.16740   3.50889  -0.10996
H    -1.68608   4.43658  -0.52848
H    -1.89233   3.75805   1.12260
H    -1.81701   1.17412  -2.58599
H    -1.04774  -0.22246  -3.39402
H    -0.22957   1.37556  -3.38755
H     1.24055  -0.78280  -3.51380
H     2.77878  -0.65311  -2.59612
H     1.98214   0.80497  -3.22589
H     1.00509   1.63849   0.62564
H     2.24738   1.37583   2.75839
H     3.66852  -0.64063   3.13815
H     3.86935  -2.37148   1.35365
H     2.65049  -2.09315  -0.79205
