36
Generated by autodE on: 2022-06-18. E = -953.826694 Ha. Imaginary frequency = -275.6 cm-1
C     2.80467   0.25858   1.73782
O     2.75928  -0.25579   0.40345
C     1.52133  -0.23498  -0.18063
C     0.84892  -1.36626  -0.54588
O     1.19659  -2.63814  -0.33771
C     2.26379  -3.00676   0.54211
C    -0.44513  -1.27709  -1.32826
O    -0.88358  -2.31184  -1.85198
C    -1.10303   0.01141  -1.40816
C    -2.38643   0.10501  -2.18326
C    -1.94797  -0.97054   0.94165
C    -3.36368  -1.23672   0.58381
N    -1.53175   0.16318   1.42345
C    -0.93029   1.20397   1.16211
C    -0.54725   2.29407   1.95826
N    -0.14254   3.25552   2.48008
C    -0.46486   1.17024  -0.93187
C    -0.95699   2.53421  -1.34089
C     0.97967   1.08844  -0.53769
O     1.68168   2.09607  -0.45770
H     3.84428   0.16215   2.07830
H     2.14687  -0.32685   2.40193
H     2.50806   1.31786   1.77124
H     3.23780  -2.70899   0.13387
H     2.12189  -2.56074   1.53742
H     2.21099  -4.10036   0.61962
H    -2.22879   0.61188  -3.15135
H    -2.78901  -0.89367  -2.39014
H    -3.14859   0.68545  -1.64153
H    -1.29024  -1.82878   1.13321
H    -3.38205  -1.94647  -0.25711
H    -3.86918  -1.72853   1.43385
H    -3.90434  -0.31845   0.32339
H    -0.43996   3.32310  -0.78015
H    -2.03886   2.63319  -1.18261
H    -0.75972   2.69817  -2.41384
