65
Generated by autodE on: 2022-06-30. E = -1347.850705 Ha
C    -2.98077  -1.29709  -3.68543
N    -1.97177  -1.24716  -2.65000
C    -2.12373  -0.52983  -1.53183
O    -3.17734   0.06517  -1.26297
C    -0.89377  -0.50358  -0.58258
C    -1.34799  -1.02757   0.79688
C    -0.65963  -0.73286   1.98497
C    -1.00395  -1.33880   3.19414
C    -2.04467  -2.26990   3.24901
C    -2.73025  -2.58912   2.07484
C    -2.38355  -1.97526   0.86742
N     0.15088  -1.38792  -1.12024
C     1.50077  -0.92280  -0.77932
C     2.48814  -1.47222  -1.82295
C     2.00305  -1.44583   0.58861
C     1.60439  -2.70916   1.05201
C     2.06579  -3.21889   2.26681
C     2.95416  -2.47568   3.04955
C     3.39053  -1.23230   2.58591
C     2.92672  -0.73075   1.36517
C     1.33892   0.62461  -0.79925
C     1.70240   1.33183  -2.12365
C     1.63961   2.85809  -1.88869
C     0.11127   3.14363  -1.86129
C    -0.50442   1.73147  -1.95141
C     0.44824   1.09255  -2.97812
C    -0.19896   0.93962  -0.61552
C    -0.58079   1.82077   0.57433
C     0.36138   2.45958   1.39397
C    -0.03614   3.29137   2.44643
C    -1.39098   3.51027   2.70264
C    -2.34240   2.88832   1.88775
C    -1.94053   2.05906   0.83942
H    -3.05814  -0.33719  -4.22399
H    -3.96650  -1.52134  -3.25201
H    -2.72098  -2.08367  -4.40503
H    -1.03833  -1.62708  -2.79574
H     0.16966  -0.03374   1.97889
H    -0.44369  -1.08472   4.09708
H    -2.31519  -2.74466   4.19520
H    -3.54285  -3.31959   2.09280
H    -2.93513  -2.25527  -0.03104
H    -0.01279  -2.35657  -0.85644
H     2.51355  -2.57086  -1.75738
H     3.50630  -1.10146  -1.63304
H     2.19010  -1.19797  -2.84355
H     0.89875  -3.31033   0.47546
H     1.71952  -4.19775   2.60732
H     3.30838  -2.86522   4.00687
H     4.09772  -0.64383   3.17580
H     3.29663   0.23843   1.02787
H     1.93695   1.05540   0.00161
H     2.65764   1.00085  -2.54753
H     2.14154   3.14740  -0.95324
H     2.13485   3.39741  -2.70999
H    -0.21158   3.70701  -0.97765
H    -0.19676   3.71864  -2.74735
H    -1.57074   1.74751  -2.20142
H     0.25399   0.03572  -3.18118
H     0.46047   1.64519  -3.93065
H     1.42809   2.31103   1.23296
H     0.72488   3.76836   3.06918
H    -1.70231   4.15739   3.52619
H    -3.40840   3.04628   2.07119
H    -2.69063   1.56530   0.22183
