27
Generated by autodE on: 2022-06-30. E = -504.024599 Ha
C    -1.34935  -1.11404   0.56681
C    -0.51892  -0.29418  -0.12040
C     0.94735  -0.24785  -0.09178
C     1.70245  -1.33088   0.40797
C     3.09436  -1.27791   0.44723
C     3.77312  -0.14150  -0.01234
C     3.04083   0.93775  -0.51359
C     1.64480   0.88484  -0.55677
C    -1.41078   0.73177  -0.81902
C    -1.96366   1.66121   0.30884
C    -2.90693   0.71419   1.10623
C    -2.77052  -0.64191   0.33378
C    -2.65677  -0.12634  -1.11637
H    -1.06105  -1.88365   1.28558
H     1.18716  -2.22784   0.75837
H     3.65716  -2.13089   0.83473
H     4.86455  -0.10203   0.01751
H     3.55835   1.82977  -0.87533
H     1.08938   1.73925  -0.94725
H    -0.95849   1.26398  -1.66472
H    -2.52052   2.50229  -0.13118
H    -1.15276   2.07993   0.92215
H    -2.62040   0.61020   2.16267
H    -3.94969   1.06583   1.07406
H    -3.56390  -1.36772   0.55535
H    -2.46266  -0.92879  -1.84383
H    -3.52626   0.46748  -1.44026
