38
Generated by autodE on: 2022-07-27. E = -843.779523 Ha
C    -4.01038   0.50008  -2.98591
N    -3.00339   0.29859  -1.96753
C    -1.67486   0.35595  -2.26162
O    -1.29885   0.50752  -3.45487
C    -0.70893   0.27183  -1.18179
N     0.56944   0.47973  -1.64412
C     1.79133   0.38884  -1.14046
C     2.90417   0.98966  -1.94466
C     2.07419  -0.23759   0.15176
C     1.40043  -1.40625   0.56764
C     1.66830  -1.98046   1.80767
C     2.61251  -1.40239   2.66500
C     3.30937  -0.26163   2.25381
C     3.05302   0.30906   1.00602
C    -1.02899   0.20943   0.24770
C    -0.42563   1.10009   1.16380
C    -0.68097   1.01261   2.53011
C    -1.55888   0.04045   3.02644
C    -2.18162  -0.83648   2.13384
C    -1.91510  -0.75877   0.76454
H    -4.02220   1.53513  -3.37249
H    -4.99760   0.27982  -2.55909
H    -3.84328  -0.17112  -3.84193
H    -3.28949   0.31602  -0.99593
H     0.51841   0.76248  -2.63415
H     3.22994   1.95556  -1.51807
H     3.78563   0.33047  -1.96175
H     2.58026   1.18292  -2.97873
H     0.66534  -1.86800  -0.09101
H     1.13250  -2.88295   2.11092
H     2.80935  -1.84446   3.64442
H     4.05459   0.19161   2.91190
H     3.59369   1.20800   0.70426
H     0.26136   1.86355   0.79517
H    -0.19220   1.70929   3.21572
H    -1.75438  -0.03110   4.09884
H    -2.86549  -1.60330   2.50634
H    -2.37332  -1.48181   0.08700
