24
Generated by autodE on: 2022-05-30. E = -580.265418 Ha
C     3.68676  -0.21523  -0.79551
N     2.34385   0.20839  -0.46049
C     1.43372  -0.59891   0.12599
O     1.69031  -1.75603   0.46629
C     0.09300  -0.03413   0.35800
C    -0.51591   1.04379  -0.17509
F     0.01719   1.93274  -1.02068
C    -1.98419   1.03063   0.14413
C    -2.57816  -0.15399  -0.69485
C    -1.92336  -1.40769  -0.04522
C    -1.02536  -0.78951   1.07205
C    -1.91677   0.38015   1.54358
H     3.79672  -0.41688  -1.87477
H     3.92114  -1.13499  -0.24674
H     4.41408   0.56091  -0.51477
H     2.04747   1.13279  -0.75460
H    -2.50175   1.99066   0.03091
H    -2.34712  -0.04733  -1.76406
H    -3.67213  -0.16505  -0.58406
H    -2.68189  -2.07035   0.39726
H    -1.32738  -1.99988  -0.75376
H    -0.67859  -1.50188   1.82944
H    -1.42831   1.02078   2.29196
H    -2.90197   0.05614   1.91091
