20
Generated by autodE on: 2022-07-27. E = -552.779143 Ha
C     3.10847   0.40338   1.52055
O     1.80617   0.50958   0.93983
C     1.28145  -0.63215   0.43928
O     1.87855  -1.70666   0.46956
C    -0.02954  -0.46478  -0.12430
C    -0.70034  -1.56236  -0.67960
N    -1.19984  -2.52367  -1.12577
O    -0.54084   0.81423  -0.06195
C    -1.63582   1.34547  -0.44031
C    -2.70851   0.58347  -1.11133
C    -1.76215   2.79104  -0.15906
H     3.84433   0.05867   0.77865
H     3.10452  -0.29320   2.37245
H     3.36960   1.41169   1.86441
H    -2.32851   0.13157  -2.04260
H    -3.55199   1.24370  -1.34338
H    -3.05320  -0.24002  -0.46429
H    -1.93954   3.33007  -1.10597
H    -2.65615   2.96079   0.46601
H    -0.86751   3.18141   0.34085
