20
Generated by autodE on: 2022-05-30. E = -552.779136 Ha
C     3.20639   0.57846   1.23003
O     1.81348   0.36573   0.98756
C     1.45635   0.15728  -0.30053
O     2.26985   0.15009  -1.22255
C     0.04614  -0.05242  -0.47867
C    -0.47579  -0.27884  -1.75907
N    -0.84000  -0.46182  -2.85748
O    -0.70691  -0.01057   0.67543
C    -1.94955  -0.14639   0.92379
C    -2.32187  -0.02295   2.34866
C    -2.95347  -0.40999  -0.12656
H     3.30551   0.73077   2.31176
H     3.56910   1.46738   0.69236
H     3.79868  -0.29547   0.91957
H    -2.82618  -0.95028   2.67196
H    -3.06304   0.78760   2.46005
H    -1.44412   0.17323   2.97612
H    -2.94852   0.40355  -0.87090
H    -3.95193  -0.49155   0.31829
H    -2.71120  -1.34424  -0.65965
