44
Generated by autodE on: 2022-05-30. E = -1133.045763 Ha. Imaginary frequency = -292.5 cm-1
C    -4.13343  -1.04962  -1.24209
N    -2.83938  -0.97713  -0.59463
C    -2.49036   0.08426   0.16520
O    -3.31382   0.96445   0.46927
C    -1.09082   0.17400   0.64386
C    -0.79223   0.94310   1.93714
C    -1.25647   0.00086   3.09076
C    -0.22593  -1.16377   3.02498
C     0.72854  -0.72746   1.85965
C     0.73582   0.80152   2.05537
C    -0.13241  -0.83456   0.63184
F    -0.31586  -2.04079   0.06789
C     1.36480  -0.02585  -1.19694
C     0.91083  -0.92511  -2.18805
N     0.56116  -1.71763  -2.97138
C     2.67910  -0.28211  -0.62880
O     3.22608  -1.37670  -0.68512
O     3.21278   0.77896  -0.00690
C     4.43758   0.55579   0.70233
O     0.88520   1.24217  -1.05754
C    -0.35723   1.65054  -1.14962
C    -1.24801   1.18756  -2.25093
C    -0.58947   3.00151  -0.57537
H    -4.94346  -0.90553  -0.51254
H    -4.24073  -0.27976  -2.02597
H    -4.24509  -2.03849  -1.70409
H    -2.12064  -1.63386  -0.87674
H    -1.20718   1.95510   1.98138
H    -2.29397  -0.33422   2.95204
H    -1.19949   0.53053   4.05319
H    -0.68709  -2.14135   2.82580
H     0.35761  -1.24719   3.95309
H     1.68393  -1.26314   1.81579
H     1.10872   1.08508   3.04992
H     1.29492   1.34625   1.29060
H     5.22625   0.21054   0.01861
H     4.29291  -0.18860   1.49902
H     4.71282   1.52349   1.13769
H    -0.84921   1.62504  -3.18510
H    -2.25973   1.58001  -2.09678
H    -1.29030   0.10369  -2.37679
H    -0.52739   3.75519  -1.38117
H     0.14551   3.24068   0.20219
H    -1.60819   3.04829  -0.16512
