25
Generated by autodE on: 2022-10-06. E = -701.732980 Ha
C     4.44893   1.50863  -0.39873
N     3.42652   0.54232  -0.05390
C     2.10849   0.76618  -0.21817
O     1.63713   1.82179  -0.67948
C     1.18189  -0.31661   0.18019
C     1.62704  -1.54487   0.69986
N     2.09160  -2.53189   1.12257
N    -0.11823   0.00904  -0.01237
C    -1.27110  -0.59519   0.18087
C    -1.38470  -1.96961   0.73447
C    -2.42086   0.24413  -0.20864
O    -2.30221   1.37551  -0.66014
O    -3.59354  -0.35934  -0.01710
C    -4.76758   0.38525  -0.37176
H     3.96702   2.41644  -0.77902
H     5.05502   1.77165   0.48245
H     5.12183   1.11273  -1.17593
H     3.72462  -0.34668   0.33586
H    -0.18749   0.96715  -0.40580
H    -2.43578  -2.26883   0.79756
H    -0.94209  -2.02467   1.74282
H    -0.84937  -2.69466   0.09959
H    -4.75560   0.63157  -1.44338
H    -5.61825  -0.26569  -0.14047
H    -4.82556   1.31255   0.21632
