10
Generated by autodE on: 2022-10-06. E = -455.051670 Ha
O     2.34178  -0.98815   0.28707
C     1.96607   0.18430   0.01049
O     2.72286   1.16897  -0.21827
C     0.47872   0.46440  -0.06588
C    -0.47869  -0.46428   0.06573
C    -1.96607  -0.18435  -0.01064
O    -2.72277  -1.16899   0.21846
O    -2.34191   0.98811  -0.28703
H     0.19158   1.50443  -0.25466
H    -0.19133  -1.50425   0.25453
