35
Generated by autodE on: 2022-10-06. E = -1156.769071 Ha. Imaginary frequency = -374.1 cm-1
C     4.41911   0.14946   1.15929
N     3.34476  -0.24744   0.26896
C     2.39111   0.64533  -0.07440
O     2.46954   1.85507   0.16285
C     1.23424   0.08003  -0.85427
C     1.58119  -0.75360  -1.95535
N     1.86700  -1.47382  -2.82744
N     0.09409   0.83474  -1.02725
C    -0.73944   1.14445   0.00863
C    -0.23188   1.68653   1.31083
C    -2.07433   1.59444  -0.48846
O    -2.39950   1.55432  -1.66350
O    -2.89053   1.97728   0.49112
C    -4.25334   2.23659   0.12344
C    -1.10771  -0.91118   0.61676
C    -2.19412  -1.23525  -0.38540
O    -3.38945  -1.10874   0.00210
O    -1.82662  -1.56905  -1.54702
C     0.15294  -1.50490   0.46000
C     1.13115  -1.71710   1.58351
O     0.98265  -1.08499   2.66182
O     2.08570  -2.52048   1.33667
H     4.04794   0.34100   2.18132
H     4.90571   1.06380   0.79330
H     5.16467  -0.65510   1.20276
H     3.04077  -1.22592   0.35498
H    -0.44117   0.60229  -1.86673
H     0.22327   2.67722   1.15412
H    -1.06871   1.78702   2.01083
H     0.51343   1.02415   1.76318
H    -4.69902   1.32988  -0.30883
H    -4.30830   3.06126  -0.60136
H    -4.76824   2.51072   1.05121
H    -1.43227  -0.63390   1.62210
H     0.27116  -2.19013  -0.37865
