41
Generated by autodE on: 2022-06-03. E = -3717.999754 Ha. Imaginary frequency = -303.7 cm-1
C    -2.64871   2.54850  -3.17308
O    -1.69409   1.82385  -2.37213
C    -1.67337   0.50756  -2.51501
O    -2.36395  -0.14757  -3.26808
C    -0.74183  -0.12766  -1.56477
N     0.47044  -0.13141  -1.47658
C     1.56288  -0.71889  -1.03746
C     1.89968  -2.04102  -1.63825
C     1.16409  -2.46644  -2.88807
O     2.81743  -2.72753  -1.19596
C     2.46409   0.08186  -0.18755
C     2.15403   1.44152   0.03764
C     2.96711   2.23715   0.83944
C     4.11111   1.69728   1.43802
C     4.42661   0.35302   1.22442
C     3.61655  -0.45198   0.42193
C    -0.56492  -2.55762   0.00246
C    -0.74779  -2.33308   1.50890
O    -2.19087  -2.26987   1.59256
C    -2.33749  -1.22281   0.61889
C    -1.41971  -0.15997   1.25655
Br   -1.69634   1.68043   1.19182
C    -0.41203  -0.85126   1.82854
C     0.68202  -0.39710   2.59042
N     1.55954  -0.05592   3.27608
C    -1.56729  -1.82604  -0.59045
H    -3.66611   2.18977  -2.96311
H    -2.42084   2.42167  -4.24057
H    -2.54353   3.59873  -2.88041
H     1.33895  -3.53759  -3.05030
H     0.08715  -2.26295  -2.87458
H     1.58932  -1.90681  -3.73926
H     1.27323   1.87961  -0.43449
H     2.70693   3.28650   0.99629
H     4.74992   2.32103   2.06742
H     5.31400  -0.08092   1.69130
H     3.86453  -1.49842   0.26933
H     0.06732  -3.33102  -0.42315
H    -0.31795  -3.07530   2.18732
H    -3.38108  -0.93768   0.45600
H    -2.06083  -2.04497  -1.53934
