41
Generated by autodE on: 2022-05-31. E = -1392.331880 Ha. Imaginary frequency = -457.9 cm-1
C     4.48338   0.24939  -0.49439
N     3.24826   0.76390   0.06313
C     2.51056   0.03532   0.92448
O     2.88952  -1.05640   1.37598
C     1.21348   0.59746   1.34176
C     0.53121   1.71033   1.02858
F     0.85003   2.67517   0.17758
C    -0.78312   1.67540   1.79751
O    -0.30902   1.04353   3.00894
C     0.27861  -0.10403   2.33091
C    -0.97232  -0.62557   1.59262
C    -1.66545   0.53254   1.21699
C    -1.75984   0.35712  -0.86209
C    -2.33211   1.64835  -1.31922
O    -3.51710   1.89591  -1.29930
O    -1.36059   2.48483  -1.65639
C    -1.73062   3.84115  -1.95707
N    -0.52049  -0.08271  -1.19830
C    -0.42026  -1.36096  -0.72218
C     0.82730  -2.11936  -0.83992
O     1.79474  -1.70893  -1.45502
O     0.77142  -3.28349  -0.19690
C     1.96356  -4.08656  -0.22394
C    -1.77565  -1.86810  -0.62325
O    -2.25130  -2.95927  -0.41698
O    -2.58679  -0.74101  -0.82820
H     4.97295   1.04464  -1.06960
H     5.16266  -0.08074   0.30507
H     4.29488  -0.60939  -1.15951
H     2.85019   1.61016  -0.33090
H    -1.27611   2.63594   1.97588
H     0.75699  -0.79940   3.02528
H    -1.40845  -1.59613   1.81899
H    -2.75073   0.62739   1.26214
H    -0.79155   4.36811  -2.15755
H    -2.24626   4.28865  -1.09564
H    -2.38476   3.87032  -2.83956
H     0.27767   0.52841  -1.36361
H     2.23196  -4.34098  -1.25904
H     1.72533  -4.99383   0.34230
H     2.79087  -3.54205   0.25176
