31
Generated by autodE on: 2022-06-18. E = -1062.704192 Ha
C     4.17749   1.43317   1.07943
O     2.87765   0.81529   1.01450
C     2.28460   0.79447  -0.16706
O     2.73651   1.22990  -1.19774
C     0.92287   0.12484  -0.05989
O     0.28288   0.17580  -1.38944
C    -0.63515  -0.81443  -1.39986
O    -1.37260  -1.06096  -2.31042
C    -0.52672  -1.44825   0.01513
C    -1.05221  -2.79620   0.12215
N    -1.45918  -3.87860   0.19132
C    -1.15624  -0.38277   0.98276
C    -2.58356  -0.00955   0.62878
O    -3.42844  -0.88011   0.49527
C    -2.91561   1.41738   0.45523
C    -1.98329   2.38977   0.39672
C    -0.53823   2.12144   0.51280
O     0.29342   2.98888   0.29553
C    -0.09017   0.73555   0.92671
N     0.91057  -1.27474   0.30866
C     1.82235  -2.13809  -0.44925
H     4.09992   2.49347   0.80144
H     4.87399   0.91901   0.40304
H     4.50429   1.33113   2.11974
H    -1.18713  -0.83068   1.98556
H    -3.97709   1.64027   0.32064
H    -2.26011   3.43114   0.21398
H     0.40382   0.84375   1.90146
H     1.63768  -3.18228  -0.16657
H     1.71532  -2.03972  -1.54341
H     2.85366  -1.88871  -0.16700
