19
Generated by autodE on: 2022-06-18. E = -681.046430 Ha
C     4.15083   0.22002  -0.08067
O     2.74778   0.52701  -0.17945
C     1.90659  -0.44554   0.14151
O     2.21356  -1.56181   0.50783
C     0.50738  -0.00058  -0.00161
O     0.19002   1.22760  -0.40431
C    -1.23321   1.35694  -0.44170
O    -1.75448   2.39511  -0.78037
C    -1.68991   0.07571  -0.02015
C    -3.01799  -0.34714   0.11728
N    -4.13280  -0.67616   0.22393
N    -0.57648  -0.71594   0.23761
C    -0.62690  -2.10749   0.69897
H     4.40500  -0.60671  -0.75879
H     4.67682   1.13455  -0.37482
H     4.40506  -0.05606   0.95233
H    -1.67849  -2.40152   0.77698
H    -0.13948  -2.18356   1.67750
H    -0.10876  -2.74793  -0.02340
