12
Generated by autodE on: 2022-06-18. E = -381.636101 Ha
O    -2.64770   0.31479  -0.01940
C    -1.42952   0.16995  -0.01002
C    -0.81719  -1.18090  -0.00913
C     0.51784  -1.33930   0.00046
C     1.42952  -0.16995   0.01044
O     2.64770  -0.31479   0.01919
C     0.81719   1.18090   0.00909
C    -0.51784   1.33930  -0.00050
H    -1.50826  -2.02706  -0.01653
H     0.99195  -2.32353   0.00151
H     1.50826   2.02706   0.01622
H    -0.99195   2.32354  -0.00182
