42
Generated by autodE on: 2022-06-20. E = -1032.588153 Ha
C    -3.54690   2.23517  -0.46538
C    -2.34346   1.78319  -0.84245
C    -1.92741   1.67013  -2.28369
C    -1.33197   1.35891   0.20923
C     0.01015   2.03173   0.03139
C     0.13145   3.46613   0.09141
N     0.18466   4.62492   0.14184
N     1.03506   1.30016  -0.18759
C     0.60231  -0.10035  -0.21722
C     1.42793  -0.95256   0.75174
O     1.70753  -2.11254   0.53501
O     1.73927  -0.29194   1.85505
C     2.37038  -1.04609   2.90552
C     0.85965  -0.67925  -1.62249
O     0.04818  -1.30497  -2.26660
O     2.09434  -0.41739  -2.02745
C     2.48151  -0.93474  -3.31332
C    -0.92448  -0.14338   0.18434
C    -1.19381  -0.82630   1.50026
C    -1.41640  -2.14078   1.68058
C    -1.61381  -2.70343   3.06203
C    -1.45308  -3.15457   0.57061
H    -4.29626   2.53397  -1.20436
H    -3.82014   2.31585   0.59073
H    -2.73911   1.98146  -2.95606
H    -1.63943   0.63814  -2.53970
H    -1.04637   2.30111  -2.49328
H    -1.72884   1.63322   1.19802
H     1.69206  -1.83960   3.25124
H     3.31009  -1.48828   2.54742
H     2.56487  -0.33091   3.71220
H     2.41687  -2.03197  -3.31359
H     1.83105  -0.52484  -4.09861
H     3.51721  -0.61199  -3.46629
H    -1.45246  -0.66373  -0.62039
H    -1.14961  -0.18300   2.38512
H    -0.83206  -3.44933   3.28946
H    -2.57913  -3.23423   3.13615
H    -1.58354  -1.92208   3.83549
H    -1.30477  -2.72127  -0.42608
H    -2.41240  -3.70036   0.58048
H    -0.66381  -3.90944   0.72832
