23
Generated by autodE on: 2022-06-20. E = -351.521380 Ha
C     3.77024  -0.03497   0.28976
C     2.56569   0.14101  -0.29664
C     2.45062   0.60969  -1.72466
C     1.34168  -0.12571   0.45627
C     0.07699   0.00799  -0.01668
C    -1.10407  -0.27020   0.77486
C    -2.39795  -0.16477   0.37928
C    -3.51940  -0.49186   1.32447
C    -2.83561   0.27107  -0.99030
H     3.85042  -0.37592   1.32659
H     4.70177   0.15699  -0.24997
H     3.44148   0.77434  -2.17094
H     1.88050   1.55136  -1.78919
H     1.91085  -0.12727  -2.34240
H     1.47984  -0.46203   1.49096
H    -0.06796   0.34206  -1.04759
H    -0.91630  -0.60088   1.80362
H    -3.15261  -0.80619   2.31262
H    -4.18432   0.38018   1.45953
H    -4.15421  -1.29804   0.91468
H    -3.48825   1.15901  -0.91786
H    -3.44590  -0.51777  -1.46473
H    -2.00446   0.51211  -1.66535
