50
Generated by autodE on: 2022-06-27. E = -1356.934340 Ha
C     0.17224   2.94872   2.03559
N    -0.50770   2.17740   1.01630
C    -0.09248   2.08365  -0.25142
O     0.83096   2.73695  -0.75279
C    -0.82530   1.05035  -1.11050
O    -1.97170   0.54425  -0.44735
C    -1.83939  -0.81083  -0.04661
C    -2.85436  -1.66263  -0.85516
C    -3.97066  -0.90739  -1.51677
O    -2.78813  -2.87559  -0.85979
C    -2.32154  -0.89129   1.44439
C    -2.65048  -2.22664   2.04091
O    -2.53578   0.15284   2.03280
C    -0.31431  -1.15198  -0.27986
C     0.05140  -2.62134  -0.54312
C     0.47378  -0.77615   0.98476
O     0.04853  -1.07656   2.09013
C     1.80077  -0.13881   0.86566
O     2.39886   0.02407   2.05302
C     3.35517   1.07580   2.25362
C     2.32392   0.20149  -0.35453
O     3.61756   0.55815  -0.44514
C     4.00468   1.71003  -1.21542
C     1.52521   0.08159  -1.58817
O     2.06467   0.20182  -2.67859
C     0.02568  -0.20666  -1.47642
C    -0.44760  -0.75542  -2.82705
H     0.99006   3.51633   1.57672
H     0.58468   2.27572   2.80352
H    -0.52106   3.65143   2.52218
H    -1.29739   1.58786   1.29487
H    -1.13687   1.56912  -2.02844
H    -4.66270  -1.62012  -1.98248
H    -4.49734  -0.30491  -0.75866
H    -3.58490  -0.20055  -2.26502
H    -2.54955  -2.15924   3.13166
H    -3.70322  -2.45718   1.80457
H    -2.03121  -3.03583   1.63956
H    -0.46692  -3.02139  -1.41899
H    -0.19769  -3.24091   0.32758
H     1.13612  -2.69072  -0.71322
H     3.36137   1.26402   3.33517
H     4.35531   0.76729   1.92344
H     3.05042   1.98777   1.72141
H     4.85193   2.16223  -0.68145
H     3.18030   2.43161  -1.27607
H     4.31937   1.41028  -2.22368
H     0.11788  -1.65137  -3.11217
H    -1.51415  -1.00792  -2.81645
H    -0.29140   0.00572  -3.60174
