26
Generated by autodE on: 2022-06-27. E = -689.460862 Ha
C    -2.42593   2.15137  -0.20116
O    -1.98344   0.96278  -0.86463
C    -0.81624   0.42313  -0.40435
C    -0.76431  -0.72435   0.32921
O    -1.76156  -1.49421   0.76323
C    -3.13864  -1.18799   0.52094
C     0.56972  -1.29141   0.73724
O     0.59584  -2.32715   1.38759
C     1.81610  -0.57982   0.35420
C     3.11830  -1.17127   0.79827
C     1.75224   0.56352  -0.37248
C     2.98130   1.31194  -0.78170
C     0.43048   1.10945  -0.80620
O     0.36640   2.12019  -1.50403
H    -3.36907   2.44514  -0.68080
H    -1.69390   2.96586  -0.30618
H    -2.60587   1.95492   0.86894
H    -3.70224  -2.00174   0.99458
H    -3.35383  -1.16214  -0.55510
H    -3.41718  -0.23082   0.98424
H     2.96193  -2.09878   1.36143
H     3.76419  -1.38757  -0.06851
H     3.67212  -0.46050   1.43376
H     3.56769   1.60990   0.10315
H     3.64029   0.67318  -1.39312
H     2.72693   2.20929  -1.35750
