54
Generated by autodE on: 2022-06-22. E = -1003.521668 Ha
C     5.35217  -2.22470   0.93277
C     4.41987  -1.25384   1.01691
C     4.67402   0.02567   1.77050
C     3.12414  -1.41883   0.34835
C     2.12065  -0.52232   0.37483
C     0.81885  -0.70753  -0.33253
C     0.44067   0.38921  -1.38615
C     0.91446  -0.02182  -2.78703
C     1.10816   1.75320  -1.08337
O     2.33491   1.90547  -1.18692
N     0.26622   2.74110  -0.75484
C     0.69371   4.07112  -0.38628
N    -1.02106   0.48980  -1.28734
C    -1.59504  -0.57400  -0.44390
C    -1.90572  -1.81677  -1.30377
C    -2.88836  -0.10333   0.23061
C    -3.67798  -1.00424   0.96859
C    -4.83918  -0.58298   1.62098
C    -5.24945   0.75178   1.54227
C    -4.48351   1.65471   0.80158
C    -3.31805   1.22936   0.15522
C    -0.43123  -0.82336   0.59450
C    -0.43005   0.24904   1.69463
C    -0.46069  -2.19753   1.26433
H     6.32903  -2.12238   1.41386
H     5.15862  -3.14828   0.37834
H     3.95009   0.15311   2.59268
H     4.55249   0.89916   1.10832
H     5.68750   0.04580   2.19538
H     2.99160  -2.34496  -0.22372
H     2.24589   0.39980   0.94505
H     0.88308  -1.65187  -0.89112
H     0.46702  -0.98542  -3.06951
H     0.62343   0.73387  -3.53442
H     2.00887  -0.11943  -2.80642
H    -0.70545   2.44346  -0.67011
H    -0.08289   4.80097  -0.65361
H     0.89072   4.15484   0.69664
H     1.61950   4.32281  -0.92154
H    -1.45983   0.50595  -2.20545
H    -0.99572  -2.22382  -1.76540
H    -2.59466  -1.52576  -2.11268
H    -2.38469  -2.62125  -0.73101
H    -3.38693  -2.05232   1.04370
H    -5.42830  -1.30486   2.19228
H    -6.15918   1.08188   2.04961
H    -4.79233   2.70026   0.72258
H    -2.73140   1.94449  -0.41965
H     0.44459   0.12216   2.34928
H    -1.32713   0.15816   2.32326
H    -0.40491   1.26881   1.28974
H    -1.34461  -2.31280   1.90885
H     0.42970  -2.31208   1.90239
H    -0.45181  -3.01962   0.53502
