23
Generated by autodE on: 2022-06-22. E = -351.521382 Ha
C     3.21786  -0.51442  -1.91841
C     2.41045  -0.41484  -0.83952
C     2.94756  -0.58330   0.55882
C     0.98635  -0.13778  -1.01644
C     0.07485  -0.01313  -0.01917
C    -1.32835   0.26336  -0.25019
C    -2.29890   0.40069   0.68838
C    -2.07068   0.28354   2.16876
C    -3.71853   0.69025   0.29003
H     2.82526  -0.39150  -2.93255
H     4.28680  -0.72069  -1.81465
H     2.44332  -1.41335   1.08106
H     4.02763  -0.78677   0.54874
H     2.77113   0.32166   1.16375
H     0.64582  -0.02391  -2.05268
H     0.40675  -0.12467   1.01664
H    -1.62290   0.37125  -1.30114
H    -1.02989   0.06416   2.43950
H    -2.36829   1.21819   2.67631
H    -2.71067  -0.51069   2.59204
H    -4.39749  -0.09943   0.65920
H    -4.06926   1.63218   0.74892
H    -3.83706   0.76925  -0.80062
