31
Generated by autodE on: 2022-07-27. E = -651.938692 Ha
C     3.42421   2.01859   0.32903
N     2.76512   1.15313  -0.62465
C     1.82239   0.24149  -0.20986
O     1.36182   0.31486   0.95417
C     1.43037  -0.75919  -1.16754
C     2.22870  -1.06403  -2.40290
N     0.40483  -1.62589  -0.89871
C    -0.70976  -1.59948  -0.15982
C    -1.33902  -2.94074   0.09012
C    -1.37401  -0.39539   0.31626
C    -2.37567  -0.50444   1.31130
C    -3.11073   0.60603   1.72520
C    -2.88881   1.85929   1.14552
C    -1.91340   1.98452   0.14859
C    -1.15308   0.88617  -0.24484
H     2.68383   2.57114   0.92589
H     4.04494   2.74413  -0.21322
H     4.07272   1.46647   1.03449
H     3.22142   1.00784  -1.51690
H     2.07495  -2.11247  -2.71124
H     1.94648  -0.43783  -3.27059
H     3.31016  -0.92622  -2.24204
H     0.52953  -2.52324  -1.37645
H    -1.17599  -3.27861   1.12911
H    -0.90093  -3.70784  -0.56743
H    -2.42701  -2.91832  -0.07481
H    -2.57555  -1.47029   1.77644
H    -3.86589   0.48910   2.50649
H    -3.46528   2.72936   1.46820
H    -1.73219   2.95535  -0.31967
H    -0.40294   1.01751  -1.02374
