54
Generated by autodE on: 2022-06-22. E = -1003.434212 Ha. Imaginary frequency = -370.7 cm-1
C     5.25364   0.45591   0.61224
C     3.99459   0.43042   1.10894
C     3.56611   1.40744   2.17566
C     3.01608  -0.52917   0.60939
C     1.70715  -0.56774   0.97692
C     0.71278  -1.46589   0.44456
C     0.14496  -0.33833  -1.56580
C     1.08924  -0.90223  -2.59398
C     0.43780   0.99578  -0.99386
O    -0.20211   1.51902  -0.06561
N     1.52316   1.61866  -1.52943
C     2.10782   2.81598  -0.96666
N    -1.09595  -0.90525  -1.57605
C    -2.06612  -1.00988  -0.59927
C    -2.99104  -2.18438  -0.85329
C    -2.80385   0.19198  -0.13717
C    -3.66065   0.12096   0.97890
C    -4.43808   1.21436   1.36554
C    -4.40266   2.40271   0.62882
C    -3.58996   2.47531  -0.50753
C    -2.80403   1.38604  -0.88512
C    -0.54338  -1.70310   1.05947
C    -0.91873  -0.89603   2.28312
C    -0.97444  -3.15251   1.12994
H     5.57001  -0.24720  -0.16477
H     5.99428   1.17667   0.96965
H     4.39162   2.07592   2.45846
H     3.22034   0.88066   3.08055
H     2.72288   2.02699   1.83085
H     3.37772  -1.24559  -0.13780
H     1.36092   0.16219   1.71081
H     1.09641  -2.26017  -0.20349
H     0.80454  -1.93246  -2.85383
H     1.11045  -0.31442  -3.52949
H     2.11685  -0.93475  -2.19936
H     2.03446   1.16306  -2.27411
H     1.54108   3.10137  -0.07322
H     3.15965   2.64404  -0.68697
H     2.07428   3.65491  -1.68147
H    -1.07635  -1.74832  -2.14616
H    -3.75364  -1.92379  -1.60923
H    -2.44116  -3.06792  -1.20669
H    -3.52830  -2.46544   0.06091
H    -3.72135  -0.80244   1.55477
H    -5.08201   1.13313   2.24494
H    -5.01350   3.25785   0.92806
H    -3.57064   3.38722  -1.10998
H    -2.19798   1.45022  -1.78840
H    -0.24098  -1.13057   3.12517
H    -1.93543  -1.13589   2.62011
H    -0.86972   0.18614   2.10564
H    -2.03900  -3.27081   1.37687
H    -0.40582  -3.66564   1.92947
H    -0.77097  -3.69184   0.19282
