23
Generated by autodE on: 2022-06-18. E = -351.521385 Ha
C    -3.63700   1.03446  -0.00484
C    -2.57826   0.19496   0.00595
C    -2.76452  -1.30065   0.03154
C    -1.21966   0.73354  -0.00729
C    -0.07822   0.00010   0.00036
C     1.24697   0.58512  -0.01357
C     2.43154  -0.07701  -0.00739
C     2.56661  -1.57313   0.01606
C     3.73287   0.67396  -0.02414
H    -4.66406   0.65909   0.00460
H    -3.49794   2.11984  -0.02337
H    -3.83030  -1.56911   0.03975
H    -2.28842  -1.74532   0.92126
H    -2.29468  -1.77489  -0.84617
H    -1.13825   1.82706  -0.02509
H    -0.15138  -1.09066   0.01789
H     1.28049   1.68120  -0.03101
H     1.60544  -2.10296   0.02762
H     3.13940  -1.91877  -0.86261
H     3.14485  -1.89048   0.90184
H     4.34462   0.41672   0.85928
H     3.58452   1.76374  -0.03931
H     4.33660   0.39117  -0.90529
