18
Generated by autodE on: 2022-06-18. E = -489.751682 Ha
C     3.16273   0.87428  -0.51336
N     1.98817   0.06827  -0.24792
C     0.75958   0.63308  -0.18069
O     0.60760   1.85290  -0.33663
C    -0.35329  -0.30880   0.08221
C    -0.09541  -1.69388   0.18180
N     0.13317  -2.83711   0.26124
N    -1.66550   0.06755   0.23107
C    -2.04488   1.49739   0.16294
N    -2.65118  -0.71455   0.43754
H     4.03910   0.21602  -0.55156
H     3.07633   1.40461  -1.47506
H     3.32163   1.62898   0.27381
H     2.10709  -0.92867  -0.10558
H    -3.12108   1.53168   0.35084
H    -1.79754   1.88916  -0.82820
H    -1.48625   2.05712   0.91890
H    -2.30156  -1.68373   0.46689
