13
Generated by autodE on: 2022-06-16. E = -377.902559 Ha
C    -2.60309  -0.23105   0.29670
N    -1.89415   0.88509  -0.24173
O    -0.63729   0.74112  -0.27482
N    -0.06239  -0.38751   0.17335
C     1.32069  -0.25166   0.00769
C     2.04847  -1.47335   0.49827
O     1.87895   0.72818  -0.46910
H    -2.26194  -0.44327   1.32743
H    -2.37784  -1.14641  -0.28214
H    -3.67112   0.00580   0.27082
H     3.12525  -1.35600   0.32449
H     1.67883  -2.37173  -0.02033
H     1.85787  -1.61698   1.57390
