13
Generated by autodE on: 2022-07-27. E = -377.889268 Ha
C    -1.19955   1.44837  -0.47536
N    -1.48820   0.22424  -1.11845
O    -0.56368  -0.64180  -1.18263
N     0.70141  -0.52271  -0.64449
C     0.73371  -0.27406   0.70008
C     2.13131  -0.04206   1.20887
O    -0.25299  -0.28420   1.44769
H    -1.25652   1.31661   0.62688
H    -0.15493   1.75844  -0.67720
H    -1.94321   2.18116  -0.80649
H     2.29681  -0.65612   2.10619
H     2.89472  -0.26195   0.45216
H     2.21403   1.01598   1.50672
