40
Generated by autodE on: 2022-06-18. E = -898.349912 Ha
C     3.98960  -1.25926  -0.52676
O     2.61616  -1.02508  -0.20062
C     2.29031   0.25017   0.08919
O     3.09870   1.16732   0.04487
N     0.99401   0.37318   0.50744
N     0.19318  -0.79449   0.55907
C     0.32667  -1.55698   1.79113
C    -1.14264  -0.48099   0.07235
C    -2.15900  -0.51513   1.14685
N    -2.94674  -0.61097   1.99311
C    -1.64625  -1.50290  -0.99524
C    -0.63797  -2.43063  -1.59235
O    -2.82805  -1.51584  -1.27707
C    -1.00737   0.97522  -0.55118
C    -0.53548   0.87466  -2.01149
C    -2.32094   1.75213  -0.51529
C     0.13530   1.57644   0.36041
C    -0.34675   2.01379   1.75080
C     0.81924   2.77075  -0.30271
H     4.07427  -2.33751  -0.70761
H     4.27792  -0.70330  -1.43074
H     4.64458  -0.96473   0.30627
H     1.36846  -1.88944   1.89315
H     0.03924  -0.98641   2.69309
H    -0.30607  -2.45302   1.71866
H    -0.37709  -3.18302  -0.82819
H    -1.07265  -2.93241  -2.46643
H     0.29592  -1.91356  -1.84539
H    -0.44731   1.88024  -2.44179
H    -1.26925   0.33118  -2.62303
H     0.43706   0.37282  -2.10850
H    -2.72347   1.86909   0.49847
H    -3.07730   1.23408  -1.12323
H    -2.16858   2.75357  -0.94380
H    -1.00437   2.89077   1.67530
H     0.52994   2.29360   2.35249
H    -0.88561   1.22623   2.29155
H     1.34017   2.51383  -1.23020
H     0.04425   3.51747  -0.53077
H     1.54371   3.22905   0.38114
