18
Generated by autodE on: 2022-06-18. E = -235.968071 Ha
C     1.74653  -0.85325   0.32758
C     0.65628   0.07661  -0.14813
C     1.20863   1.19773  -0.99526
C    -0.65627  -0.07657   0.14818
C    -1.74658   0.85311  -0.32778
C    -1.20860  -1.19761   0.99544
H     1.39363  -1.68233   0.95241
H     2.28493  -1.28599  -0.53481
H     2.50304  -0.29316   0.90612
H     1.74226   0.78885  -1.87212
H     1.95993   1.77415  -0.42602
H     0.45317   1.90292  -1.36182
H    -2.50331   0.29263  -0.90564
H    -1.39380   1.68162  -0.95343
H    -2.28467   1.28658   0.53443
H    -1.95843  -1.77540   0.42565
H    -0.45286  -1.90160   1.36374
H    -1.74393  -0.78853   1.87116
