22
Generated by autodE on: 2022-07-27. E = -662.327325 Ha
C     4.29410  -0.01605   0.58874
O     3.00710   0.38456   0.10205
C     1.95424  -0.27139   0.60502
O     2.04048  -1.16438   1.42990
N     0.81531   0.18159  -0.04355
N    -0.33994   0.03723   0.52073
C    -0.47850  -0.18049   1.99036
C    -1.46440   0.13967  -0.21641
C    -2.72382   0.12725   0.44671
N    -3.77439   0.11275   0.94843
C    -1.55576   0.24248  -1.70242
C    -0.34969   0.17379  -2.58617
O    -2.68499   0.36141  -2.16816
H     4.36112   0.13507   1.67611
H     4.48240  -1.07418   0.35468
H     5.02216   0.62097   0.07324
H    -0.43926  -1.25772   2.18779
H    -1.43405   0.23484   2.31900
H     0.34513   0.32898   2.49612
H     0.25473  -0.71689  -2.36082
H     0.30316   1.04153  -2.41304
H    -0.69452   0.15622  -3.62841
