65
Generated by autodE on: 2022-06-10. E = -1513.475583 Ha
C    -1.29825   0.39586   4.33773
N    -0.86310   0.00566   3.01195
C    -1.58591   0.24407   1.91872
O    -2.72269   0.74713   1.94732
C    -0.92873  -0.11839   0.57194
C    -1.87333  -1.08081  -0.17915
C    -2.54513  -2.06288   0.56919
C    -3.29507  -3.06231  -0.05319
C    -3.39081  -3.10458  -1.44699
C    -2.72449  -2.13875  -2.20341
C    -1.97145  -1.14078  -1.57689
N     0.36344  -0.78013   0.78245
C     1.24943  -0.52702  -0.34618
C     1.01742  -1.52467  -1.50870
O     1.12869  -1.26276  -2.68874
O     0.74564  -2.74566  -1.04984
C     0.53418  -3.78092  -2.02101
C     2.72213  -0.72786   0.03842
C     3.09469  -1.01848   1.35552
C     4.44295  -1.18119   1.69225
C     5.43419  -1.05738   0.71613
C     5.06795  -0.77245  -0.60394
C     3.72284  -0.61232  -0.94022
C     0.89177   0.92051  -0.79573
C     1.78673   2.03153  -0.20737
C     1.34877   3.37998  -0.82174
C     0.02906   3.69771  -0.06302
C    -0.19446   2.42754   0.78697
C     1.25178   2.14493   1.22997
C    -0.51986   1.21782  -0.17622
C    -1.57107   1.68589  -1.18969
O    -1.28275   1.96911  -2.36160
N    -2.81422   1.81971  -0.70434
C    -3.92854   2.14835  -1.56858
H    -1.23399   1.48789   4.47769
H    -0.66043  -0.09396   5.08384
H    -2.34146   0.09072   4.50185
H     0.08391  -0.33147   2.84878
H    -2.47682  -2.06147   1.65870
H    -3.80642  -3.81105   0.55645
H    -3.97756  -3.88433  -1.93785
H    -2.78143  -2.15796  -3.29417
H    -1.45479  -0.42218  -2.20757
H     0.25377  -1.77777   0.95744
H     1.45230  -3.95050  -2.60174
H    -0.28657  -3.50484  -2.69699
H     0.27071  -4.67919  -1.45152
H     2.32610  -1.11152   2.12242
H     4.71641  -1.40590   2.72603
H     6.48680  -1.18365   0.98012
H     5.83366  -0.67263  -1.37691
H     3.44872  -0.38730  -1.97242
H     0.86855   0.96535  -1.88798
H     2.85765   1.82899  -0.31583
H     2.11181   4.15187  -0.64335
H     1.19784   3.30198  -1.90811
H    -0.80731   3.94348  -0.72931
H     0.15996   4.55165   0.61759
H    -0.94332   2.56670   1.57425
H     1.37439   1.23043   1.81862
H     1.68392   2.99153   1.78516
H    -2.99572   1.48119   0.24757
H    -4.12679   1.34079  -2.29487
H    -4.82616   2.29670  -0.95493
H    -3.72953   3.07039  -2.13484
