24
Generated by autodE on: 2022-06-10. E = -480.984068 Ha
C     3.61958   0.98815  -0.67461
N     2.31759   0.85191  -0.05790
C     1.40307  -0.07231  -0.43008
O     1.61950  -0.92353  -1.30963
C     0.09873  -0.03184   0.26666
C    -0.53951   1.02096   0.82220
C    -1.95012   0.57601   1.14688
C    -2.66930   0.42797  -0.23923
C    -1.94139  -0.78715  -0.88183
C    -0.89617  -1.18271   0.21007
C    -1.70533  -0.90906   1.49422
H     3.72754   1.96524  -1.17330
H     3.73852   0.19693  -1.42417
H     4.42396   0.89228   0.07177
H     2.07041   1.49089   0.69022
H    -0.17778   2.04958   0.89030
H    -2.49590   1.18968   1.87466
H    -2.58999   1.34626  -0.83847
H    -3.73847   0.21999  -0.08284
H    -1.44948  -0.54622  -1.83478
H    -2.63695  -1.62072  -1.06100
H    -0.45667  -2.17901   0.08138
H    -1.11409  -1.04319   2.41241
H    -2.63310  -1.49833   1.55900
