65
Generated by autodE on: 2022-06-10. E = -1513.391824 Ha. Imaginary frequency = -285.7 cm-1
C    -1.15411   0.12162   4.45751
N    -0.76511  -0.45157   3.18158
C    -1.40336  -0.11762   2.03979
O    -2.37941   0.65275   2.05541
C    -0.87645  -0.66239   0.74562
C    -1.88549  -1.29713  -0.13824
C    -3.04188  -1.84551   0.46061
C    -4.03039  -2.46694  -0.30145
C    -3.89607  -2.55999  -1.68986
C    -2.76185  -2.01910  -2.30012
C    -1.77395  -1.39796  -1.53661
N     0.46123  -0.94385   0.75884
C     1.38331  -0.92809  -0.25741
C     1.16345  -1.79394  -1.45743
O     1.51560  -1.53032  -2.59192
O     0.59576  -2.95795  -1.12346
C     0.36181  -3.89513  -2.18664
C     2.81461  -0.82890   0.13983
C     3.22356  -0.87386   1.48743
C     4.56602  -0.71833   1.83828
C     5.53936  -0.52696   0.85462
C     5.15036  -0.49819  -0.48846
C     3.81027  -0.64732  -0.84296
C     0.86411   1.17329  -1.00995
C     1.85617   2.10352  -0.32518
C     1.54090   3.52205  -0.90208
C     0.16042   3.86463  -0.26567
C    -0.16105   2.58418   0.56703
C     1.24657   2.24096   1.08319
C    -0.39447   1.49130  -0.48325
C    -1.62955   1.50955  -1.30896
O    -1.60557   1.41174  -2.54995
N    -2.78683   1.68310  -0.62879
C    -4.06642   1.54807  -1.29252
H    -0.43025  -0.19137   5.21972
H    -2.16009  -0.21015   4.76271
H    -1.15971   1.21958   4.39894
H    -0.12829  -1.24197   3.19068
H    -3.16957  -1.79752   1.54257
H    -4.90824  -2.88551   0.19623
H    -4.66982  -3.04435  -2.28977
H    -2.64385  -2.06670  -3.38489
H    -0.93780  -0.94783  -2.06004
H     0.88441  -0.56635   1.60348
H     1.31976  -4.24469  -2.59776
H    -0.23515  -3.43529  -2.98555
H    -0.18684  -4.72940  -1.73535
H     2.50725  -1.05409   2.29149
H     4.84964  -0.75988   2.89247
H     6.58932  -0.40760   1.13068
H     5.89699  -0.35167  -1.27259
H     3.52480  -0.60459  -1.89290
H     0.99806   0.86149  -2.04635
H     2.91222   1.82004  -0.39102
H     2.31690   4.23691  -0.58806
H     1.51587   3.51653  -2.00167
H    -0.61790   4.07691  -1.01309
H     0.23293   4.73934   0.39882
H    -0.95035   2.71169   1.31662
H     1.29331   1.33679   1.69890
H     1.69641   3.06394   1.65914
H    -2.74831   1.45853   0.37114
H    -4.26476   0.50696  -1.60325
H    -4.86480   1.86540  -0.60842
H    -4.10370   2.17949  -2.19155
