30
Generated by autodE on: 2022-10-06. E = -1116.270320 Ha
C     4.56798   0.84614   0.23983
N     3.19955   0.37653   0.34172
C     2.31834   0.57631  -0.64218
O     2.58121   1.12473  -1.71461
C     0.90194   0.08144  -0.39483
O     0.80374  -0.57079   0.94217
C    -0.29850  -1.34236   0.89105
O    -0.69364  -2.02057   1.79961
C    -0.83641  -1.15387  -0.55191
C    -1.67955  -2.23641  -1.02137
N    -2.33943  -3.10448  -1.41538
C    -1.45840   0.27557  -0.64191
C    -2.72393   0.52693   0.19557
O    -3.23541   1.66611   0.07247
O    -3.18055  -0.44243   0.85490
C    -0.20249   1.16072  -0.41410
C    -0.09273   2.00941   0.87694
O    -0.78614   1.68415   1.86888
O     0.76382   2.92993   0.82524
N     0.42192  -0.93665  -1.30672
C     1.28567  -2.10756  -1.47153
H     5.06236   0.42432  -0.64841
H     4.60405   1.94440   0.16196
H     5.11703   0.53446   1.13604
H     2.88151  -0.07684   1.19197
H    -1.76330   0.39193  -1.69103
H    -0.01145   1.80847  -1.27670
H     1.57829  -2.58633  -0.52027
H     0.76485  -2.84932  -2.09157
H     2.19464  -1.80112  -2.00605
