20
Generated by autodE on: 2022-10-13. E = -661.188471 Ha
C     3.76106   1.77005   0.94239
N     2.39996   1.27444   0.89857
C     1.89665   0.60495  -0.15041
O     2.50658   0.33963  -1.18870
C     0.47754   0.18436   0.04467
O    -0.15130   0.43758   1.19041
C    -1.49674  -0.06950   1.12482
O    -2.24747   0.05603   2.06609
C    -1.55990  -0.63244  -0.17451
C    -2.64779  -1.26828  -0.78344
N    -3.56597  -1.79531  -1.27634
N    -0.31907  -0.44854  -0.79197
C    -0.03560  -0.90940  -2.15274
H     3.77067   2.86317   1.07058
H     4.26532   1.51526   0.00355
H     4.31110   1.31548   1.78060
H     1.80014   1.43529   1.70305
H     0.99710  -0.65943  -2.40074
H    -0.73400  -0.41354  -2.83970
H    -0.19414  -1.99505  -2.19098
