20
Generated by autodE on: 2022-10-06. E = -661.182693 Ha
C    -3.29184  -0.92510  -0.09483
N    -2.99489   0.50150  -0.11950
C    -1.81040   1.12573  -0.03398
O    -1.68262   2.35138   0.04914
C    -0.57986   0.28141  -0.06356
O    -0.52128  -0.89656  -0.67607
C     0.82506  -1.40049  -0.62217
O     1.10200  -2.46736  -1.12399
C     1.51724  -0.38647   0.08617
C     2.86855  -0.37249   0.44998
N     3.99912  -0.38134   0.74278
N     0.60463   0.62411   0.40314
C     0.96617   1.84848   1.12090
H    -3.13946  -1.39667  -1.07673
H    -4.34501  -1.04179   0.18862
H    -2.67521  -1.44618   0.64883
H    -3.78521   1.14218  -0.15684
H     1.82088   1.62179   1.76799
H     0.11722   2.18538   1.72091
H     1.24282   2.62647   0.39762
