10
Generated by autodE on: 2022-10-06. E = -455.046529 Ha
O    -1.53917   0.14633  -1.76038
C    -1.45640   0.30707  -0.51496
O    -2.21938  -0.18260   0.35731
C    -0.39364   1.27383  -0.02808
C     0.84472   0.98296   0.40426
C     1.44665  -0.39954   0.50072
O     0.77660  -1.38220   0.07469
O     2.60051  -0.46598   1.01303
H    -0.70621   2.32726  -0.04335
H     1.50213   1.79508   0.73578
