30
Generated by autodE on: 2022-10-06. E = -1116.216229 Ha. Imaginary frequency = -451.6 cm-1
C     4.32459   1.13391   0.63804
N     2.94862   0.68097   0.65441
C     2.50764  -0.18984  -0.25470
O     3.21061  -0.72636  -1.11960
C     1.02781  -0.48791  -0.15084
O     0.54808  -0.68723   1.13467
C    -0.66598  -1.34761   1.05063
O    -1.36871  -1.55269   2.01512
C    -0.79381  -1.66590  -0.35435
C    -1.83313  -2.42946  -0.92155
N    -2.71287  -3.04011  -1.38011
C    -1.35429   0.63244  -0.77371
C    -2.47705   0.81400   0.21787
O    -2.21025   1.35584   1.32425
O    -3.60666   0.38413  -0.14678
C    -0.05546   1.16871  -0.66667
C     0.21221   2.33994   0.30815
O     0.82483   2.15991   1.39876
O    -0.18337   3.44375  -0.12769
N     0.43537  -1.44610  -0.94661
C     0.60895  -1.52464  -2.39011
H     4.48355   1.81636   1.48213
H     5.01883   0.28533   0.73306
H     4.56873   1.66465  -0.29795
H     2.21586   1.23014   1.15102
H    -1.68200   0.26765  -1.75049
H     0.44606   1.32792  -1.62976
H     1.67253  -1.45019  -2.62512
H     0.05522  -0.71154  -2.88743
H     0.21778  -2.48860  -2.73886
