53
Generated by autodE on: 2022-10-23. E = -1093.857187 Ha
C     2.75224   2.39334   1.52674
C     2.13891   1.72452   0.53919
C     2.23816   2.16567  -0.89719
C     1.29394   0.51187   0.86372
C     1.90046  -0.90616   0.60597
C     2.87956  -0.99324  -0.57111
C     4.30457  -0.61037  -0.30177
O     2.51526  -1.40285  -1.66469
N     0.75101  -1.74874   0.37756
C     0.79737  -3.11410   0.84300
C    -0.50236  -1.03720   0.31340
C    -1.28262  -1.14405   1.64689
O    -0.65361  -1.14103   2.71535
N    -2.61678  -1.20167   1.59387
C    -3.42791  -1.20719   2.79343
C    -1.29409  -1.42238  -0.95636
O    -2.51166  -1.19992  -1.08813
N    -0.54056  -1.92010  -1.94168
C    -1.06767  -2.13101  -3.27361
C    -0.04007   0.45137   0.09636
C    -1.03134   1.49352   0.50360
C    -1.82327   2.21108  -0.31433
C    -1.84592   2.07621  -1.81291
C    -2.79661   3.21505   0.24128
H     2.65058   2.08228   2.57094
H     3.37516   3.26922   1.32138
H     2.99114   2.95724  -1.01788
H     1.26921   2.55969  -1.24766
H     2.49524   1.33750  -1.57564
H     1.06594   0.53401   1.93659
H     2.46210  -1.20851   1.50842
H     4.76493  -1.42779   0.28061
H     4.85853  -0.48060  -1.24048
H     4.36448   0.29423   0.32118
H     0.86400  -3.19687   1.94534
H    -0.10640  -3.65160   0.51781
H     1.66547  -3.63465   0.40622
H    -3.03167  -1.15123   0.65975
H    -3.32482  -0.26363   3.35515
H    -4.48065  -1.33548   2.51250
H    -3.13686  -2.02999   3.46456
H     0.46842  -1.94946  -1.76265
H    -1.98267  -2.74052  -3.23735
H    -1.31661  -1.17675  -3.76893
H    -0.31640  -2.65552  -3.87726
H     0.18021   0.53686  -0.97418
H    -1.11401   1.66309   1.58348
H    -1.73605   3.06532  -2.28924
H    -1.06477   1.41367  -2.20720
H    -2.82099   1.67680  -2.14087
H    -3.82870   2.96282  -0.06006
H    -2.75780   3.26474   1.33944
H    -2.59461   4.22262  -0.16286
