30
Generated by autodE on: 2022-10-26. E = -742.273798 Ha
C    -3.85677   1.45762   0.54950
N    -2.69522   0.67630   0.18374
C    -1.59433   0.67797   0.96824
O    -1.58866   1.25352   2.06954
C    -0.39475  -0.02557   0.43152
C    -0.41561  -0.61186  -0.94752
O    -1.13871  -0.14913  -1.84659
N     0.26421  -1.76070  -1.13849
C     0.41097  -2.31875  -2.46939
N     0.68312  -0.18549   1.23257
C     0.54149  -0.27678   2.70859
C     1.96329  -0.27739   0.79386
C     2.44127   0.32348  -0.42282
C     3.94123   0.33944  -0.60758
O     1.70017   0.83439  -1.27861
H    -4.23305   1.16107   1.54010
H    -4.64692   1.28769  -0.19254
H    -3.63479   2.53850   0.58802
H    -2.56044   0.38592  -0.78524
H     0.93052  -2.05988  -0.43427
H    -0.56974  -2.55539  -2.90721
H     0.99933  -3.24196  -2.40148
H     0.92693  -1.61622  -3.14500
H    -0.44132  -0.67341   2.96988
H     0.68042   0.71250   3.15783
H     1.32859  -0.95313   3.06188
H     2.68195  -0.63328   1.52802
H     4.21144  -0.47941  -1.29706
H     4.23898   1.28448  -1.08493
H     4.49555   0.19683   0.32965
