30
Generated by autodE on: 2022-10-23. E = -742.271519 Ha
C    -2.88553  -2.72974  -0.85170
N    -1.74427  -1.84432  -0.73878
C    -1.78625  -0.73238   0.03420
O    -2.86073  -0.39618   0.57945
C    -0.55069   0.06562   0.12267
C    -0.57525   1.52661   0.35810
O     0.45288   2.23269   0.37004
N    -1.79044   2.06413   0.61875
C    -1.92157   3.44730   1.01701
N     0.67265  -0.56158   0.00507
C     0.86137  -1.87052   0.67919
C     1.70899   0.03593  -0.57847
C     3.10938  -0.37706  -0.51441
C     4.04242   0.52368  -1.28697
O     3.52825  -1.36337   0.09620
H    -3.73538  -2.23725  -1.35249
H    -2.59268  -3.60879  -1.43907
H    -3.22737  -3.06315   0.14064
H    -0.91246  -2.05913  -1.27563
H    -2.55438   1.40179   0.76533
H    -1.48886   3.64202   2.01452
H    -2.98693   3.71056   1.04468
H    -1.41296   4.11057   0.30112
H     1.62563  -1.74294   1.45292
H    -0.07885  -2.17381   1.14240
H     1.20808  -2.62354  -0.03765
H     1.47992   0.93002  -1.14856
H     3.98150   1.55391  -0.89888
H     3.74391   0.56225  -2.34752
H     5.07233   0.15387  -1.20356
