53
Generated by autodE on: 2022-10-23. E = -1093.773062 Ha. Imaginary frequency = -318.8 cm-1
C     3.64621   2.10001  -0.00578
C     2.41095   1.71654  -0.39543
C     1.92636   1.99235  -1.79788
C     1.48677   1.09810   0.56544
C     1.90082  -1.26467   0.66959
C     2.67654  -1.15313  -0.55565
C     4.16851  -1.07647  -0.32028
O     2.23735  -1.14746  -1.70892
N     0.58867  -1.59695   0.87428
C     0.31118  -2.02839   2.26220
C    -0.41037  -1.07709   0.06786
C    -1.84922  -1.09944   0.52849
O    -2.22073  -1.43911   1.65827
N    -2.74143  -0.66670  -0.38873
C    -4.13806  -0.50960  -0.04385
C    -0.32958  -1.34277  -1.42986
O    -0.65578  -0.49957  -2.27750
N    -0.10344  -2.63133  -1.74594
C     0.06836  -3.04349  -3.12492
C     0.08829   1.06048   0.33864
C    -0.80563   1.39162   1.45170
C    -1.98219   2.05200   1.37466
C    -2.56863   2.59998   0.10229
C    -2.79905   2.31257   2.60987
H     3.99887   1.92818   1.01533
H     4.33266   2.59545  -0.69772
H     2.75596   2.31556  -2.44270
H     1.16530   2.79132  -1.79546
H     1.45641   1.10809  -2.24824
H     1.81616   1.12998   1.60736
H     2.51733  -1.44849   1.54830
H     4.56390  -2.10762  -0.29373
H     4.64435  -0.54102  -1.15230
H     4.42365  -0.59495   0.63262
H    -0.00760  -1.18171   2.88391
H    -0.47233  -2.78862   2.27077
H     1.23440  -2.45507   2.66772
H    -2.39011  -0.26857  -1.25591
H    -4.66051  -0.04447  -0.88850
H    -4.60882  -1.48339   0.16690
H    -4.26487   0.12262   0.84898
H     0.28478  -3.22529  -1.02049
H    -0.79005  -2.71890  -3.72956
H     0.98287  -2.61025  -3.56239
H     0.13712  -4.13771  -3.16533
H    -0.25219   1.34108  -0.65699
H    -0.45828   1.08320   2.44448
H    -2.59870   3.70403   0.14501
H    -2.01174   2.31135  -0.79820
H    -3.61342   2.27059  -0.01957
H    -3.79742   1.84746   2.51817
H    -2.31750   1.91597   3.51605
H    -2.97671   3.39380   2.75263
