39
Generated by autodE on: 2022-06-20. E = -1138.717089 Ha
C     3.92829  -2.53487  -1.28103
N     2.85115  -1.56361  -1.34200
C     2.14849  -1.24669  -0.24893
O     2.33729  -1.69410   0.88063
N     1.09105  -0.33170  -0.44706
N     0.78219   0.15286  -1.66036
C    -0.19490   0.99005  -1.54693
C    -0.74979   1.69721  -2.64461
N    -1.22816   2.30107  -3.51561
C    -0.73452   1.09675  -0.12605
O    -0.95579   2.42277   0.21546
C    -1.54848   2.65428   1.49596
C    -2.04864   0.26313  -0.15576
O    -3.03643   0.79604  -0.63110
C    -2.05036  -1.14707   0.29367
C    -3.21301  -1.95722  -0.19162
C    -1.10676  -1.57538   1.17910
C    -1.03794  -2.92548   1.81387
C    -0.10674  -0.59966   1.69672
O     0.23871  -0.57347   2.85793
C     0.44005   0.39377   0.66735
O     1.29410   1.25988   1.31918
C     2.07189   2.16105   0.52769
H     3.56737  -3.50451  -0.90504
H     4.32849  -2.67413  -2.29206
H     4.74082  -2.19057  -0.62256
H     2.61089  -1.12289  -2.22416
H    -1.63249   3.74324   1.60168
H    -2.55322   2.20822   1.56089
H    -0.91410   2.26011   2.30428
H    -4.14797  -1.57958   0.25396
H    -3.11486  -3.01995   0.05485
H    -3.31837  -1.85058  -1.28249
H    -0.01866  -3.32961   1.69995
H    -1.75837  -3.63395   1.39189
H    -1.21950  -2.83258   2.89715
H     2.69998   2.71735   1.23469
H     2.72494   1.61627  -0.17244
H     1.43515   2.86500  -0.02644
