13
Generated by autodE on: 2022-06-20. E = -449.172395 Ha
C    -3.28502   0.71310   0.71964
N    -2.41826  -0.36886   1.15476
C    -1.13429  -0.54431   0.80065
O    -0.41546  -1.46757   1.17623
N    -0.67852   0.48142  -0.08177
N     0.49573   0.38620  -0.45129
C     1.60425   0.34923  -0.83679
C     2.88125   0.33002  -1.29944
N     3.98092   0.31314  -1.69761
H    -4.26706   0.57244   1.18785
H    -3.41820   0.71435  -0.37264
H    -2.89323   1.69547   1.02304
H    -2.79082  -1.07476   1.78193
