26
Generated by autodE on: 2022-06-20. E = -689.460837 Ha
C     2.49959  -2.01815   0.51514
O     1.94190  -1.23812  -0.54779
C     0.79644  -0.55533  -0.25382
C     0.75192   0.80082  -0.12407
O     1.74366   1.68829  -0.19657
C     3.11381   1.30617  -0.35605
C    -0.56760   1.48600   0.11313
O    -0.59064   2.70567   0.20548
C    -1.80268   0.67134   0.24313
C    -3.08694   1.39501   0.50607
C    -1.74528  -0.67813   0.12201
C    -2.96419  -1.53698   0.24298
C    -0.44395  -1.35527  -0.16141
O    -0.39283  -2.57240  -0.33074
H     3.40889  -2.48635   0.11549
H     1.80173  -2.80069   0.84739
H     2.76583  -1.37512   1.37050
H     3.67868   2.24692  -0.34483
H     3.44417   0.67014   0.47758
H     3.27181   0.78806  -1.31062
H    -3.81753   1.19660  -0.29546
H    -3.54663   1.04430   1.44472
H    -2.92528   2.47716   0.57499
H    -3.44127  -1.39813   1.22727
H    -3.71641  -1.25323  -0.51181
H    -2.71787  -2.59726   0.11416
