19
Generated by autodE on: 2022-06-20. E = -680.983424 Ha
C    -3.60580  -0.90981   0.21643
O    -2.30160  -0.32000   0.13128
C    -1.25971  -1.16502   0.10303
O    -1.36848  -2.37523   0.14769
C     0.01452  -0.43520   0.01278
N    -0.01723   0.87790  -0.01851
C    -0.05104   2.05048  -0.04679
C    -0.09479   3.40628  -0.08620
N    -0.13277   4.57563  -0.12014
C     1.32107  -1.10804  -0.04675
O     1.48531  -2.31269  -0.03969
O     2.32359  -0.21862  -0.11156
C     3.65259  -0.75380  -0.17317
H    -4.31319  -0.07268   0.23187
H    -3.79660  -1.55150  -0.65606
H    -3.70144  -1.50499   1.13611
H     4.32303   0.11201  -0.22008
H     3.86915  -1.35295   0.72321
H     3.77608  -1.37898  -1.06937
