55
Generated by autodE on: 2022-06-05. E = -1245.844708 Ha
C     1.03907   4.02825   0.78878
C    -0.12635   3.33484   1.41654
O    -1.05949   3.92044   1.92684
C    -0.17954   1.77392   1.42178
C    -0.69791   1.38651   2.76315
N    -0.99247   1.02838   3.82676
N     1.06004   1.08886   1.12701
C     2.07224   1.11893   2.17782
C     0.71205  -0.26966   0.70165
C     1.83316  -1.02062   0.02199
C     1.84384  -2.42192   0.09961
C     2.81801  -3.16719  -0.56895
C     3.80770  -2.51879  -1.31414
C     3.81718  -1.12206  -1.37980
C     2.83556  -0.37849  -0.71892
C    -0.60205  -0.15035  -0.16508
C    -1.43505  -1.39817   0.11245
C    -2.10256  -1.59468   1.33319
C    -2.77468  -2.78760   1.60931
C    -2.77934  -3.82729   0.67580
C    -2.09615  -3.66018  -0.53072
C    -1.43195  -2.46188  -0.80603
C    -0.34376   0.10305  -1.68017
C    -1.69244   0.23945  -2.42922
C    -2.19561   1.64655  -2.00341
C    -1.09469   2.12711  -1.03872
C     0.15463   1.55369  -1.71903
C    -1.17894   1.28242   0.28664
C    -2.54700   1.31531   0.78800
N    -3.64473   1.38516   1.15789
H     1.36878   3.53815  -0.13512
H     0.77878   5.07926   0.60979
H     1.88604   3.98765   1.49434
H     2.24156   2.14579   2.52573
H     3.02079   0.73590   1.77983
H     1.78846   0.49765   3.04981
H     0.43228  -0.85817   1.59512
H     1.08064  -2.93125   0.69145
H     2.80810  -4.25764  -0.50056
H     4.57410  -3.09902  -1.83352
H     4.59417  -0.60575  -1.94870
H     2.85587   0.71007  -0.77302
H    -2.08917  -0.82335   2.10221
H    -3.28945  -2.90418   2.56589
H    -3.30256  -4.76187   0.89117
H    -2.07337  -4.46776  -1.26630
H    -0.89360  -2.36989  -1.74815
H     0.33382  -0.63869  -2.11549
H    -1.51434   0.18975  -3.51300
H    -2.40814  -0.55134  -2.17722
H    -2.23718   2.33664  -2.85789
H    -3.19470   1.63074  -1.54854
H    -1.12399   3.20657  -0.85141
H     1.08209   1.72649  -1.17092
H     0.26262   1.93028  -2.74652
