27
Generated by autodE on: 2022-06-05. E = -649.495568 Ha
C     4.09968   1.15505  -0.12346
C     2.59809   1.03290   0.06244
O     1.94903   2.03257   0.43404
C     2.01812  -0.25337  -0.20798
C     2.86552  -1.29768  -0.62968
N     3.61072  -2.12966  -0.98104
N     0.63031  -0.54101  -0.12540
C     0.24989  -1.93681  -0.41883
C    -0.26522   0.35603   0.22167
C    -1.71399   0.22992   0.23502
C    -2.39403   1.02975   1.18154
C    -3.78408   1.01234   1.26332
C    -4.52711   0.22336   0.37821
C    -3.86961  -0.54009  -0.59237
C    -2.47757  -0.54264  -0.66815
H     4.64269   0.44450   0.51907
H     4.40019   2.17852   0.13570
H     4.39218   0.94425  -1.16411
H     0.22057  -2.10300  -1.50359
H     0.99564  -2.60239   0.02891
H    -0.72455  -2.15300   0.02430
H     0.16178   1.30898   0.53518
H    -1.81326   1.65692   1.86170
H    -4.29137   1.62286   2.01346
H    -5.61797   0.21514   0.43439
H    -4.44678  -1.13413  -1.30433
H    -1.99204  -1.11566  -1.45676
