28
Generated by autodE on: 2022-06-05. E = -596.319132 Ha
N    -0.90437  -3.28026  -0.36527
C    -1.03411  -2.15496  -0.08267
C    -1.25387  -0.80344   0.26680
C    -0.34587   0.21842   0.33333
C     1.10167   0.19592   0.12998
C     1.85924  -0.98232   0.30197
C     3.23655  -0.98031   0.08891
C     3.88960   0.19442  -0.30237
C     3.15366   1.37141  -0.46884
C     1.77595   1.37613  -0.24749
C    -1.16835   1.48613   0.51257
C    -1.87717   1.73203  -0.86097
C    -2.90619   0.56901  -0.93779
C    -2.65299  -0.20128   0.39516
C    -2.34653   0.96146   1.35667
H     1.37134  -1.90221   0.62540
H     3.80642  -1.90088   0.23465
H     4.96901   0.19262  -0.47058
H     3.65561   2.29350  -0.77085
H     1.21478   2.30147  -0.38415
H    -0.61669   2.34934   0.90060
H    -1.15984   1.73139  -1.69336
H    -2.37648   2.71173  -0.84516
H    -3.93943   0.94584  -0.96279
H    -2.76067  -0.07975  -1.81284
H    -3.44012  -0.91071   0.67656
H    -2.04365   0.62512   2.35892
H    -3.17163   1.68500   1.43719
