55
Generated by autodE on: 2022-06-05. E = -1245.798271 Ha. Imaginary frequency = -444.2 cm-1
C    -0.94903   4.09357   2.67069
C     0.12258   3.36661   1.90142
O     0.85698   3.94924   1.10826
C     0.20370   1.90410   2.09382
C    -0.53682   1.33364   3.17339
N    -1.13967   0.86374   4.05354
N     1.26843   1.15819   1.60422
C     2.59076   1.75897   1.39718
C     0.95295  -0.13799   1.24840
C     1.92611  -1.08893   0.68395
C     1.84866  -2.42757   1.11527
C     2.66609  -3.40882   0.55456
C     3.56986  -3.07133  -0.45720
C     3.64468  -1.74879  -0.90763
C     2.82857  -0.76510  -0.34865
C    -0.61665  -0.00590  -0.03298
C    -1.19680  -1.35842   0.22390
C    -1.87975  -1.66798   1.41572
C    -2.33801  -2.96217   1.66902
C    -2.11967  -3.98518   0.74114
C    -1.42874  -3.69796  -0.43838
C    -0.96840  -2.40354  -0.69050
C    -0.09914   0.32025  -1.44826
C    -1.34673   0.41741  -2.37673
C    -2.03016   1.73416  -1.91242
C    -1.08714   2.22856  -0.77512
C     0.27976   1.80227  -1.33264
C    -1.27575   1.22715   0.36586
C    -2.50013   1.29482   1.07701
N    -3.51216   1.42234   1.64320
H    -1.93493   3.62863   2.51323
H    -0.73796   4.04627   3.75117
H    -0.97657   5.14106   2.34578
H     3.34785   0.98762   1.58269
H     2.73470   2.16762   0.38868
H     2.72865   2.56430   2.12484
H     0.29509  -0.60871   1.98132
H     1.13196  -2.69422   1.89469
H     2.59274  -4.44072   0.90497
H     4.20951  -3.83803  -0.90055
H     4.33818  -1.48173  -1.70814
H     2.88031   0.25051  -0.73760
H    -2.03640  -0.90249   2.17531
H    -2.86336  -3.17171   2.60392
H    -2.47643  -4.99823   0.94091
H    -1.23632  -4.48782  -1.16840
H    -0.41377  -2.21288  -1.60846
H     0.68036  -0.35716  -1.81139
H    -1.01874   0.48509  -3.42437
H    -2.00463  -0.45653  -2.28840
H    -2.05526   2.48671  -2.71444
H    -3.06059   1.58663  -1.55859
H    -1.22491   3.27875  -0.49504
H     1.11689   2.00832  -0.66532
H     0.48477   2.26204  -2.31010
