20
Generated by autodE on: 2022-06-22. E = -457.715304 Ha
C    -3.05853   0.84142   0.20807
N    -1.82718   0.08727   0.04104
C    -1.88848  -1.29934  -0.14639
C    -0.79162  -2.06199  -0.27754
C     0.60993  -1.50463  -0.23675
C     0.57715  -0.00096  -0.01726
C     1.81665   0.78672   0.07294
N     2.97590   0.09201  -0.04958
O     1.83567   2.02168   0.25232
C    -0.60023   0.67531   0.10381
H    -3.60421   0.51859   1.11013
H    -2.82100   1.90798   0.30670
H    -3.72146   0.70903  -0.66195
H    -2.89778  -1.71386  -0.17784
H    -0.92045  -3.13709  -0.42225
H     1.14732  -1.75688  -1.17423
H     1.19529  -2.00851   0.55954
H     3.00297  -0.90834  -0.20039
H     3.85293   0.59814   0.00588
H    -0.59315   1.75506   0.26091
