25
Generated by autodE on: 2022-07-27. E = -797.523816 Ha
C     0.18921   3.46264  -1.12805
O     0.36370   2.20349  -0.44455
C    -0.12528   1.12722  -1.03658
O    -0.64240   1.08368  -2.12839
C     0.08131  -0.09422  -0.17189
O    -0.37296  -0.13735   1.03109
C    -1.17440   0.68767   1.76385
C    -1.87240   1.76900   1.21183
N    -2.48607   2.66177   0.76868
C    -1.34715   0.28553   3.09716
N    -1.49606  -0.02931   4.21391
C     0.79381  -1.25073  -0.65102
C     1.41893  -1.23878  -1.92091
C     2.11309  -2.36017  -2.36386
C     2.19672  -3.50152  -1.55886
C     1.58145  -3.52215  -0.29868
C     0.88473  -2.41119   0.15638
H     0.70167   3.43293  -2.09912
H    -0.88152   3.66093  -1.27024
H     0.63854   4.21813  -0.47531
H     1.36142  -0.35687  -2.55849
H     2.59310  -2.34444  -3.34411
H     2.74087  -4.37967  -1.91325
H     1.64483  -4.41495   0.32645
H     0.39966  -2.42688   1.13274
