25
Generated by autodE on: 2022-06-22. E = -797.523819 Ha
C     3.01401  -1.77179  -1.02829
O     1.70492  -1.17004  -0.94525
C     1.29650  -0.78627   0.25223
O     1.88365  -0.95190   1.29578
C    -0.05866  -0.12608   0.16352
O    -0.24609   0.89699  -0.59419
C     0.58068   1.68233  -1.34249
C     1.97778   1.60746  -1.28178
N     3.14678   1.58185  -1.22941
C    -0.08363   2.66861  -2.08788
N    -0.62007   3.49176  -2.72276
C    -1.19015  -0.61308   0.90977
C    -2.41977   0.08910   0.87104
C    -3.51556  -0.38832   1.57681
C    -3.41037  -1.56619   2.33087
C    -2.20031  -2.26735   2.37529
C    -1.09347  -1.80123   1.67292
H     3.77105  -1.06290  -0.66738
H     3.16960  -1.99648  -2.08850
H     3.03886  -2.69109  -0.42761
H    -2.49701   1.00773   0.28882
H    -4.45962   0.15913   1.54638
H    -4.27510  -1.93597   2.88616
H    -2.11976  -3.18490   2.96112
H    -0.15709  -2.35722   1.71567
