30
Generated by autodE on: 2022-06-06. E = -1416.000018 Ha
N    -0.69189   0.15026  -4.07425
C    -1.02070   0.42249  -2.99718
C    -1.45832   0.72757  -1.62275
C    -2.09827   2.13649  -1.61599
F    -2.47376   2.47672  -0.37990
F    -1.23236   3.05940  -2.05314
F    -3.17545   2.17400  -2.40754
C    -0.30755   0.64455  -0.72051
C     0.45872   0.12269   0.05298
C     1.01635  -0.85535   0.98025
C     0.94544  -0.30357   2.42696
F     1.49278  -1.15467   3.30378
F     1.58192   0.86915   2.54377
F    -0.32600  -0.10395   2.79739
C     2.48497  -1.16969   0.59840
F     2.97815  -2.18176   1.32107
F     2.55950  -1.51919  -0.69296
F     3.28746  -0.11156   0.77300
C     0.15396  -2.16003   0.83308
C    -1.36223  -1.98388   0.61644
C    -1.87726  -1.73577  -0.82937
C    -2.48743  -0.35626  -1.13944
H     0.33258  -2.76655   1.73224
H     0.56794  -2.72255  -0.01538
H    -1.80447  -2.93058   0.96056
H    -1.75930  -1.21422   1.29294
H    -2.68301  -2.45986  -1.01842
H    -1.09277  -1.97564  -1.56638
H    -3.25213  -0.44189  -1.92433
H    -2.97484   0.05020  -0.24139
