45
Generated by autodE on: 2022-06-06. E = -1870.212499 Ha. Imaginary frequency = -81.3 cm-1
C     0.14379  -4.87933  -1.18377
N     0.84877  -4.14437  -0.15323
C     1.14135  -2.83423  -0.30640
O     1.02014  -2.23059  -1.38140
C     1.57103  -2.16828   0.93638
O     2.26156  -1.07649   0.99538
C     2.71835  -0.22230   0.09958
C     3.12639  -0.59053  -1.19776
N     3.58660  -0.81609  -2.24758
C     0.06921   0.64532   0.06754
C    -0.51534  -0.22679   0.69366
C    -1.80918  -0.73869   1.19790
C    -2.34760   0.29711   2.10244
N    -2.77261   1.13029   2.78646
C    -1.71912  -2.04623   2.02097
F    -2.89903  -2.32260   2.59246
F    -0.80888  -1.94876   2.99914
F    -1.38980  -3.08652   1.24900
C    -2.76835  -0.95282  -0.01976
C    -3.23796   0.30099  -0.76642
C    -2.24569   1.08024  -1.65341
C    -1.45313   2.21947  -0.97527
C     0.05200   1.92593  -0.65785
C     0.87824   1.90107  -1.97269
F     0.50976   2.88703  -2.80039
F     0.70470   0.74275  -2.62296
F     2.19484   2.05001  -1.75723
C     0.58484   3.04636   0.27406
F    -0.19210   3.16656   1.35835
F     0.59686   4.23057  -0.35531
F     1.82865   2.80666   0.71097
H    -0.92303  -4.59683  -1.22450
H     0.21694  -5.95406  -0.97560
H     0.59099  -4.67335  -2.16556
H     0.84106  -4.52273   0.78965
H     1.38605  -2.60315   1.91862
H     3.16252   0.66203   0.55429
H    -2.24349  -1.63474  -0.70461
H    -3.65682  -1.47652   0.36270
H    -4.04345  -0.05937  -1.42497
H    -3.72481   0.99417  -0.05986
H    -2.84213   1.55192  -2.44787
H    -1.57570   0.37616  -2.16749
H    -1.92764   2.46974  -0.01788
H    -1.48428   3.12820  -1.59033
