55
Generated by autodE on: 2022-06-29. E = -1377.377078 Ha. Imaginary frequency = -202.3 cm-1
C    -1.70046  -2.13762  -3.25419
N    -1.22845  -1.83986  -1.91505
C    -2.05607  -1.28294  -1.01174
O    -3.27721  -1.15126  -1.21887
C    -1.43031  -0.77375   0.24739
C    -2.26460  -0.77898   1.49459
O    -1.81242  -1.21025   2.56273
N    -3.52907  -0.32073   1.37217
C    -4.46870  -0.45924   2.46784
O    -0.15093  -1.22774   0.37626
C     0.85726  -0.76044   1.07299
C     0.68417   0.00351   2.33589
C     2.13680  -1.36764   0.72741
C     2.19752  -2.45768  -0.17092
C     3.42030  -3.02167  -0.51455
C     4.60884  -2.51190   0.02457
C     4.56290  -1.44001   0.92010
C     3.34011  -0.87407   1.27677
C     0.58732   1.31323  -0.53927
C     1.52830   2.06038   0.30681
C     1.02085   3.05347   1.32475
O     2.74650   1.94264   0.12559
C     1.17930   0.80781  -1.84136
C     1.75395   1.84744  -2.76719
O     1.21301  -0.37901  -2.13290
C    -0.80252   1.36130  -0.36896
C    -1.71239   1.46077  -1.54357
C    -3.07687   2.03593  -1.29313
O    -1.33784   1.16355  -2.67291
H    -2.55769  -2.82506  -3.22056
H    -2.01287  -1.22478  -3.78767
H    -0.88788  -2.61579  -3.81534
H    -0.23504  -1.62772  -1.80950
H    -3.87902  -0.27778   0.41376
H    -4.06586   0.00482   3.37955
H    -5.40455   0.04676   2.19912
H    -4.68935  -1.51652   2.69600
H    -0.20211   0.63936   2.33235
H     0.56366  -0.72307   3.15599
H     1.57405   0.60311   2.55188
H     1.27625  -2.86850  -0.57960
H     3.45031  -3.86833  -1.20366
H     5.56853  -2.95630  -0.24891
H     5.48546  -1.03961   1.34533
H     3.32814  -0.03454   1.96899
H     1.81597   3.26102   2.05296
H     0.78471   3.98829   0.78764
H     0.10811   2.74304   1.84612
H     2.67559   2.25522  -2.32613
H     1.04652   2.68116  -2.89035
H     1.98188   1.39135  -3.73984
H    -1.18805   1.83333   0.53482
H    -3.75397   1.78106  -2.11828
H    -3.48716   1.70739  -0.33048
H    -2.97178   3.13432  -1.24331
