18
Generated by autodE on: 2022-06-22. E = -235.968070 Ha
C     1.48545   0.37150  -1.24149
C     0.67501  -0.03965  -0.03571
C     1.55421  -0.54970   1.08076
C    -0.67502   0.03988   0.03581
C    -1.55414   0.54984  -1.08072
C    -1.48552  -0.37175   1.24141
H     2.09598  -0.47660  -1.60005
H     2.20277   1.16657  -0.96899
H     0.88806   0.73435  -2.08639
H     2.15420  -1.41008   0.73373
H     1.00888  -0.86268   1.97907
H     2.28230   0.22543   1.38055
H    -2.15690   1.40785  -0.73266
H    -2.27979  -0.22658  -1.38317
H    -1.00848   0.86623  -1.97765
H    -2.09642   0.47601   1.60010
H    -0.88814  -0.73476   2.08624
H    -2.20247  -1.16702   0.96851
