33
Generated by autodE on: 2022-06-22. E = -840.334351 Ha
C    -3.24231   3.35660  -0.39816
O    -2.71412   2.03180  -0.25767
C    -1.38353   1.90935  -0.29141
O    -0.62823   2.87142  -0.41379
C    -0.90811   0.53230  -0.13532
N     0.42941   0.48124  -0.05709
N     1.17945  -0.56110   0.04343
C     2.54979  -0.33634   0.14793
C     3.36523  -1.48376   0.03881
C     4.75142  -1.38605   0.12791
C     5.36053  -0.14243   0.33488
C     4.56075   0.99991   0.45686
C     3.17142   0.91423   0.37040
C    -1.75974  -0.66070  -0.04657
C    -2.88254  -0.80313  -0.88715
C    -3.69738  -1.93208  -0.80179
C    -3.41205  -2.94087   0.12379
C    -2.30022  -2.81157   0.96268
C    -1.47796  -1.68801   0.87702
H    -2.89765   3.99914   0.42514
H    -4.33266   3.24996  -0.36336
H    -2.93429   3.79689  -1.35758
H     0.84760   1.42662  -0.12279
H     2.87939  -2.44784  -0.12416
H     5.36235  -2.28730   0.03608
H     6.44734  -0.06418   0.40830
H     5.02393   1.97400   0.63227
H     2.58770   1.82884   0.49891
H    -3.10990  -0.02659  -1.61731
H    -4.55879  -2.02579  -1.46731
H    -4.05119  -3.82449   0.18917
H    -2.07049  -3.59258   1.69141
H    -0.61409  -1.60035   1.53477
