51
Generated by autodE on: 2022-06-22. E = -1076.276446 Ha. Imaginary frequency = -357.8 cm-1
C    -3.25735  -2.82244   2.16084
O    -2.79773  -1.67234   1.43773
C    -1.56669  -1.24150   1.71406
O    -0.85652  -1.78584   2.55040
C    -1.10594  -0.09509   0.89165
C    -2.05068   0.93920   0.38358
C    -1.70392   2.30611   0.46132
C    -2.57735   3.30331   0.02927
C    -3.82842   2.97216  -0.50107
C    -4.19248   1.62644  -0.57716
C    -3.32150   0.62516  -0.14098
N     0.14913   0.28973   1.29073
N     0.89013   0.94978   0.40176
C     2.19396   1.24281   0.80548
C     2.79724   0.77973   1.99633
C     4.12081   1.11098   2.29404
C     4.87538   1.90381   1.42384
C     4.28065   2.38174   0.24912
C     2.95785   2.06650  -0.05071
C     0.79114  -0.37688  -1.27350
C     2.16788  -0.98438  -1.15420
C     0.63664   0.64745  -2.36773
C    -0.33447  -1.20512  -0.95893
C    -1.52122  -1.19309  -1.89055
C    -0.05455  -2.57003  -0.37088
H    -4.26957  -3.02286   1.79135
H    -3.28029  -2.61555   3.24019
H    -2.60337  -3.68455   1.96670
H    -0.73481   2.59126   0.86359
H    -2.27494   4.35041   0.11029
H    -4.51031   3.75318  -0.84555
H    -5.16775   1.34380  -0.98123
H    -3.64077  -0.40945  -0.20630
H     0.59964  -0.41824   1.88209
H     2.23981   0.17356   2.71159
H     4.56519   0.74471   3.22304
H     5.91000   2.15817   1.66412
H     4.84974   3.01788  -0.43338
H     2.48767   2.45864  -0.95284
H     2.35244  -1.42807  -0.16539
H     2.95587  -0.24418  -1.34630
H     2.28456  -1.79380  -1.89881
H     1.51530   1.30412  -2.42427
H    -0.25388   1.27431  -2.22336
H     0.53802   0.14854  -3.34968
H    -1.25031  -1.71018  -2.83124
H    -1.85981  -0.18681  -2.16222
H    -2.37182  -1.73832  -1.45797
H    -0.98681  -3.08873  -0.10465
H     0.46895  -3.20385  -1.11034
H     0.58354  -2.53126   0.52286
