34
Generated by autodE on: 2022-10-20. E = -840.535454 Ha
C     4.27255  -0.25365  -0.31742
O     3.28283   0.69003   0.11823
C     2.11722   0.23306   0.52579
C     1.56899  -1.01148   0.65389
C     2.05841  -2.29352   0.35264
N     2.40770  -3.38511   0.12477
C     0.10908  -0.72153   1.05527
O     0.26312   0.46948   1.84394
C     1.00424   1.21399   0.86878
C     0.02769   1.22721  -0.33809
C    -1.14319   2.22974  -0.18042
C    -1.00501   3.47201  -1.04023
N    -2.37695   1.48464  -0.47123
C    -2.13913   0.12611   0.00135
C    -2.97009  -0.89918  -0.74173
C    -3.09790  -2.25093  -0.10135
O    -3.47564  -0.63280  -1.82123
C    -0.62110  -0.18100  -0.19774
H     5.15070   0.33414  -0.60829
H     4.53360  -0.93617   0.50481
H     3.89877  -0.82421  -1.18034
H    -0.40345  -1.51096   1.61553
H     1.32544   2.19054   1.24818
H     0.55450   1.36975  -1.29123
H    -1.18160   2.52965   0.88062
H    -0.96463   3.20024  -2.10861
H    -1.85438   4.15624  -0.88985
H    -0.07991   4.01428  -0.79151
H    -2.47900   1.42104  -1.48827
H    -2.36724   0.05288   1.07707
H    -2.11187  -2.62216   0.22014
H    -3.56737  -2.96344  -0.79198
H    -3.71316  -2.15512   0.80902
H    -0.44952  -0.82290  -1.07116
