37
Generated by autodE on: 2022-06-26. E = -1029.254588 Ha
C    -3.83661  -2.53708   0.90216
N    -3.28861  -1.21205   0.70887
C    -1.99542  -1.03431   0.36306
O    -1.19746  -1.99417   0.30619
C    -1.57102   0.32945   0.02771
N    -0.25272   0.57230  -0.28063
C     0.86357  -0.03874   0.06545
C     0.85752  -0.94747   1.25514
O     0.32018  -0.65371   2.30424
O     1.60275  -2.03091   1.06611
C     1.68982  -2.94589   2.16914
C     2.10911   0.30699  -0.61634
C     2.08901   0.80920  -1.93558
C     3.27259   1.18735  -2.56746
C     4.49726   1.06038  -1.90427
C     4.53088   0.55130  -0.60086
C     3.35266   0.17563   0.03975
C    -2.49184   1.40364  -0.26119
O    -3.71428   1.37022  -0.10820
O    -1.86835   2.51012  -0.73443
C    -2.69740   3.61500  -1.10699
H    -4.84922  -2.44659   1.31538
H    -3.21830  -3.11371   1.60596
H    -3.89314  -3.10981  -0.04011
H    -3.90568  -0.40898   0.59043
H    -0.13212   1.38066  -0.90074
H     0.68866  -3.32323   2.42177
H     2.33284  -3.76583   1.83028
H     2.13106  -2.45082   3.04585
H     1.14789   0.87392  -2.48606
H     3.23909   1.56694  -3.59095
H     5.42438   1.34878  -2.40455
H     5.48375   0.45039  -0.07677
H     3.39525  -0.20476   1.06100
H    -3.38658   3.33130  -1.91608
H    -2.01549   4.40086  -1.45269
H    -3.27768   3.97220  -0.24382
