37
Generated by autodE on: 2022-07-28. E = -1029.256072 Ha
C     3.42839  -3.67045   1.78297
N     2.68741  -2.91027   0.79972
C     1.82884  -1.93964   1.15712
O     1.59756  -1.65754   2.35527
C     1.14246  -1.18548   0.09363
N     0.28949  -0.25583   0.62377
C    -0.68595   0.49210   0.14733
C    -1.27160   0.16245  -1.19105
O    -1.55988  -0.96885  -1.52407
O    -1.50625   1.24522  -1.92271
C    -2.15691   1.03781  -3.18792
C    -1.28507   1.52078   0.99561
C    -0.55598   2.08756   2.06364
C    -1.14590   3.03105   2.90296
C    -2.46646   3.43903   2.68823
C    -3.19489   2.89428   1.62473
C    -2.61497   1.94623   0.78477
C     1.52479  -1.23747  -1.29623
O     2.20357  -2.13059  -1.80631
O     1.12425  -0.16307  -2.00235
C     1.40466  -0.15000  -3.40511
H     4.13619  -3.03760   2.34430
H     2.75252  -4.14367   2.51274
H     3.99545  -4.45668   1.26945
H     2.83219  -3.05353  -0.19831
H     0.45905  -0.20419   1.64409
H    -1.56055   0.36356  -3.81783
H    -3.15749   0.60981  -3.03246
H    -2.23281   2.02756  -3.65137
H     0.48939   1.81469   2.22192
H    -0.56389   3.46293   3.72007
H    -2.92395   4.18482   3.34204
H    -4.22703   3.20645   1.45105
H    -3.20495   1.52147  -0.02833
H     2.48842  -0.19008  -3.58602
H     0.91859  -1.00182  -3.90240
H     0.99380   0.79325  -3.78304
