63
Generated by autodE on: 2022-06-14. E = -2334.148224 Ha
C     8.07071  -8.22920   1.83519
N     6.73489  -8.47177   2.34551
C     5.70377  -8.65000   1.52795
O     5.80566  -8.54910   0.29270
C     4.27773  -8.83183   2.13119
C     4.20406  -9.38187   3.59894
C     2.88333  -9.83762   4.13788
O     5.18068  -9.32257   4.32709
N     3.70664  -7.48389   2.14866
C     2.50974  -7.36525   1.30962
C     1.34711  -6.95898   2.26933
O     0.95580  -7.78380   3.09933
N     0.90373  -5.70227   2.22727
C    -0.19216  -5.27333   3.07227
C     2.86347  -6.31559   0.18302
O     2.21937  -5.27561  -0.01565
N     3.94691  -6.61017  -0.53597
C     4.37926  -5.75897  -1.62552
C     2.33783  -8.80283   0.72722
C     3.36665  -9.58415   1.15234
C     3.71173 -11.00846   0.70530
F     2.56760 -11.81287   0.82241
C     4.67709 -11.81323   1.62438
F     4.85311 -13.03774   1.11723
F     5.88846 -11.25094   1.74221
F     4.18591 -11.97098   2.86216
C     4.30271 -11.08798  -0.72399
C     3.87017 -10.06052  -1.76435
C     2.44555 -10.19855  -2.27952
C     1.34335 -10.33608  -1.23049
C     1.11304  -9.22208  -0.14657
C     0.49002  -8.02699  -0.92659
F     0.09101  -7.00930  -0.15460
F    -0.59643  -8.41988  -1.61212
F     1.36282  -7.52731  -1.81557
C    -0.02543  -9.79294   0.79705
F    -0.79680  -8.83591   1.33144
F    -0.86230 -10.60179   0.12610
F     0.48302 -10.51179   1.80066
H     8.07333  -7.37366   1.14391
H     8.45807  -9.10732   1.29278
H     8.73749  -8.01025   2.67795
H     6.57268  -8.67524   3.33245
H     2.28775  -8.94578   4.38164
H     3.06337 -10.42206   5.04895
H     2.29919 -10.41222   3.41234
H     3.60352  -7.08295   3.07689
H     1.19578  -5.15610   1.41003
H    -1.11972  -5.82116   2.83430
H     0.03898  -5.44713   4.13388
H    -0.36377  -4.20099   2.91713
H     4.54225  -7.40657  -0.28027
H     5.24023  -6.23069  -2.11541
H     4.67586  -4.75867  -1.26954
H     3.57239  -5.63106  -2.36403
H     5.39113 -10.99903  -0.60986
H     4.09934 -12.11131  -1.07526
H     4.55688 -10.17015  -2.61863
H     4.04233  -9.05164  -1.37841
H     2.23070  -9.36867  -2.96703
H     2.37370 -11.11923  -2.88278
H     1.46562 -11.28453  -0.70929
H     0.39483 -10.42789  -1.76852
