34
Generated by autodE on: 2022-07-27. E = -911.082542 Ha
C    -4.79313   1.11221   0.08800
N    -3.39701   1.16085  -0.29471
C    -2.49295   0.35691   0.26298
O    -2.77581  -0.50433   1.11926
C    -1.04769   0.46328  -0.17348
N    -0.32927  -0.36643   0.57333
C     0.93716  -0.83252   0.74394
C     1.23103  -1.34430   2.08455
C     0.12859  -1.37319   3.12048
O     2.36779  -1.72400   2.40264
C     1.84453  -1.05677  -0.39887
O     1.41668  -1.03531  -1.57864
N     3.12321  -1.34953  -0.12447
C     4.04025  -1.76619  -1.16516
C    -0.59204   1.56242  -1.07757
O    -1.32611   2.56297  -1.21526
N     0.60726   1.47861  -1.65764
C     1.08485   2.54772  -2.51110
H    -4.94742   1.48532   1.11438
H    -5.16994   0.08002   0.04280
H    -5.37273   1.73487  -0.60427
H    -3.01903   1.93111  -0.85108
H    -1.01870  -0.75987   1.25783
H    -0.22538  -0.35749   3.35731
H     0.52651  -1.83526   4.03203
H    -0.73969  -1.95958   2.77720
H     3.34172  -1.49886   0.86371
H     4.08883  -1.01412  -1.96658
H     5.03983  -1.88274  -0.72871
H     3.73907  -2.72462  -1.62065
H     1.02943   0.53894  -1.73474
H     2.10010   2.30204  -2.84657
H     1.11016   3.50161  -1.96369
H     0.43950   2.68492  -3.39515
