34
Generated by autodE on: 2022-06-14. E = -911.087538 Ha
C    -3.80312   2.41907  -1.80596
N    -2.89714   1.65248  -0.97445
C    -1.65979   1.30143  -1.35859
O    -1.16598   1.59315  -2.46151
C    -0.82721   0.52725  -0.38782
N     0.39032   0.32597  -0.84447
C     1.48254  -0.31907  -0.37686
C     2.73415  -0.06262  -1.08272
C     2.70769   0.82150  -2.31270
O     3.82575  -0.53120  -0.70128
C     1.29224  -1.35338   0.67249
O     0.15482  -1.81827   0.91010
N     2.39179  -1.79429   1.31575
C     2.32451  -2.92229   2.22045
C    -1.16469   0.31647   1.05530
O    -0.42594   0.77502   1.92520
N    -2.35048  -0.26897   1.31579
C    -2.73710  -0.58728   2.67934
H    -3.35406   2.55397  -2.79631
H    -4.76319   1.89242  -1.91467
H    -3.99833   3.40988  -1.36576
H    -3.21351   1.37056  -0.05106
H     0.47867   0.78274  -1.77076
H     2.00383   0.44428  -3.07287
H     3.71599   0.84126  -2.74418
H     2.41077   1.85170  -2.05894
H     3.28516  -1.48806   0.92492
H     2.07563  -3.86185   1.69693
H     1.55711  -2.75655   2.99117
H     3.29778  -3.04316   2.71248
H    -2.78742  -0.79127   0.56040
H    -2.66540   0.30740   3.31289
H    -3.77398  -0.94507   2.68211
H    -2.08459  -1.36747   3.10591
