29
Generated by autodE on: 2022-06-14. E = -1423.008398 Ha
F    -2.80261   2.20601  -0.02798
C    -3.14052   1.21578   0.80851
F    -4.44824   0.97421   0.66214
F    -2.94068   1.64586   2.06063
C    -2.30924  -0.04654   0.52299
F    -2.69657  -0.96517   1.49807
C    -0.87046   0.18874   0.62958
C     0.29806   0.02600   0.37010
C     1.49201  -0.42940  -0.33357
C     2.14405   0.76667  -1.07334
F     2.48921   1.74821  -0.23060
F     3.24467   0.39041  -1.73589
F     1.29396   1.29094  -1.96624
C     2.49653  -1.05211   0.66801
F     2.97615  -0.14855   1.53199
F     3.53737  -1.60924   0.03856
F     1.89409  -2.01000   1.38570
C     1.03039  -1.53293  -1.35213
C    -0.32556  -1.32031  -2.05449
C    -1.61720  -1.75075  -1.30337
C    -2.58893  -0.63606  -0.86926
H     1.82722  -1.63059  -2.10299
H     0.99629  -2.48275  -0.80055
H    -0.26280  -1.92466  -2.97169
H    -0.41853  -0.28007  -2.39754
H    -2.19064  -2.40144  -1.97952
H    -1.36923  -2.37942  -0.43271
H    -3.61960  -1.01943  -0.83158
H    -2.57105   0.18803  -1.59900
