35
Generated by autodE on: 2022-06-17. E = -820.632812 Ha
C    -3.04191   2.17956   2.04357
O    -2.93279   1.08249   1.11596
C    -1.75738   0.89556   0.53929
O    -0.77456   1.57564   0.72649
C    -1.75129  -0.35024  -0.35597
C    -3.09186  -0.71334  -0.80267
N    -4.13532  -1.04531  -1.18624
C    -0.71907  -0.30785  -1.48458
C     0.19752  -1.53085  -1.21338
C     0.01666  -2.63755  -2.25178
C     1.66196  -1.19949  -1.01648
C     2.09764  -0.15715  -0.28080
C     3.49391   0.15150  -0.04337
C     3.96833   1.18977   0.68905
C     5.44623   1.39190   0.86674
C     3.10503   2.20787   1.37955
N    -0.29907  -2.07583   0.09192
N    -1.27452  -1.50829   0.56883
H    -2.82525   3.12725   1.53142
H    -2.34069   2.03688   2.87750
H    -4.07642   2.16387   2.40286
H    -1.19780  -0.38620  -2.46674
H    -0.16570   0.63408  -1.44211
H     0.57891  -3.53745  -1.96280
H    -1.04647  -2.89853  -2.36180
H     0.39605  -2.28624  -3.22285
H     2.38156  -1.89388  -1.46293
H     1.35243   0.50167   0.17305
H     4.22215  -0.52823  -0.50102
H     5.71465   1.37779   1.93821
H     6.03702   0.62243   0.34874
H     5.75231   2.38355   0.48843
H     2.02898   2.06363   1.22045
H     3.37073   3.22339   1.03743
H     3.29730   2.19244   2.46687
