69
Generated by autodE on: 2022-12-31. E = -1703.001243 Ha
C    -9.24214  12.07508  -2.34688
N   -10.48676  12.31840  -1.64260
C   -11.27518  13.35508  -1.94317
O   -10.99456  14.15564  -2.84167
C   -12.50187  13.53383  -0.99718
O   -12.87978  12.26816  -0.49060
C   -13.31997  11.29034  -1.43610
C   -11.92441  14.37777   0.18547
C   -12.63003  14.27664   1.53651
C   -14.11501  14.64083   1.57517
C   -15.04112  13.50536   1.09942
C   -15.82697  13.69966  -0.24059
C   -16.33296  12.32277  -0.72913
C   -16.44588  12.01751  -2.09368
C   -16.88719  10.76369  -2.52366
C   -17.23041   9.77841  -1.59554
C   -17.13049  10.06752  -0.23218
C   -16.68697  11.32264   0.19274
C   -17.00798  14.63629   0.11543
C   -18.30338  14.14638   0.33388
C   -19.34903  15.00482   0.68047
C   -19.12404  16.37762   0.82405
C   -17.83780  16.87804   0.61970
C   -16.79328  16.01558   0.27127
C   -14.99207  14.34718  -1.34976
C   -13.66396  14.28393  -1.65684
C   -13.45492  15.21033  -2.86342
C   -12.53833  16.32140  -2.58744
N   -11.89289  17.25090  -2.33454
C   -13.08902  14.42936  -4.14844
O   -13.45857  13.29484  -4.34654
O   -12.45947  15.19483  -5.02215
C   -12.07246  14.57591  -6.26229
N   -14.76486  15.80161  -3.17636
C   -15.60235  15.26774  -2.35814
C   -17.06544  15.58808  -2.61510
C   -17.40534  17.03149  -2.84617
O   -17.87561  14.68990  -2.74491
H    -8.80329  11.14125  -1.97592
H    -8.52454  12.89590  -2.18731
H    -9.41864  11.98185  -3.42930
H   -10.75505  11.72242  -0.86618
H   -13.80297  11.75644  -2.30381
H   -12.47779  10.67472  -1.78851
H   -14.04517  10.64603  -0.92368
H   -11.89358  15.42538  -0.14642
H   -10.87980  14.06804   0.33418
H   -12.07867  14.95424   2.20920
H   -12.49262  13.26329   1.94702
H   -14.37547  14.88386   2.61662
H   -14.26956  15.57142   1.01155
H   -15.80225  13.32600   1.86869
H   -14.45613  12.58509   1.01939
H   -16.16886  12.75038  -2.84810
H   -16.95194  10.55683  -3.59463
H   -17.57081   8.79565  -1.93018
H   -17.39636   9.31196   0.51108
H   -16.62546  11.51483   1.26307
H   -18.51323  13.08503   0.20942
H   -20.35109  14.59564   0.83074
H   -19.94459  17.04846   1.08845
H   -17.63939  17.94761   0.72014
H   -15.80506  16.44211   0.09797
H   -12.95809  14.20614  -6.79739
H   -11.57175  15.35826  -6.84301
H   -11.38169  13.74474  -6.06173
H   -17.09513  17.29320  -3.87195
H   -16.86517  17.69406  -2.15788
H   -18.49019  17.17103  -2.75434
