51
Generated by autodE on: 2022-12-31. E = -1097.159773 Ha
C   -12.74966  -3.64019  -6.75713
N   -12.69829  -2.72473  -5.63583
C   -11.57001  -2.36140  -5.01326
O   -10.43669  -2.74318  -5.32506
C   -11.76613  -1.32201  -3.88192
O   -13.09692  -1.33232  -3.38288
C   -13.40829  -2.39000  -2.48545
C   -10.75646  -1.49155  -2.83031
C    -9.86835  -1.15580  -2.07885
C    -8.88812  -0.31705  -1.38612
C    -7.50779  -0.40299  -2.07119
C    -6.41047   0.23367  -1.46972
C    -5.15368   0.21694  -2.07628
C    -4.96982  -0.44218  -3.29733
C    -6.05520  -1.07921  -3.90179
C    -7.31633  -1.05922  -3.29407
C    -8.74962  -0.74268   0.08411
C    -8.57242  -2.10495   0.37456
C    -8.40540  -2.54224   1.68878
C    -8.41154  -1.61909   2.74112
C    -8.58553  -0.26227   2.46201
C    -8.75458   0.17442   1.14217
C    -9.46288   1.13160  -1.55274
C    -9.87079   1.53813  -2.98356
C   -11.31763   1.22586  -3.46201
C   -11.51770   0.08948  -4.48355
H   -11.72604  -3.91869  -7.03477
H   -13.30846  -4.55301  -6.49753
H   -13.23825  -3.16833  -7.62343
H   -13.56296  -2.34418  -5.26047
H   -12.84104  -2.29563  -1.54420
H   -14.48237  -2.31586  -2.26726
H   -13.19969  -3.37982  -2.92661
H    -6.53882   0.74461  -0.51338
H    -4.31252   0.71806  -1.59108
H    -3.98572  -0.45895  -3.77164
H    -5.92599  -1.59788  -4.85493
H    -8.15547  -1.55817  -3.78084
H    -8.56310  -2.82907  -0.44405
H    -8.27078  -3.60718   1.89339
H    -8.28194  -1.95775   3.77175
H    -8.59194   0.46804   3.27487
H    -8.88503   1.23931   0.95080
H    -8.69706   1.83146  -1.18725
H   -10.33282   1.23221  -0.88516
H    -9.14374   1.13369  -3.70769
H    -9.74749   2.63110  -3.03007
H   -11.97926   1.05689  -2.59643
H   -11.70045   2.13649  -3.94815
H   -12.39235   0.30157  -5.11838
H   -10.64249   0.02179  -5.14727
