18
Generated by autodE on: 2022-12-31. E = -605.732134 Ha
C     3.92607   0.88701   0.17553
O     2.85456  -0.06708   0.13827
C     1.61383   0.42685   0.06845
O     1.33902   1.61256   0.03422
C     0.61245  -0.64640   0.03847
C     0.94270  -2.02043   0.07816
N     1.22507  -3.15170   0.11141
N    -0.65780  -0.27894  -0.02827
C    -1.74839   0.13887  -0.08750
C    -3.13275   0.57736  -0.16006
C    -3.33735   2.05751  -0.18431
O    -4.00270  -0.27706  -0.19161
H     3.92101   1.50656  -0.73284
H     4.84932   0.29891   0.22799
H     3.83540   1.53245   1.06110
H    -2.95122   2.49867   0.74950
H    -4.40926   2.27067  -0.28968
H    -2.77111   2.50198  -1.01882
