33
Generated by autodE on: 2022-05-29. E = -856.640414 Ha
C     4.81185  -0.57412  -0.57023
N     3.42105  -0.84687  -0.26343
C     2.46467   0.07355  -0.48450
O     2.71502   1.19046  -0.95226
C     1.07346  -0.32061  -0.11283
C     0.05323   0.55460   0.02036
C     0.12354   1.96150  -0.18866
N     0.13497   3.10978  -0.37612
C    -1.22101  -0.17922   0.42258
C    -1.90427   0.45888   1.66378
C    -2.68449  -0.46846   2.54402
O    -1.81354   1.65318   1.87010
C    -2.29052  -0.17070  -0.72589
C    -2.71163   1.13871  -1.31653
O    -2.74228  -1.23786  -1.08997
N    -0.75519  -1.53320   0.70157
C     0.59313  -1.72735   0.13828
C     0.59790  -2.57885  -1.13671
H     4.93915  -0.32869  -1.63610
H     5.18880   0.27640   0.01977
H     5.40746  -1.46387  -0.33442
H     3.17662  -1.74743   0.13357
H    -1.98476  -1.09928   3.11286
H    -3.30446  -1.14713   1.93770
H    -3.30682   0.11372   3.23563
H    -2.81761   1.91719  -0.54893
H    -1.92643   1.47516  -2.01440
H    -3.64789   1.00866  -1.87448
H    -1.41544  -2.18966   0.28409
H     1.24145  -2.21758   0.88709
H     1.62064  -2.72468  -1.51347
H     0.17097  -3.56979  -0.91786
H    -0.00558  -2.10136  -1.92326
