21
Generated by autodE on: 2022-07-26. E = -478.789385 Ha
C     1.98908  -2.80671  -0.94524
C     1.28199  -1.87362  -0.03879
N     0.62552  -0.85538  -0.49267
C    -0.13774   0.20529   0.02260
C    -0.42844   0.42583   1.41673
C     0.09509  -0.53874   2.46105
O    -1.10795   1.39585   1.80144
C    -0.59358   1.03831  -1.07324
C    -1.44168   2.25881  -0.83441
O    -0.27817   0.73815  -2.24764
H     3.06157  -2.83649  -0.68704
H     1.60542  -3.83096  -0.79877
H     1.87600  -2.52292  -2.00132
H     1.31958  -2.05354   1.03409
H     0.62609  -0.72459  -1.52477
H    -0.26429  -1.56447   2.28099
H     1.19676  -0.56325   2.46921
H    -0.25902  -0.20393   3.44455
H    -2.37808   1.99471  -0.32173
H    -0.92480   2.97622  -0.18078
H    -1.66189   2.72369  -1.80513
