33
Generated by autodE on: 2022-05-29. E = -856.557977 Ha. Imaginary frequency = -265.5 cm-1
C     4.72610  -1.07521   0.80445
N     3.35936  -0.58869   0.85110
C     2.68100  -0.29641  -0.27060
O     3.14506  -0.40490  -1.40932
C     1.29241   0.14775  -0.07140
C     0.47875   1.08951   0.05171
C    -0.06610   2.33525   0.20332
N    -0.54256   3.39618   0.33698
C    -1.65678  -0.20892  -0.06461
C    -1.91265   0.05319   1.35914
C    -1.46294  -0.94178   2.40376
O    -2.50548   1.07445   1.71194
C    -2.42244   0.42550  -1.16991
C    -3.34744   1.57698  -0.91756
O    -2.27432  -0.02115  -2.31241
N    -0.92446  -1.26534  -0.53160
C     0.21540  -1.76681  -0.05879
C     0.93774  -2.79696  -0.85734
H     4.80512  -1.94371   0.13315
H     5.41921  -0.29877   0.44292
H     5.02765  -1.37584   1.81489
H     2.90243  -0.45626   1.74804
H    -0.40586  -0.76232   2.65908
H    -1.56681  -1.98488   2.07345
H    -2.06090  -0.77392   3.30909
H    -4.09693   1.31883  -0.15623
H    -2.79047   2.44202  -0.52693
H    -3.83589   1.84343  -1.86414
H    -1.07806  -1.36856  -1.54651
H     0.36997  -1.76127   1.01804
H     0.46600  -3.78216  -0.69798
H     0.91548  -2.56439  -1.93199
H     1.97956  -2.88253  -0.52277
