46
Generated by autodE on: 2022-06-25. E = -1391.646352 Ha
C    -3.04565   3.63777  -0.15177
N    -2.50541   2.29783  -0.02056
C    -2.10993   1.60221  -1.08918
O    -2.27223   1.94136  -2.26042
C    -1.43727   0.26878  -0.78141
O    -2.09148  -0.75209  -1.58002
C    -1.87048  -1.91650  -0.92373
O    -2.22715  -2.99129  -1.31147
C    -1.08212  -1.49913   0.33402
C    -1.27368  -2.45417   1.50527
C    -1.87629  -1.89172   2.75208
O    -1.01766  -3.62944   1.32892
O    -1.62086  -0.18568   0.53525
C     0.37933  -1.17134  -0.14758
C     1.06863  -2.33342  -0.87693
C     1.23668  -0.90836   1.08830
O     1.12845  -1.58738   2.09174
C     2.30465   0.12515   1.00392
O     3.31062  -0.13174   1.83032
C     4.51417   0.65187   1.84012
C     2.07357   1.24773   0.25431
O     2.85784   2.34813   0.35800
C     3.49977   2.79295  -0.84533
C     0.83824   1.37578  -0.53362
O     0.45879   2.48154  -0.89632
C     0.10654   0.12130  -1.01690
C     0.47307   0.00486  -2.50458
H    -3.40280   3.97525   0.82819
H    -2.27586   4.33827  -0.51507
H    -3.88424   3.64864  -0.86294
H    -2.29740   1.93047   0.90287
H    -1.86256  -2.64964   3.54548
H    -1.34514  -0.98315   3.06910
H    -2.91782  -1.60007   2.53389
H     1.12553  -3.20271  -0.20878
H     0.51827  -2.62522  -1.77986
H     2.08771  -2.04513  -1.16982
H     5.21849   0.08751   2.46363
H     4.91712   0.75502   0.82269
H     4.33341   1.64119   2.27778
H     4.06219   3.69668  -0.57892
H     2.76545   3.03533  -1.62689
H     4.19445   2.02081  -1.21326
H    -0.00319  -0.86382  -2.97286
H     1.56215  -0.08756  -2.61680
H     0.14078   0.91016  -3.02828
