20
Generated by autodE on: 2022-06-25. E = -702.145827 Ha
C     4.24661  -1.48887   0.33927
N     3.06129  -0.69416   0.07483
C     1.84132  -1.16474   0.34753
O     1.57153  -2.26036   0.82916
C     0.72753  -0.20982   0.01488
O     0.85862   0.94795  -0.50988
C    -0.57414   1.54991  -0.64344
O    -0.69000   2.64156  -1.11496
C    -1.33241   0.50194  -0.11128
C    -2.75997   0.39631   0.06729
C    -3.28358  -0.87915   0.67461
O    -3.49505   1.32631  -0.27183
O    -0.48947  -0.54391   0.27226
H     4.30439  -1.75761   1.40513
H     5.13135  -0.90323   0.06631
H     4.23235  -2.41930  -0.24919
H     3.15750   0.23495  -0.32762
H    -2.84694  -1.03558   1.67407
H    -2.99642  -1.74452   0.05591
H    -4.37682  -0.82114   0.75015
