20
Generated by autodE on: 2022-07-27. E = -702.146268 Ha
C    -0.20963   4.23607  -0.83657
N    -0.07717   2.84991  -0.42566
C    -0.43974   1.85588  -1.24196
O    -0.89631   1.97308  -2.37454
C    -0.25670   0.47737  -0.66980
O    -0.59318  -0.57887  -1.30773
C    -0.26943  -1.77456  -0.40252
O    -0.50660  -2.88039  -0.80061
C     0.25681  -1.12550   0.72095
C     0.78728  -1.61636   1.96953
C     0.78729  -3.11399   2.14260
O     1.21212  -0.84291   2.82918
O     0.23890   0.25542   0.49806
H     0.16704   4.87860  -0.03315
H     0.36733   4.42633  -1.75433
H    -1.26350   4.48520  -1.03582
H     0.28370   2.63521   0.50072
H     1.38486  -3.59308   1.35059
H     1.20576  -3.36282   3.12632
H    -0.23628  -3.51269   2.05934
