46
Generated by autodE on: 2022-06-25. E = -1391.600793 Ha. Imaginary frequency = -354.8 cm-1
C    -1.78198   3.89969  -0.28946
N    -1.73100   2.47574  -0.01549
C    -2.07172   1.54890  -0.92151
O    -2.64771   1.74097  -1.98913
C    -1.61673   0.15709  -0.58029
O    -2.29387  -0.88786  -1.09700
C    -1.93045  -2.03104  -0.34966
O    -2.29078  -3.13427  -0.65507
C    -1.10296  -1.48500   0.71008
C    -0.64928  -2.18915   1.91562
C    -0.26312  -1.38694   3.12362
O    -0.57118  -3.41108   1.86951
O    -1.23076  -0.12962   0.67064
C     0.69715  -1.30596  -0.92953
C     0.68664  -2.64434  -1.59716
C     1.63492  -1.19048   0.22132
O     2.21646  -2.16649   0.67657
C     1.88489   0.16148   0.82002
O     2.50997   0.06975   1.98986
C     2.57123   1.16550   2.91355
C     1.51898   1.28742   0.13864
O     1.76585   2.54708   0.59155
C     2.95026   3.17185   0.07424
C     0.84889   1.18384  -1.17053
O     0.73900   2.17812  -1.88309
C     0.24051  -0.12473  -1.58295
C    -0.18587  -0.19729  -3.02975
H    -2.29229   4.43211   0.52591
H    -0.75963   4.29577  -0.39061
H    -2.32873   4.06551  -1.22460
H    -1.21757   2.17801   0.81026
H    -0.56306  -1.94042   4.02426
H     0.83551  -1.29605   3.13408
H    -0.69481  -0.37842   3.12538
H     0.70274  -3.45093  -0.85336
H    -0.17358  -2.77725  -2.26189
H     1.59915  -2.73624  -2.21328
H     2.91595   0.72645   3.85792
H     3.28734   1.92735   2.57817
H     1.57686   1.61142   3.04900
H     3.00950   4.16258   0.54299
H     2.89087   3.28287  -1.01811
H     3.84360   2.58376   0.33983
H    -0.91980  -0.99433  -3.19585
H     0.69285  -0.40982  -3.66019
H    -0.61862   0.75567  -3.35351
