26
Generated by autodE on: 2022-05-28. E = -648.468326 Ha
C     3.60829   0.53325   0.37242
C     2.47000  -0.18301  -0.31275
O     2.67218  -1.19830  -0.99365
C     1.12830   0.34898  -0.19253
N     0.83882   1.39087   0.55174
N    -0.43447   1.70399   0.42558
C    -1.05538   2.65705   1.31451
C    -1.19775   0.74260  -0.37759
C    -2.08621  -0.23231   0.47636
C    -2.78991  -1.13387  -0.52334
C    -1.84470  -1.97577  -0.96443
C    -0.57448  -1.57816  -0.23169
O    -1.08529  -1.10329   1.02264
C    -0.08428  -0.22768  -0.87598
H     3.29054   1.04092   1.29198
H     4.00808   1.30052  -0.31279
H     4.41341  -0.18347   0.58620
H    -0.31859   3.42172   1.59283
H    -1.89819   3.13948   0.79879
H    -1.43588   2.17748   2.23395
H    -1.78321   1.26485  -1.14482
H    -2.68427   0.24163   1.26224
H    -3.81798  -1.01544  -0.86587
H    -1.90797  -2.72114  -1.75761
H     0.20802  -2.33087  -0.09260
H     0.02798  -0.30983  -1.96385
