13
Generated by autodE on: 2022-05-28. E = -307.512029 Ha
C     1.31778  -0.71372  -0.17029
C     1.25188   0.53049  -0.65266
C    -0.07791   1.09934  -0.10109
C    -1.22969   0.34094  -0.80400
C    -1.16369  -0.90355  -0.32237
C     0.02676  -0.88289   0.66673
O    -0.10763   0.45538   1.19017
H     2.05628  -1.49432  -0.35117
H     1.92164   1.04954  -1.33787
H    -0.16613   2.18854  -0.02130
H    -1.88263   0.75914  -1.56970
H    -1.74766  -1.78538  -0.58479
H     0.03589  -1.63777   1.46088
