13
Generated by autodE on: 2022-05-28. E = -340.827197 Ha
C     2.97887   0.60079   0.34938
N     1.90154   0.86352  -0.60979
N     0.87303   0.22057  -0.42954
C    -0.12727  -0.43592  -0.37782
C    -1.45824  -0.46506   0.21115
C    -2.53129   0.20397  -0.60334
O    -1.66344  -1.04874   1.26734
H     3.91233   0.99719  -0.06628
H     3.09125  -0.47780   0.54524
H     2.77714   1.11180   1.30521
H    -2.65880  -0.33507  -1.55632
H    -3.47552   0.19478  -0.04224
H    -2.23872   1.23771  -0.84740
