26
Generated by autodE on: 2022-05-28. E = -648.335710 Ha. Imaginary frequency = -259.6 cm-1
C     3.68846   0.26540   0.75966
C     2.68510   0.05079  -0.34321
O     2.94170  -0.54472  -1.38535
C     1.34347   0.53448  -0.08168
N     0.74142   1.52868   0.26842
N    -0.28620   2.21667   0.21407
C    -0.73823   2.81167   1.46754
C    -1.47552   0.19920  -1.01441
C    -2.29971  -0.29165   0.19405
C    -2.93414  -1.64205  -0.21316
C    -1.90583  -2.49386  -0.28876
C    -0.66171  -1.65182   0.07380
O    -1.23937  -0.76243   1.05163
C    -0.41815  -0.65143  -1.08547
H     3.78791   1.34153   0.97355
H     4.65777  -0.15438   0.45903
H     3.33769  -0.22183   1.68343
H    -0.01789   3.55624   1.84563
H    -1.69438   3.31482   1.27975
H    -0.88115   2.03784   2.24069
H    -1.81937   0.92805  -1.74458
H    -2.94111   0.43884   0.69923
H    -3.98626  -1.79888  -0.45086
H    -1.88998  -3.53767  -0.60201
H     0.21214  -2.18210   0.46756
H     0.25424  -0.82987  -1.92395
