39
Generated by autodE on: 2022-06-18. E = -843.927087 Ha. Imaginary frequency = -314.9 cm-1
C     3.35368   1.39863  -2.30624
N     2.69545   1.10346  -1.04815
C     2.80002  -0.13190  -0.49877
O     3.68884  -0.92696  -0.82476
C     1.95099  -0.37326   0.71228
C     1.42305  -2.50899   0.73354
C     0.07325  -2.62967   0.48799
C    -0.35484  -0.06463   0.08191
C    -0.23346  -0.56943  -1.27524
C    -1.53301  -0.81590  -2.02065
O     0.83961  -0.78502  -1.86455
C    -1.68289   0.47643   0.51187
C    -2.64349  -0.32188   1.15107
C    -3.87936   0.21368   1.52388
C    -4.17121   1.55663   1.26693
C    -3.22193   2.36161   0.62925
C    -1.98984   1.82286   0.25073
N     0.71719   0.15874   0.91511
C     0.39083   0.41965   2.32974
H     4.42726   1.17522  -2.23768
H     2.93228   0.80569  -3.13670
H     3.23142   2.46493  -2.53593
H     1.84384   1.61746  -0.84675
H     2.57465  -0.36915   1.60907
H     1.78167  -2.57849   1.76386
H     2.15555  -2.75333  -0.03741
H    -0.64491  -2.64764   1.31070
H    -0.30537  -2.91746  -0.49325
H    -2.27380  -1.35607  -1.41649
H    -1.30598  -1.38648  -2.93112
H    -1.98771   0.14584  -2.30913
H    -2.42000  -1.36955   1.35614
H    -4.61660  -0.42194   2.02015
H    -5.13669   1.97481   1.56154
H    -3.44235   3.41155   0.42215
H    -1.24984   2.44979  -0.25290
H     1.31444   0.65379   2.86886
H    -0.29462   1.26917   2.41102
H    -0.08537  -0.46951   2.77173
