23
Generated by autodE on: 2022-10-20. E = -650.084126 Ha
C     3.57938  -0.99347   0.09435
O     2.14986  -1.02474   0.07314
C     1.52096   0.13856  -0.22513
O     2.14736   1.16601  -0.44736
C     0.08493  -0.05787  -0.26180
C    -0.99637   0.76939  -0.15717
O    -1.22004   2.04908   0.05251
C    -0.13621   2.94211   0.35096
C    -2.23443  -0.15487  -0.19429
C    -2.24576  -0.91029   1.15189
C    -1.20384  -1.74386   1.07282
C    -0.57434  -1.46614  -0.30810
O    -1.75590  -1.17123  -1.08032
H     3.97888  -0.69382  -0.88611
H     3.90184  -2.01359   0.33533
H     3.94418  -0.29299   0.86030
H    -0.59727   3.91873   0.54021
H     0.39576   2.59343   1.24786
H     0.56109   2.99773  -0.49321
H    -3.16275   0.31779  -0.53258
H    -2.93441  -0.71858   1.97355
H    -0.80490  -2.43323   1.81632
H     0.02751  -2.25894  -0.76108
