32
Generated by autodE on: 2022-10-20. E = -971.388373 Ha. Imaginary frequency = -271.0 cm-1
C    -1.94413   3.20460  -0.62448
O    -1.27448   2.19356   0.13061
C    -1.72009   0.92608  -0.01373
O    -2.68898   0.66142  -0.71154
C    -0.91506   0.01254   0.77642
C    -0.84250  -1.34993   0.86090
O    -1.39507  -2.39112   0.27966
C    -2.15187  -2.25854  -0.93358
C     0.24841  -1.63491   1.89976
O     0.06005  -0.52465   2.78873
C     0.18416   0.48318   1.75401
C     1.57967   0.10920   1.19319
C     1.59746  -1.25712   1.25681
O     1.22531  -1.86382  -1.07315
O     0.91717  -0.60075  -1.43634
C     1.84457   0.28027  -1.17960
C     3.30008  -0.03935  -1.19947
C     1.42996   1.62062  -1.48780
N     1.16494   2.72415  -1.73556
H    -1.89169   2.98544  -1.70070
H    -1.41968   4.14260  -0.40797
H    -2.99904   3.28270  -0.32173
H    -2.32885  -3.28272  -1.28341
H    -1.57076  -1.69916  -1.67806
H    -3.10213  -1.74723  -0.74117
H     0.19059  -2.60897   2.39560
H     0.07312   1.49442   2.15195
H     2.42899   0.78909   1.17351
H     2.43236  -1.94202   1.14245
H     3.87331   0.77530  -0.73943
H     3.50990  -0.98870  -0.69959
H     3.60300  -0.12215  -2.25954
