64
Generated by autodE on: 2022-06-14. E = -1951.182023 Ha
C     5.69104  16.04730 -13.36879
N     4.92148  15.64076 -12.20731
C     3.58657  15.54544 -12.26587
O     2.91728  15.94926 -13.21336
C     2.85070  15.02873 -10.98109
C     3.76845  14.31539 -10.05128
N     4.47989  13.81850  -9.28079
C     1.62109  14.12627 -11.25076
C     0.53708  14.65648 -10.63297
C    -0.89762  14.11789 -10.46678
C    -1.62892  13.76376 -11.75601
Cl   -1.95122  15.52740  -9.76763
C    -1.03648  13.05005  -9.35440
C    -0.61287  11.61140  -9.64770
C     0.82708  11.39486 -10.11111
C     1.00535  11.60303 -11.62500
C     1.80175  12.85994 -12.09535
C     3.31035  12.46930 -12.19979
C     3.88155  11.37194 -11.34609
O     4.00361  13.03272 -13.02788
C     1.32380  13.12918 -13.55973
C     1.67322  12.10454 -14.61010
O     0.64916  14.09687 -13.83977
C     0.91562  15.95771  -9.91780
C     0.20841  17.22428 -10.48753
C    -0.06198  17.24765 -11.96573
O     0.02645  18.21435  -9.79409
C     0.90203  15.72907  -8.37700
O     1.39773  14.68206  -7.93809
N     0.44887  16.70420  -7.59139
C     0.48514  16.59466  -6.14688
N     2.29324  16.19997 -10.33969
C     3.15140  17.04667  -9.53182
H     5.64599  15.27970 -14.15945
H     6.73634  16.19418 -13.07109
H     5.29785  16.98863 -13.77732
H     5.41737  15.19747 -11.44052
H    -1.62319  14.60506 -12.45892
H    -2.66716  13.49454 -11.51860
H    -1.16962  12.90839 -12.25781
H    -2.10239  13.02890  -9.08657
H    -0.49022  13.41133  -8.47469
H    -1.29990  11.15543 -10.38027
H    -0.77134  11.06322  -8.70480
H     1.50743  12.03943  -9.53255
H     1.11434  10.35910  -9.87711
H     0.01776  11.59979 -12.10060
H     1.50557  10.73123 -12.06094
H     3.66256  10.40597 -11.83098
H     4.97052  11.49551 -11.29949
H     3.45297  11.34683 -10.33878
H     2.00371  11.14125 -14.20300
H     0.80337  11.96203 -15.26648
H     2.49268  12.51810 -15.21883
H    -1.03628  16.77126 -12.15184
H    -0.11745  18.29244 -12.29950
H     0.70029  16.69921 -12.53020
H     0.11408  17.54931  -8.05527
H    -0.14086  15.75857  -5.79597
H     0.10658  17.52713  -5.71084
H     1.51184  16.42254  -5.78682
H     4.05977  17.29121 -10.09877
H     2.62951  17.98717  -9.31216
H     3.45283  16.57666  -8.57705
