64
Generated by autodE on: 2022-06-14. E = -1951.081181 Ha. Imaginary frequency = -205.9 cm-1
C     3.92842  16.53894 -14.32945
N     3.95328  15.80682 -13.07880
C     3.54035  16.36391 -11.92978
O     3.23989  17.55979 -11.82347
C     3.55552  15.47166 -10.72279
C     4.80417  14.81845 -10.54791
N     5.84702  14.29990 -10.46988
C     1.59387  13.77136 -11.21602
C     0.65323  14.34712 -10.64368
C    -0.80044  14.12597 -10.43771
C    -1.50718  13.91925 -11.77871
Cl   -1.67463  15.62231  -9.69000
C    -1.03292  12.97260  -9.44494
C    -0.71032  11.55100  -9.93372
C     0.74301  11.17018 -10.27973
C     1.17410  11.38813 -11.74601
C     2.04364  12.65609 -12.06938
C     3.55208  12.37040 -11.89492
C     4.01385  11.61361 -10.68968
O     4.32903  12.78972 -12.73883
C     1.82966  13.01366 -13.56635
C     2.03955  11.91378 -14.57251
O     1.45832  14.11892 -13.90898
C     1.58205  16.25164  -9.57389
C     1.06612  17.31264 -10.56982
C     0.55635  17.00853 -11.94767
O     0.93549  18.43838 -10.10980
C     0.88374  16.20088  -8.21318
O     0.73598  15.11646  -7.64070
N     0.48760  17.36214  -7.67934
C    -0.32322  17.38884  -6.47913
N     2.84456  15.78536  -9.57944
C     3.41805  15.22245  -8.33112
H     4.51964  15.99145 -15.07438
H     4.36040  17.54034 -14.19709
H     2.89923  16.65225 -14.70977
H     4.05486  14.79316 -13.11971
H    -1.39044  14.79554 -12.42843
H    -2.57842  13.73463 -11.61268
H    -1.07689  13.05424 -12.29922
H    -2.09996  12.99330  -9.17478
H    -0.46353  13.19730  -8.53316
H    -1.36235  11.29239 -10.78456
H    -1.03243  10.89408  -9.10945
H     1.43350  11.66330  -9.58045
H     0.84280  10.09163 -10.08406
H     0.27062  11.44521 -12.37000
H     1.73040  10.51196 -12.10866
H     3.60953  10.59003 -10.70484
H     5.10927  11.58474 -10.67159
H     3.63530  12.10042  -9.77815
H     2.75034  11.14898 -14.23741
H     1.06661  11.42162 -14.73893
H     2.36452  12.35243 -15.52559
H    -0.52134  16.80981 -11.83765
H     0.67868  17.90825 -12.56364
H     1.00846  16.13917 -12.42784
H     0.60539  18.19759  -8.24898
H    -0.52113  18.43254  -6.20677
H     0.19326  16.89361  -5.64319
H    -1.28331  16.87067  -6.64000
H     4.50363  15.34653  -8.36716
H     3.04490  15.76677  -7.46306
H     3.16240  14.15841  -8.24822
