59
Generated by autodE on: 2022-06-25. E = -1251.350102 Ha
C     5.40073  -0.29772  -0.39263
C     4.26482  -0.53082   0.29581
C     4.24477  -1.41047   1.51853
C     3.00230   0.06752  -0.15249
C     1.81467  -0.07900   0.46167
C     0.54132   0.51595  -0.04562
C    -0.58142  -0.53299  -0.39284
C    -0.56447  -0.73415  -1.93258
O     0.35141  -0.42192  -2.66786
O    -1.64702  -1.37394  -2.37221
C    -1.72825  -1.61749  -3.78314
C    -0.33018  -1.91924   0.22666
C    -0.97208  -2.30567   1.40871
C    -0.68424  -3.53591   2.00869
C     0.25308  -4.39881   1.43463
C     0.89613  -4.02314   0.25052
C     0.60463  -2.79542  -0.34809
N    -1.79409   0.08107   0.13384
C    -3.11218  -0.40670  -0.20788
C    -1.62146   1.49907   0.39929
C    -2.63368   2.02095   1.42611
C    -1.76839   2.30334  -0.91010
O    -1.62517   1.82598  -2.02013
O    -2.07373   3.58758  -0.71529
C    -2.17330   4.41751  -1.88217
C    -0.12812   1.56250   0.89326
C     0.53410   2.93032   0.71159
C    -0.03042   1.16613   2.37236
H     6.35498  -0.73562  -0.08637
H     5.40175   0.33888  -1.28287
H     3.55532  -2.26035   1.37996
H     3.88544  -0.85619   2.40151
H     5.24548  -1.80628   1.74216
H     3.05003   0.65925  -1.07409
H     1.75131  -0.67731   1.37224
H     0.77292   1.03590  -0.98120
H    -0.89187  -2.25016  -4.11340
H    -1.70909  -0.66675  -4.33514
H    -2.68205  -2.13224  -3.94680
H    -1.69867  -1.63134   1.86102
H    -1.19653  -3.81887   2.93163
H     0.47980  -5.35888   1.90431
H     1.63092  -4.68769  -0.21028
H     1.12722  -2.51306  -1.26367
H    -3.82456  -0.14970   0.59060
H    -3.50712  -0.00523  -1.16095
H    -3.09540  -1.50029  -0.29032
H    -2.33125   3.01071   1.79244
H    -3.63595   2.12001   0.98650
H    -2.69660   1.33330   2.27848
H    -2.42146   5.42156  -1.51946
H    -1.21572   4.43344  -2.42251
H    -2.96367   4.04732  -2.55055
H     1.57850   2.87965   1.05629
H     0.55148   3.25162  -0.34055
H     0.02062   3.70458   1.30180
H    -0.51193   1.91699   3.01435
H     1.02592   1.11305   2.67291
H    -0.48919   0.18925   2.57328
