36
Generated by autodE on: 2022-07-27. E = -899.771563 Ha
C    -1.63081   0.20317  -3.17630
O    -1.43955  -0.10510  -1.79527
C    -0.20135  -0.49043  -1.42784
O     0.66369  -0.74248  -2.25620
C    -0.03347  -0.67553   0.01415
C     1.08149  -1.49978   0.49613
C     1.81136  -1.11146   1.64072
C     2.87554  -1.88138   2.11023
C     3.24905  -3.05128   1.44092
C     2.54305  -3.44336   0.29733
C     1.47240  -2.68198  -0.16886
N    -0.87627  -0.07527   0.90876
C    -1.23382  -0.81981   2.13705
C    -1.45520   1.13949   0.74762
C    -2.64995   1.50772   1.57398
C    -0.79924   2.14173  -0.08538
O     0.20638   1.99238  -0.77488
O    -1.39136   3.35229   0.03110
C    -0.79457   4.42375  -0.70238
H    -1.48829  -0.68855  -3.80481
H    -0.93016   0.98833  -3.49715
H    -2.66278   0.56343  -3.26681
H     1.54859  -0.18616   2.15755
H     3.42523  -1.55762   2.99744
H     4.08589  -3.65180   1.80494
H     2.82355  -4.35765  -0.23141
H     0.92275  -3.00893  -1.05214
H    -2.31129  -1.02820   2.11272
H    -1.00094  -0.22806   3.03052
H    -0.69593  -1.76897   2.15755
H    -3.14148   2.38946   1.15133
H    -3.38466   0.68910   1.60051
H    -2.38378   1.74067   2.62047
H    -0.77012   4.19442  -1.77840
H     0.23081   4.61554  -0.35276
H    -1.42338   5.30321  -0.51858
