36
Generated by autodE on: 2022-06-25. E = -899.772460 Ha
C     0.13602  -2.63738   2.51464
O    -0.39965  -1.58115   1.71859
C     0.21038  -1.35226   0.52782
O     1.19285  -2.02198   0.19109
C    -0.42860  -0.31287  -0.23769
C    -1.61984   0.42319   0.21306
C    -2.74191  -0.20767   0.79096
C    -3.85225   0.53431   1.19269
C    -3.88189   1.92351   1.01935
C    -2.78122   2.56390   0.44208
C    -1.66331   1.82523   0.05139
N     0.13071   0.04752  -1.45906
C    -0.79731   0.32299  -2.57859
C     1.43152   0.03572  -1.74153
C     1.91723   0.00262  -3.15404
C     2.46760   0.09571  -0.68032
O     3.59435  -0.34103  -0.83256
O     2.09226   0.77210   0.41001
C     3.00934   0.78459   1.50963
H     0.05785  -3.60527   1.99695
H    -0.46417  -2.65788   3.43273
H     1.19186  -2.44792   2.76145
H    -2.74315  -1.29072   0.91353
H    -4.71024   0.02116   1.63443
H    -4.75602   2.49999   1.33098
H    -2.78670   3.64814   0.30465
H    -0.79991   2.33847  -0.37804
H    -0.69071  -0.47346  -3.32730
H    -0.56227   1.28958  -3.04067
H    -1.82345   0.32135  -2.20695
H     1.67497   0.93595  -3.69019
H     3.00510  -0.12561  -3.16238
H     1.46302  -0.82562  -3.72194
H     3.94018   1.30284   1.23693
H     3.23927  -0.24435   1.82241
H     2.50104   1.32090   2.31925
