59
Generated by autodE on: 2022-06-25. E = -1251.268111 Ha. Imaginary frequency = -299.0 cm-1
C     4.52372  -2.25735   0.04027
C     3.73815  -1.44607   0.78589
C     3.79524  -1.48271   2.29223
C     2.80372  -0.53355   0.13993
C     1.86063   0.20437   0.78572
C     0.94363   1.11501   0.15345
C    -0.67356  -0.67671  -0.62211
C    -0.52904  -0.47038  -2.09374
O     0.52556  -0.43094  -2.70410
O    -1.72044  -0.52846  -2.71753
C    -1.70751  -0.33119  -4.13490
C    -0.07932  -1.92708  -0.12949
C     0.07963  -2.16804   1.25570
C     0.71140  -3.31369   1.72896
C     1.23973  -4.25408   0.83639
C     1.10575  -4.03261  -0.53619
C     0.45434  -2.89400  -1.01149
N    -1.73836  -0.09490   0.04350
C    -2.59240  -0.93890   0.90349
C    -1.97794   1.27227   0.08415
C    -3.00942   1.75662   1.06911
C    -1.80786   2.11754  -1.11714
O    -1.04948   1.94359  -2.06005
O    -2.58728   3.21742  -1.05876
C    -2.43547   4.16786  -2.11666
C     0.08663   1.97213   0.88078
C     0.06818   3.43955   0.51434
C    -0.13928   1.70933   2.34999
H     5.22266  -2.95945   0.50305
H     4.47841  -2.23902  -1.05296
H     2.81804  -1.75524   2.72058
H     4.05619  -0.49309   2.70265
H     4.53857  -2.21193   2.64435
H     2.84490  -0.48910  -0.95386
H     1.78855   0.10428   1.87045
H     1.17555   1.39783  -0.87500
H    -1.14747  -1.13471  -4.63569
H    -1.25399   0.63870  -4.38329
H    -2.75642  -0.34966  -4.45446
H    -0.26721  -1.42738   1.97371
H     0.81652  -3.46106   2.80625
H     1.75205  -5.14415   1.20814
H     1.51052  -4.75372  -1.25027
H     0.36608  -2.76230  -2.08914
H    -2.37938  -0.82421   1.97335
H    -3.64242  -0.67574   0.72361
H    -2.45193  -1.98529   0.62117
H    -2.87044   2.82960   1.24279
H    -4.03997   1.61908   0.69768
H    -2.92344   1.24694   2.03409
H    -3.14303   4.97657  -1.89814
H    -1.40944   4.56293  -2.14315
H    -2.67271   3.71103  -3.08855
H     0.88023   3.94740   1.06635
H     0.25424   3.60530  -0.55535
H    -0.87004   3.93876   0.79950
H    -0.95058   2.33533   2.74630
H     0.76843   1.96016   2.92886
H    -0.38105   0.65715   2.55519
