59
Generated by autodE on: 2022-06-07. E = -1376.050548 Ha
C    18.20126  -4.58273   9.70341
N    17.09098  -5.11469  10.46659
C    16.32705  -6.10840   9.99585
O    16.49572  -6.63313   8.88629
C    15.22732  -6.63224  10.93483
N    14.43022  -5.63658  11.64353
C    14.63261  -5.72639  13.09331
C    13.27691  -5.97437  13.79451
C    12.28346  -6.83030  13.06446
O    13.03145  -5.53006  14.90680
C    15.43519  -4.47508  13.54401
O    16.60337  -4.33673  13.13528
N    14.81016  -3.53121  14.24766
C    15.52735  -2.37762  14.75683
C    15.47980  -7.00007  13.25425
C    15.82786  -7.46539  12.04058
C    16.63983  -8.67229  11.69791
C    15.75452  -9.88497  11.37060
C    14.72424 -10.18339  12.46239
C    15.30023 -10.22386  13.89043
C    15.06953  -9.00394  14.79831
C    15.83020  -7.66658  14.58473
C    15.56799  -6.70903  15.80243
C    14.77595  -7.18395  16.98596
O    16.07947  -5.60515  15.80460
C    17.37130  -7.88017  14.70641
O    17.83049  -8.84828  15.32031
N    18.14434  -6.92410  14.17120
C    19.58807  -6.96299  14.28746
H    18.61287  -3.71342  10.23173
H    19.00304  -5.32943   9.57506
H    17.87517  -4.26622   8.70069
H    16.94515  -4.80391  11.43577
H    14.60021  -7.26865  10.28515
H    14.52453  -4.69121  11.28525
H    12.76404  -7.56517  12.40774
H    11.62720  -7.32244  13.79471
H    11.66772  -6.17373  12.42784
H    13.95246  -3.81745  14.71594
H    14.80695  -1.66586  15.17847
H    16.08564  -1.88654  13.94844
H    16.24297  -2.67119  15.54312
H    17.28148  -8.44761  10.83132
H    17.31214  -8.93142  12.52499
H    16.41567 -10.75713  11.23330
H    15.24079  -9.72433  10.40853
H    14.25785 -11.15480  12.23246
H    13.90876  -9.44348  12.41798
H    16.37163 -10.47711  13.86433
H    14.82146 -11.05865  14.42655
H    13.99469  -8.76452  14.78801
H    15.30558  -9.33622  15.81635
H    15.32760  -7.99160  17.49320
H    13.79938  -7.58891  16.69103
H    14.64592  -6.34329  17.67867
H    17.70048  -6.11669  13.73429
H    19.91557  -6.85722  15.33529
H    20.01260  -6.13926  13.70009
H    19.98626  -7.91474  13.90273
