32
Generated by autodE on: 2022-06-07. E = -672.986668 Ha
C    -1.05395  -3.66315  -0.93246
N    -0.39907  -2.38026  -1.09558
C    -0.77400  -1.30555  -0.39006
O    -1.67731  -1.33879   0.45041
C     0.05012  -0.00488  -0.62128
C     0.40590   0.22877  -2.10355
C     0.12442   1.57800  -2.68536
O     0.94591  -0.65541  -2.75069
C    -0.61754   1.12277   0.02392
C    -0.84692   1.94145   0.88870
C    -0.69285   2.66996   2.14272
C     0.16170   1.78012   3.07865
C     1.44361   1.18561   2.45556
C     1.34257  -0.16292   1.68549
C     1.42810  -0.14541   0.14599
H    -0.56496  -4.39633  -1.58548
H    -2.12215  -3.60798  -1.19820
H    -0.98384  -4.01313   0.10931
H     0.31524  -2.24786  -1.80952
H    -0.95600   1.78664  -2.62723
H     0.62587   2.35429  -2.08593
H     0.46747   1.61884  -3.72685
H    -0.17860   3.62810   1.95424
H    -1.65692   2.91518   2.61631
H     0.43693   2.39019   3.95448
H    -0.46863   0.95730   3.45607
H     1.92903   1.94366   1.81575
H     2.14144   1.01979   3.29146
H     2.18972  -0.78487   2.01456
H     0.43904  -0.70899   2.00301
H     2.07118   0.68861  -0.17811
H     1.89810  -1.07073  -0.21653
