27
Generated by autodE on: 2022-07-27. E = -702.969842 Ha
C     3.09118   0.04292  -3.36397
N     2.12108  -0.16087  -2.30469
C     0.94606  -0.78306  -2.55092
O     0.63519  -1.20700  -3.67282
C    -0.00904  -0.94716  -1.43523
N     0.02516  -0.19177  -0.36871
C    -0.67831  -0.05381   0.79622
C    -1.76688  -0.88766   1.24209
C    -2.22598  -2.04923   0.39778
O    -2.33864  -0.66930   2.33035
C    -0.11457   1.08647   1.56179
O     0.85110   1.72392   1.07794
N    -0.65950   1.39021   2.74550
C    -0.16400   2.48046   3.55776
H     3.89650   0.68618  -2.98884
H     3.52859  -0.90973  -3.70761
H     2.61834   0.53038  -4.22864
H     2.43129  -0.02393  -1.34782
H    -0.79024  -1.68756  -1.57855
H     0.74935   0.56205  -0.33549
H    -1.39730  -2.74587   0.19221
H    -3.02067  -2.58010   0.93700
H    -2.61949  -1.70248  -0.57144
H    -1.43889   0.79694   3.03841
H    -0.76653   2.54353   4.47219
H    -0.23077   3.44300   3.02520
H     0.89016   2.32769   3.84132
