27
Generated by autodE on: 2022-06-07. E = -702.976902 Ha
C     5.07528  -0.28896   0.05175
N     3.70482  -0.70414  -0.17089
C     2.66669   0.09025   0.13507
O     2.79405   1.22549   0.62855
C     1.32695  -0.45965  -0.14730
N     0.33918   0.34441   0.15680
C    -1.02305   0.27426   0.07895
C    -1.75745   1.43382   0.54162
C    -0.98791   2.63229   1.06497
O    -3.00219   1.48375   0.52416
C    -1.63913  -0.95377  -0.46150
O    -0.95003  -1.91962  -0.85089
N    -2.98597  -0.98129  -0.51382
C    -3.69854  -2.13094  -1.02271
H     5.25385  -0.06630   1.11561
H     5.31638   0.61605  -0.52850
H     5.74629  -1.09829  -0.25886
H     3.51957  -1.61608  -0.57724
H     1.13523  -1.44127  -0.56858
H     0.71435   1.22636   0.54414
H    -0.38162   2.37226   1.94814
H    -0.31132   3.04761   0.30035
H    -1.71055   3.40594   1.35178
H    -3.46874  -0.14682  -0.17494
H    -3.47557  -3.03979  -0.43931
H    -3.43741  -2.34105  -2.07336
H    -4.77654  -1.93484  -0.96413
