17
Generated by autodE on: 2022-05-26. E = -513.519689 Ha
C    -3.07110  -0.05286  -0.01644
C    -1.89501   0.86282   0.16923
O    -1.99515   2.06827   0.41217
C    -0.57777   0.27232   0.05147
N     0.58464   0.91246   0.18282
C     1.63797   0.07466   0.01989
C     3.06794   0.45823   0.09262
C     1.08614  -1.21392  -0.23990
O     1.56135  -2.31872  -0.45743
O    -0.32089  -1.01946  -0.20551
H    -4.00057   0.52002   0.09249
H    -3.03532  -0.52389  -1.01207
H    -3.04242  -0.86563   0.72737
H     0.63523   1.91311   0.38578
H     3.29880   0.98840   1.03072
H     3.35865   1.11476  -0.74502
H     3.68353  -0.45032   0.04485
