11
Generated by autodE on: 2022-05-26. E = -384.740216 Ha
C    -2.22599   0.05754   0.88179
N    -1.49970  -1.04939   0.29141
C    -0.24343  -1.04815  -0.19531
O     0.29245  -2.05226  -0.67940
C     0.48254   0.21644  -0.12887
C     1.16186   1.21460  -0.11603
F     1.87029   2.27069  -0.09927
H    -1.60310   0.95992   0.87321
H    -2.50127  -0.16541   1.92445
H    -3.14763   0.26598   0.31657
H    -1.97139  -1.94954   0.22974
