22
Generated by autodE on: 2022-07-27. E = -533.911717 Ha
C    -3.46662   2.18106   2.31682
C    -2.27947   1.85024   1.45152
O    -1.55918   2.73547   0.95910
C    -1.99266   0.45099   1.23835
N    -0.90911   0.16742   0.51791
N    -0.48515  -0.99838   0.18102
C     0.73041  -1.04589  -0.50057
C     1.67253   0.00503  -0.56434
C     2.85648  -0.15959  -1.28253
C     3.13584  -1.36563  -1.93590
C     2.21681  -2.41895  -1.85706
C     1.03015  -2.26467  -1.14430
H    -3.22427   1.95769   3.37003
H    -3.71140   3.24763   2.22622
H    -4.33883   1.56585   2.04698
H    -2.58997  -0.36984   1.63236
H    -0.40685   1.02559   0.21529
H     1.50635   0.94678  -0.03611
H     3.57606   0.66183  -1.32052
H     4.06784  -1.48673  -2.49213
H     2.42708  -3.36807  -2.35582
H     0.30448  -3.07767  -1.07800
