22
Generated by autodE on: 2022-06-18. E = -533.911498 Ha
C    -4.70163   0.24981   0.24010
C    -3.24317   0.52217  -0.01726
O    -2.85535   1.56882  -0.56393
C    -2.30502  -0.49474   0.39684
N    -1.01682  -0.24769   0.16611
N    -0.02284  -1.01931   0.42780
C     1.25149  -0.52652   0.14936
C     2.30023  -1.46611   0.23863
C     3.61717  -1.09113  -0.01635
C     3.92060   0.23154  -0.35976
C     2.88852   1.17427  -0.43838
C     1.56695   0.80987  -0.18421
H    -5.30279   1.12333  -0.04403
H    -5.02725  -0.62635  -0.34520
H    -4.86858   0.00799   1.30199
H    -2.58140  -1.43158   0.87840
H    -0.87549   0.67824  -0.28315
H     2.05086  -2.49480   0.50611
H     4.41349  -1.83593   0.05401
H     4.95297   0.52836  -0.55670
H     3.11569   2.21269  -0.69135
H     0.79647   1.58273  -0.22898
