45
Generated by autodE on: 2022-06-18. E = -885.414907 Ha. Imaginary frequency = -421.9 cm-1
C    -1.57347   1.51274   2.70359
C    -0.34464   1.31976   1.86585
O     0.07655   2.21707   1.11894
C     0.26225   0.00680   1.86455
N     1.37502  -0.17527   1.13379
N     1.63185  -1.40900   0.72097
C     2.80393  -1.56067  -0.03704
C     3.80916  -0.57496  -0.10886
C     4.96470  -0.80127  -0.86133
C     5.14397  -2.00178  -1.55293
C     4.15231  -2.98811  -1.47478
C     2.99794  -2.77710  -0.72447
C     0.02934  -1.93546  -0.27907
C    -1.09166  -1.18886   0.16087
C    -2.07896  -1.81837   1.11371
C    -1.47225  -0.01906  -0.60099
C    -2.66104   0.64338  -0.53330
C    -2.94123   1.84317  -1.29173
C    -4.07520   2.58943  -1.26458
C    -5.27109   2.27573  -0.41017
C    -4.20762   3.82557  -2.10923
H    -1.57916   0.88039   3.60182
H    -1.68650   2.57243   2.97162
H    -2.44334   1.23074   2.08036
H    -0.01357  -0.76869   2.57564
H     1.62506   0.62423   0.53373
H     3.70725   0.35982   0.44385
H     5.73513  -0.02699  -0.89835
H     6.04952  -2.17325  -2.13882
H     4.28128  -3.93646  -2.00220
H     2.23633  -3.55515  -0.66233
H     0.06439  -2.99427  -0.01810
H     0.44392  -1.69177  -1.26030
H    -2.53251  -1.08363   1.79505
H    -1.59628  -2.59683   1.72250
H    -2.90876  -2.29443   0.55994
H    -0.70696   0.37221  -1.28290
H    -3.44259   0.25695   0.12632
H    -2.13079   2.18387  -1.94811
H    -5.49264   3.12087   0.26612
H    -5.14835   1.37355   0.20323
H    -6.17093   2.14379  -1.03739
H    -4.39719   4.71478  -1.48057
H    -3.30753   4.01481  -2.71298
H    -5.07341   3.74676  -2.79189
