34
Generated by autodE on: 2023-01-01. E = -820.465943 Ha
C    -1.28598  -1.59958   4.08683
N    -1.32952  -0.87138   2.83457
C    -0.42136  -1.09077   1.86086
O     0.53920  -1.85407   2.01660
C    -0.66929  -0.35423   0.58362
N     0.36763   0.14459  -0.08578
N     1.59375   0.29477   0.33273
C     2.50960   0.64349  -0.64711
C     3.74526   1.16802  -0.20006
C     4.72131   1.56850  -1.10700
C     4.50228   1.45214  -2.48722
C     3.29521   0.91166  -2.94176
C     2.31136   0.49743  -2.04181
C    -2.00463  -0.18404   0.00692
C    -3.00347  -1.16364   0.20533
C    -4.26246  -1.02506  -0.37542
C    -4.55727   0.08598  -1.17435
C    -3.57954   1.06419  -1.37909
C    -2.32144   0.94017  -0.78862
H    -1.40839  -2.68343   3.92631
H    -2.09748  -1.24330   4.73278
H    -0.32580  -1.44142   4.60192
H    -2.11630  -0.25899   2.64678
H     0.13647   0.48425  -1.03294
H     3.90624   1.26365   0.87584
H     5.66405   1.97865  -0.73607
H     5.27025   1.76534  -3.19772
H     3.12114   0.78917  -4.01391
H     1.40742   0.02544  -2.43441
H    -2.78168  -2.04993   0.80186
H    -5.01716  -1.79807  -0.21286
H    -5.54503   0.19102  -1.62853
H    -3.80284   1.94372  -1.98745
H    -1.59091   1.74123  -0.92437
