34
Generated by autodE on: 2022-12-30. E = -820.473320 Ha
C    -4.66063   0.51435  -0.94184
N    -3.43160  -0.10440  -0.48806
C    -2.23282   0.46626  -0.71042
O    -2.12429   1.55877  -1.30491
C    -1.02866  -0.21814  -0.18674
N     0.05888   0.53731  -0.32525
N     1.28368   0.24074  -0.02563
C     2.21515   1.25969  -0.18823
C     1.91653   2.63670  -0.31874
C     2.94343   3.56819  -0.47689
C     4.28330   3.16522  -0.49403
C     4.58908   1.80642  -0.34203
C     3.57284   0.86737  -0.18739
C    -0.99580  -1.53899   0.45672
C    -1.65797  -2.63857  -0.12488
C    -1.64511  -3.88861   0.49798
C    -0.96900  -4.06486   1.70800
C    -0.30203  -2.98122   2.29181
C    -0.31010  -1.73204   1.67336
H    -5.49522  -0.16793  -0.73992
H    -4.85009   1.46858  -0.42308
H    -4.62279   0.71997  -2.02268
H    -3.47987  -0.97170   0.03494
H    -0.18129   1.43978  -0.78082
H     0.88683   2.99737  -0.26804
H     2.69069   4.62719  -0.57319
H     5.08029   3.90237  -0.61287
H     5.63087   1.47621  -0.34507
H     3.80271  -0.19395  -0.07239
H    -2.17104  -2.51871  -1.08068
H    -2.15989  -4.72997   0.02842
H    -0.95818  -5.04299   2.19436
H     0.22707  -3.11081   3.23891
H     0.21093  -0.89386   2.13624
