28
Generated by autodE on: 2022-07-27. E = -708.430780 Ha
N     0.05689   1.35292  -2.11312
C     0.17576   1.05570  -0.98457
C     0.29349   0.72465   0.36715
O    -0.71842   0.05808   0.98365
C    -1.66981  -0.70622   0.54221
C    -1.80626  -1.36425  -0.72242
C    -3.09829  -1.87329  -1.02190
C    -3.32124  -2.61095  -2.17669
C    -2.25800  -2.89085  -3.04698
C    -0.97148  -2.42959  -2.74731
C    -0.73892  -1.66037  -1.61001
C     1.33972   1.23167   1.23132
C     2.35260   2.07293   0.71433
C     3.36199   2.56064   1.54109
C     3.39173   2.23127   2.90210
C     2.39482   1.39805   3.42292
C     1.38380   0.89665   2.60405
H    -2.42604  -0.87530   1.31261
H    -3.92005  -1.67049  -0.33133
H    -4.32463  -2.97916  -2.40095
H    -2.43212  -3.47479  -3.95343
H    -0.13782  -2.66641  -3.41183
H     0.27608  -1.33755  -1.38890
H     2.34063   2.34422  -0.34389
H     4.13345   3.20890   1.11806
H     4.18437   2.61623   3.54734
H     2.40740   1.12810   4.48196
H     0.62264   0.23690   3.02279
