28
Generated by autodE on: 2022-06-13. E = -708.440774 Ha
N     1.38498  -3.03427   1.70934
C     1.27892  -1.98858   1.18887
C     1.12177  -0.74500   0.56464
O    -0.11694  -0.38310   0.16027
C    -1.23435  -1.02462   0.25430
C    -2.43398  -0.43573  -0.24922
C    -2.45808   0.84562  -0.85384
C    -3.65605   1.36742  -1.32684
C    -4.84648   0.63352  -1.21044
C    -4.83265  -0.63357  -0.61431
C    -3.63987  -1.16829  -0.13612
C     2.19324   0.19451   0.31739
C     1.95630   1.43130  -0.32633
C     3.00377   2.32244  -0.55306
C     4.30891   2.01354  -0.15047
C     4.55303   0.79104   0.48719
C     3.51492  -0.10859   0.71988
H    -1.23041  -2.01444   0.72243
H    -1.53230   1.41628  -0.94436
H    -3.66907   2.35565  -1.79189
H    -5.78356   1.05128  -1.58499
H    -5.75866  -1.20543  -0.52328
H    -3.62295  -2.15635   0.32971
H     0.94561   1.68826  -0.64674
H     2.79712   3.27247  -1.05244
H     5.12511   2.71631  -0.33127
H     5.56558   0.53360   0.80788
H     3.72256  -1.05807   1.21920
