34
Generated by autodE on: 2023-01-01. E = -749.246700 Ha
C     0.04119   3.22536   2.55808
C    -0.82278   2.18797   1.88078
O    -1.91941   1.89428   2.36405
C    -0.27921   1.53253   0.67492
C     1.15504   1.71425   0.31431
N    -1.02992   0.70687  -0.08215
C    -2.50214   0.72310  -0.00689
C    -0.44503  -0.25722  -0.89408
C    -0.91414  -0.47076  -2.25015
C    -1.72478   0.59729  -2.96575
O    -0.58461  -1.47940  -2.89950
C     0.63935  -1.08235  -0.33213
C     0.61423  -1.44711   1.03111
C     1.60711  -2.25717   1.57948
C     2.65831  -2.72432   0.78173
C     2.70430  -2.36235  -0.56826
C     1.71257  -1.54852  -1.11809
H    -0.51181   3.63462   3.41303
H     0.98430   2.78128   2.91447
H     0.30450   4.04060   1.86577
H     1.49247   2.72724   0.56497
H     1.81952   1.00345   0.83786
H     1.29299   1.53898  -0.76369
H    -2.81464   0.19203   0.89984
H    -2.90084   0.18330  -0.86889
H    -2.88371   1.74933   0.01867
H    -1.22631   0.78110  -3.93025
H    -1.81316   1.54915  -2.42845
H    -2.73256   0.21497  -3.19400
H    -0.19861  -1.09200   1.66898
H     1.55747  -2.52980   2.63652
H     3.43676  -3.35950   1.21071
H     3.52648  -2.70867  -1.19948
H     1.77135  -1.26497  -2.16845
