35
Generated by autodE on: 2022-12-31. E = -3323.009965 Ha
C    -2.94153  -2.89309   0.56378
N    -2.04686  -1.80272   0.22448
C    -1.04767  -1.96451  -0.65183
O    -0.80248  -3.03060  -1.21513
C    -0.18479  -0.71214  -0.94222
Br   -0.87761  -0.03224  -2.72013
C    -0.27821   0.32782   0.05284
C     0.03199   0.99325   1.01771
C     0.91387   1.43692   2.11887
O     1.63666   2.59354   1.76724
C     0.84857   3.73664   1.46026
O     0.10437   1.65595   3.25342
C     0.79006   1.96595   4.46224
C     1.94775   0.30366   2.30865
C     2.64793  -0.20060   1.02883
C     2.01545  -1.38462   0.24358
C     1.30421  -1.07750  -1.09396
H    -2.37896  -3.75750   0.94875
H    -3.51567  -3.22433  -0.31612
H    -3.64036  -2.55018   1.33581
H    -2.17926  -0.89755   0.66548
H     1.54488   4.53687   1.17648
H     0.25200   4.06276   2.32698
H     0.16723   3.53527   0.61475
H     1.55878   2.73902   4.30542
H     1.25980   1.07400   4.90864
H     0.03451   2.35303   5.15973
H     1.43214  -0.52590   2.81666
H     2.70800   0.69410   3.00154
H     2.82168   0.65157   0.35152
H     3.64940  -0.52973   1.34420
H     2.83222  -2.07572  -0.01404
H     1.34479  -1.96098   0.90369
H     1.81489  -0.24753  -1.60261
H     1.34810  -1.95486  -1.75374
