69
Generated by autodE on: 2022-12-31. E = -4072.234468 Ha. Imaginary frequency = -274.0 cm-1
C     7.68917 -15.37679  -9.22639
N     8.29338 -14.42102  -8.31576
C     7.64273 -13.31603  -7.94245
O     6.54833 -12.98510  -8.40620
C     8.30373 -12.30820  -6.97945
Br   10.05428 -13.03211  -6.19586
C     8.68938 -11.10482  -7.87850
C     9.51443  -9.95141  -7.30519
C     8.76714  -8.77808  -6.66595
C     8.34256  -8.90231  -5.20360
C     7.00057  -9.58485  -4.88219
O     6.02925  -9.02558  -5.72877
C     4.78232  -9.70556  -5.84107
O     6.71797  -9.30137  -3.51278
C     6.09616  -8.06519  -3.21245
C     7.05919 -11.08241  -5.03816
C     7.45782 -11.97262  -5.82999
C     6.39368 -14.02471  -4.62356
C     5.64422 -14.51696  -5.80055
C     4.47449 -13.74027  -6.36989
O     5.98382 -15.55838  -6.37411
C     7.39951 -14.93712  -4.02710
C     7.33621 -15.21961  -2.64561
C     8.21713 -16.12249  -2.04791
C     9.17725 -16.78403  -2.81869
C     9.23509 -16.53610  -4.19468
C     8.35854 -15.63004  -4.79051
N     5.75644 -13.12037  -3.77444
C     4.30845 -13.32079  -3.52364
C     6.44453 -12.07029  -3.21971
C     7.88635 -12.23063  -2.79718
C     5.62044 -11.14061  -2.32981
C     6.20666 -10.74152  -0.99961
O     4.47565 -10.82217  -2.61993
H     6.77834 -15.81036  -8.78664
H     7.42140 -14.89276 -10.17755
H     8.41018 -16.17901  -9.42408
H     9.16827 -14.65373  -7.85736
H     7.73762 -10.72355  -8.28049
H     9.23667 -11.53978  -8.72940
H    10.27468 -10.33692  -6.60776
H    10.07837  -9.54327  -8.15885
H     7.89334  -8.50895  -7.28019
H     9.44469  -7.91035  -6.71397
H     8.25014  -7.88529  -4.79246
H     9.11809  -9.41184  -4.61166
H     4.85870 -10.54367  -6.55207
H     4.05834  -8.97429  -6.22727
H     4.43364 -10.08302  -4.86881
H     6.17530  -7.93385  -2.12441
H     5.03075  -8.06339  -3.49460
H     6.59529  -7.21410  -3.70407
H     4.52351 -13.82381  -7.46112
H     4.46419 -12.68362  -6.08583
H     3.53571 -14.20881  -6.03712
H     6.57164 -14.73553  -2.03607
H     8.14371 -16.31617  -0.97490
H     9.86794 -17.49207  -2.35459
H     9.97607 -17.04941  -4.81273
H     8.42240 -15.45058  -5.85789
H     4.11992 -13.23371  -2.44744
H     3.66848 -12.60833  -4.04975
H     4.05674 -14.34370  -3.81443
H     8.47690 -12.78166  -3.53154
H     7.93782 -12.77135  -1.83759
H     8.34251 -11.24300  -2.66288
H     5.51313 -10.05364  -0.49966
H     6.33026 -11.64643  -0.38089
H     7.19382 -10.27483  -1.09647
