43
Generated by autodE on: 2022-06-02. E = -1304.307028 Ha
C    -0.80445   3.44184   3.43201
O    -0.63412   2.08718   2.96861
C     0.05583   1.90930   1.86033
O     0.61500   2.77351   1.22447
C     0.11750   0.42812   1.44166
C    -0.82445  -0.45453   2.30793
C    -0.26413  -1.03193   3.56587
O    -1.95145  -0.66501   1.90481
N     1.52474   0.01269   1.54776
N     1.71046  -0.86983   0.44388
C     2.24091  -2.06832   0.69869
N     2.76678  -3.08921   0.90102
C     0.71058  -0.62113  -0.54449
C    -0.21996   0.21094  -0.04346
C    -1.40586   0.86968  -0.74128
C    -2.23848   1.64054   0.20913
N    -2.90730   2.30836   0.87825
C    -2.33792  -0.15703  -1.25573
N    -3.10086  -0.94459  -1.63091
C    -0.96257   1.92985  -1.84774
C     0.37659   1.71389  -2.54505
C     0.46644   0.58522  -3.56995
C     0.09581  -0.81887  -3.10416
C     0.88801  -1.36526  -1.87093
C     0.44221  -2.76141  -1.65275
N     0.04436  -3.83735  -1.49239
C     2.32602  -1.37466  -2.22402
N     3.43895  -1.35166  -2.54276
H     0.17560   3.89674   3.62926
H    -1.39091   3.36796   4.35366
H    -1.34640   4.02289   2.67341
H     0.32640  -0.28631   4.11644
H     0.42380  -1.85036   3.29115
H    -1.07729  -1.43153   4.18526
H     2.11955   0.82359   1.35017
H    -0.90349   2.88637  -1.31345
H    -1.78867   2.00433  -2.56936
H     0.58426   2.65598  -3.07687
H     1.17555   1.62842  -1.79319
H     1.48881   0.57245  -3.97967
H    -0.20365   0.80841  -4.41565
H    -0.96999  -0.91085  -2.87786
H     0.28966  -1.53145  -3.91815
