19
Generated by autodE on: 2022-06-02. E = -622.997052 Ha
C     3.37040  -0.19981  -0.07300
O     1.94211  -0.35376  -0.11789
C     1.22146   0.76083  -0.06353
O     1.70141   1.87680   0.00237
C    -0.23858   0.51534  -0.10730
N    -0.81233  -0.65314   0.13195
N    -0.27765  -1.79556   0.44160
C    -1.12815  -2.78980   0.64382
N    -1.76499  -3.75161   0.84804
C    -1.25976   1.56814  -0.41455
C    -0.83766   2.96382  -0.74146
O    -2.44094   1.23211  -0.39871
H     3.67064   0.30090   0.85835
H     3.71773   0.38750  -0.93496
H     3.77997  -1.21525  -0.11147
H    -1.85109  -0.55941   0.05221
H    -1.72405   3.54099  -1.03257
H    -0.09109   2.96421  -1.54942
H    -0.35538   3.42364   0.13420
