19
Generated by autodE on: 2022-07-27. E = -622.994533 Ha
C    -1.13329   3.07696   1.88518
O    -1.25662   1.84895   1.14435
C    -0.13306   1.26958   0.77337
O     0.97986   1.71126   1.01956
C    -0.29242  -0.00538   0.00386
N     0.90242  -0.48227  -0.31610
N     1.20630  -1.56061  -0.97605
C     2.49802  -1.78916  -1.14702
N     3.60366  -2.10727  -1.36704
C    -1.59010  -0.65001  -0.35109
C    -1.58803  -1.92763  -1.13970
O    -2.63799  -0.13020   0.00491
H    -2.15912   3.39889   2.09492
H    -0.60785   3.83192   1.28361
H    -0.58518   2.90167   2.82153
H     1.66196   0.13722   0.03981
H    -1.04208  -2.71716  -0.60152
H    -1.07257  -1.79264  -2.10242
H    -2.63086  -2.22838  -1.30262
