43
Generated by autodE on: 2022-06-02. E = -1304.224366 Ha. Imaginary frequency = -247.1 cm-1
C    -1.43899   2.54977   4.20939
O    -1.41912   1.41341   3.32630
C    -0.25044   1.06962   2.82820
O     0.81278   1.59082   3.10360
C    -0.31577  -0.11134   1.89431
C    -1.62701  -0.73620   1.47452
C    -1.71482  -2.22705   1.32259
O    -2.58935  -0.01203   1.28853
N     0.84260  -0.76622   1.87089
N     1.07452  -1.63189   0.89924
C     2.24957  -2.25415   0.92112
N     3.23334  -2.88043   0.84659
C     0.63526  -0.48377  -0.78147
C    -0.03559   0.49136  -0.39276
C    -0.78796   1.68201  -0.88585
C     0.13931   2.51940  -1.68052
N     0.86076   3.15347  -2.32877
C    -1.30595   2.55292   0.19287
N    -1.71825   3.28414   0.98995
C    -2.00685   1.22802  -1.77706
C    -1.68950   0.64919  -3.15651
C    -1.02127  -0.73136  -3.27510
C     0.51782  -0.75686  -3.26146
C     1.14159  -1.29323  -1.92351
C     0.76593  -2.71490  -1.75302
N     0.43077  -3.81831  -1.64679
C     2.61231  -1.18882  -2.02545
N     3.75710  -1.05984  -2.14531
H    -2.49141   2.70166   4.47167
H    -1.04005   3.43194   3.69155
H    -0.84288   2.33771   5.10789
H    -1.08178  -2.76184   2.04323
H    -1.38284  -2.50884   0.31122
H    -2.76825  -2.51484   1.43828
H     1.63533  -0.29121   2.33088
H    -2.63224   2.12197  -1.91490
H    -2.57450   0.51469  -1.16394
H    -2.67159   0.57656  -3.64950
H    -1.11872   1.38530  -3.74660
H    -1.43105  -1.41748  -2.51532
H    -1.33089  -1.14963  -4.24357
H     0.93755   0.24717  -3.41760
H     0.90856  -1.40271  -4.06000
