27
Generated by autodE on: 2022-05-30. E = -744.685981 Ha
C     4.35454   0.39585  -0.14114
C     3.18250  -0.47293   0.25842
O     3.36992  -1.59661   0.74764
C     1.87154   0.07511   0.02945
C     1.54313   1.29949  -0.60128
O     2.14976   2.24408  -1.07143
O     0.10740   1.30142  -0.64790
C    -0.35426   0.18343  -0.08739
C    -1.79292  -0.03473  -0.02229
C    -2.63247   1.08993   0.10679
C    -4.01509   0.92627   0.14506
C    -4.57483  -0.35225   0.04359
C    -3.74646  -1.46896  -0.10503
C    -2.36076  -1.31800  -0.14130
N     0.64738  -0.56342   0.34185
C     0.52489  -1.78719   1.13482
H     4.32786   1.36196   0.38620
H     4.32508   0.62186  -1.21847
H     5.28450  -0.13520   0.10074
H    -2.19255   2.08489   0.18712
H    -4.66003   1.80046   0.25526
H    -5.65948  -0.47758   0.07224
H    -4.18126  -2.46555  -0.20491
H    -1.72838  -2.19182  -0.29602
H     0.70544  -2.66894   0.50704
H    -0.47894  -1.83250   1.56750
H     1.27185  -1.75853   1.93243
