41
Generated by autodE on: 2022-06-18. E = -770.195717 Ha
C     3.19543   0.95578  -1.80329
N     2.07930   0.70749  -0.91739
C     2.14704  -0.18113   0.08629
O     3.18618  -0.79416   0.37600
C     0.80994  -0.44163   0.81356
C     1.08121  -0.89441   2.25378
C     0.02079  -1.48739  -0.03250
C     0.38839  -2.94337   0.21371
C    -1.44450  -1.12888   0.24476
C    -2.43206  -1.75621  -0.73112
C    -1.42995   0.43211   0.34935
C    -2.46773   0.90191   1.38036
C    -1.70097   1.07550  -1.03867
C    -3.11285   1.39908  -1.44361
O    -0.77124   1.34391  -1.78681
N    -0.05718   0.72260   0.73233
C     0.25392   1.91993   1.46822
H     2.96008   1.81088  -2.45015
H     4.10528   1.18864  -1.22897
H     3.41887   0.08368  -2.44269
H     1.14822   1.08207  -1.12285
H     0.14035  -1.16990   2.75224
H     1.54691  -0.07951   2.82828
H     1.76343  -1.75327   2.28728
H     0.21767  -1.25544  -1.09202
H     1.47140  -3.09862   0.09035
H     0.10842  -3.27016   1.22694
H    -0.12546  -3.59976  -0.50481
H    -1.69233  -1.48618   1.25835
H    -2.22313  -1.46345  -1.77297
H    -2.36888  -2.85347  -0.67658
H    -3.47023  -1.47774  -0.49537
H    -2.53060   1.99815   1.43996
H    -3.46755   0.51779   1.13420
H    -2.19196   0.51638   2.37255
H    -3.42253   2.31185  -0.90665
H    -3.82217   0.60961  -1.16456
H    -3.15545   1.59331  -2.52348
H    -0.22229   2.79433   0.99432
H    -0.05909   1.90572   2.53185
H     1.34003   2.09964   1.44868
