12
Generated by autodE on: 2022-06-18. E = -157.300303 Ha
C    -1.96018   0.05867  -0.10871
C    -0.51718   0.41893   0.07556
C     0.51718  -0.41896  -0.07550
C     1.96018  -0.05865   0.10867
H    -2.53795   0.23497   0.81607
H    -2.43229   0.68233  -0.88858
H    -2.08400  -0.99803  -0.39356
H    -0.30957   1.46033   0.35896
H     0.30957  -1.46037  -0.35888
H     2.53773  -0.23418  -0.81641
H     2.08394   0.99786   0.39424
H     2.43257  -0.68283   0.88795
