29
Generated by autodE on: 2022-06-18. E = -612.821169 Ha
C     3.10688   0.66344   1.73019
N     2.44316  -0.08146   0.67890
C     1.35427   0.42584   0.06165
O     1.00230   1.60011   0.22210
C     0.69603  -0.46662  -0.94967
C     1.54242  -1.33665  -1.82787
N    -0.60221  -0.33923  -1.19508
C    -1.12211  -0.92164  -2.44910
C    -1.53835   0.17030  -0.29067
C    -2.77054   0.84218  -0.83631
C    -1.38398  -0.12343   1.08571
C    -2.55977   0.19307   1.99773
O    -0.36266  -0.66202   1.59441
H     3.41896   1.65287   1.36614
H     2.44339   0.81401   2.59915
H     3.99681   0.10944   2.05407
H     2.59047  -1.08456   0.63998
H     2.57766  -1.36530  -1.47204
H     1.16023  -2.36960  -1.87046
H     1.56495  -0.95904  -2.86478
H    -2.19594  -0.74287  -2.52123
H    -0.94913  -2.00612  -2.44687
H    -0.61410  -0.47890  -3.31549
H    -3.10120   1.63770  -0.15270
H    -2.56692   1.32738  -1.80226
H    -3.63473   0.16625  -0.97890
H    -2.64197   1.28263   2.15244
H    -2.38287  -0.28063   2.97307
H    -3.52398  -0.15219   1.59486
