41
Generated by autodE on: 2022-06-18. E = -770.096041 Ha. Imaginary frequency = -287.0 cm-1
C     2.77400   1.38934  -2.19601
N     2.24451   1.07849  -0.88250
C     1.58255  -0.08967  -0.67493
O     1.70877  -1.05331  -1.43463
C     0.99213  -0.19124   0.73059
C     2.12061  -0.58301   1.65646
C    -0.30625  -2.06434   0.58818
C    -0.43487  -2.44490   2.04254
C    -1.42820  -1.67386  -0.11323
C    -1.55529  -1.80604  -1.60177
C    -1.20681   0.89272   0.59033
C    -2.37339   1.16675   1.50729
C    -1.35297   1.07228  -0.81895
C    -2.74351   1.37932  -1.35795
O    -0.40756   1.04046  -1.64182
N     0.02443   0.65795   1.19841
C     0.13635   1.06556   2.61401
H     3.35788   2.31740  -2.14039
H     3.43166   0.58013  -2.54174
H     1.96794   1.51917  -2.93925
H     1.92895   1.86594  -0.32501
H     1.78062  -0.90616   2.64666
H     2.83534   0.24704   1.79473
H     2.67235  -1.41330   1.19360
H     0.50695  -2.52657   0.02210
H     0.52507  -2.46454   2.57476
H    -1.11401  -1.76245   2.57723
H    -0.86282  -3.45974   2.12993
H    -2.35325  -1.51455   0.44965
H    -0.64482  -1.47439  -2.12041
H    -1.72155  -2.86459  -1.87620
H    -2.40604  -1.23735  -2.00151
H    -2.42609   2.21575   1.85246
H    -3.31564   0.95752   0.98920
H    -2.35449   0.52569   2.39986
H    -3.10618   2.35206  -0.98686
H    -3.48770   0.62223  -1.07005
H    -2.68247   1.42148  -2.45355
H    -0.46510   1.96331   2.77973
H    -0.19921   0.27683   3.30117
H     1.17714   1.31961   2.83803
