15
Generated by autodE on: 2022-06-17. E = -562.480047 Ha
C    -3.70194   0.59695  -0.62257
N    -2.32937   0.12994  -0.57709
C    -1.37383   0.74908   0.12321
O    -1.49826   1.76665   0.80451
C    -0.00568   0.11910   0.06060
C     1.04498   0.77205   0.76136
N     1.84098   1.37799   1.35496
O     0.11994  -0.96268  -0.62145
N     1.15205  -1.78398  -0.87524
C     2.31320  -1.47538  -0.30702
N     3.41425  -1.39997   0.09072
H    -4.00141   0.80618  -1.66049
H    -4.38185  -0.16283  -0.20782
H    -3.78705   1.51550  -0.03141
H    -2.08475  -0.70771  -1.09938
