18
Generated by autodE on: 2022-06-01. E = -547.735318 Ha
C     0.17332   2.50263   0.42070
C    -0.88551   1.43949   0.40466
O    -2.05561   1.70817   0.64795
C    -0.52084   0.03285   0.08944
N     0.70602  -0.38479  -0.18538
N     1.81732   0.28598  -0.24190
C     2.89912  -0.41392  -0.54459
N     3.92743  -0.91215  -0.80186
C    -1.48453  -1.12173   0.03662
C    -2.93982  -0.92703   0.31125
O    -1.02524  -2.22722  -0.23955
H    -0.30326   3.45917   0.67032
H     0.95580   2.26123   1.15597
H     0.67415   2.56782  -0.55715
H     0.70151  -1.41490  -0.37242
H    -3.44614  -1.89570   0.21325
H    -3.08611  -0.51561   1.32069
H    -3.36705  -0.19496  -0.38939
