21
Generated by autodE on: 2022-06-01. E = -1062.615867 Ha
N    -2.81132   2.15274  -1.75931
C    -2.06663   1.31781  -1.45604
C    -1.15216   0.24675  -1.04977
Cl   -0.73112  -0.67527  -2.59622
C     0.08026   0.72289  -0.44667
C     1.03490   0.74658   0.29642
C     1.81435   0.26933   1.44528
F     3.16017   0.33671   1.22177
F     1.57242   1.08358   2.52350
C     1.40220  -1.16347   1.76344
C    -0.11502  -1.40488   1.88022
C    -0.90137  -1.77373   0.59101
C    -1.82904  -0.71413  -0.03112
H     1.90288  -1.40720   2.71401
H     1.83991  -1.80518   0.98340
H    -0.23109  -2.24557   2.57930
H    -0.58452  -0.54190   2.38086
H    -1.55970  -2.61799   0.84243
H    -0.21455  -2.15875  -0.18018
H    -2.26497  -0.07672   0.75494
H    -2.66326  -1.19361  -0.56358
