39
Generated by autodE on: 2022-06-01. E = -1610.342594 Ha. Imaginary frequency = -296.0 cm-1
C     1.90295   2.39754  -2.20912
C     0.84812   1.37657  -2.48620
O     0.82914   0.66346  -3.47381
C    -0.28624   1.24459  -1.48685
C    -0.56434   2.37601  -0.49609
C    -1.32672   3.53311  -1.07767
O    -0.13566   2.35756   0.63591
N    -1.24966   0.43101  -1.90126
N    -2.19825  -0.10295  -1.14190
C    -2.84190   0.71588  -0.31165
N    -3.50528   1.37530   0.39037
C    -0.73546  -1.00597   0.31193
C     0.35025  -0.42789   0.14898
C     1.77374  -0.46965   0.53429
Cl    2.81048  -0.64223  -1.00066
C     2.25489   0.74914   1.19300
N     2.71105   1.65195   1.75912
C     2.08845  -1.71233   1.40610
C     1.50947  -1.72926   2.82565
C    -0.01578  -1.72591   3.02436
C    -0.80361  -2.70040   2.12871
C    -1.56923  -2.00599   1.01151
F    -2.67871  -1.38775   1.53880
F    -2.05086  -2.92987   0.12608
H     2.16199   2.44110  -1.14279
H     1.49524   3.38584  -2.48607
H     2.79050   2.19360  -2.81981
H    -1.62574   4.21621  -0.27234
H    -2.20152   3.19437  -1.65064
H    -0.66356   4.06152  -1.78426
H    -0.98896  -0.14119  -2.71633
H     3.18333  -1.77801   1.48150
H     1.74965  -2.58241   0.82602
H     1.93909  -0.89394   3.40238
H     1.91393  -2.64874   3.28021
H    -0.20162  -1.98459   4.07710
H    -0.41353  -0.70643   2.90155
H    -1.56031  -3.25609   2.70262
H    -0.14297  -3.44359   1.65846
