33
Generated by autodE on: 2022-06-05. E = -711.073032 Ha
C     1.62874  -2.39026  -3.24830
O     1.68896  -1.22520  -2.40450
C     0.89723  -1.21042  -1.34138
O     0.14156  -2.09879  -1.02559
C     0.99828   0.13617  -0.58866
C     2.37206   0.65685  -0.65866
N     3.44070   1.10597  -0.69514
C     0.52674   0.00723   0.79024
C    -0.29071   0.08326   1.68204
C    -1.51367   0.38214   2.43237
C    -1.95992  -0.79862   3.30839
C    -1.30569   1.63399   3.30486
C    -2.57875   0.65004   1.31881
C    -2.16535   1.56300   0.14566
C    -1.47523   0.90969  -1.08554
C     0.02761   1.16412  -1.30357
H     0.61576  -2.50587  -3.65852
H     1.90239  -3.28648  -2.67442
H     2.35096  -2.21417  -4.05285
H    -2.93196  -0.57132   3.77331
H    -1.23111  -0.99041   4.11085
H    -2.06816  -1.71616   2.71044
H    -0.51349   1.46421   4.04981
H    -1.02283   2.50632   2.69741
H    -2.23903   1.86997   3.83949
H    -3.45528   1.08610   1.82639
H    -2.90342  -0.32300   0.91449
H    -1.55024   2.40021   0.51604
H    -3.09351   2.02827  -0.22089
H    -1.67840  -0.17323  -1.10289
H    -1.96485   1.31102  -1.98614
H     0.27104   1.13177  -2.37585
H     0.30046   2.16444  -0.93587
