23
Generated by autodE on: 2022-06-25. E = -351.521384 Ha
C     3.67676   0.87340   0.13380
C     2.58226   0.08150   0.10467
C     2.70115  -1.42083   0.13614
C     1.25011   0.67933   0.04078
C     0.07798  -0.00315   0.00525
C    -1.21881   0.63947  -0.05839
C    -2.43050   0.02984  -0.10017
C    -2.63172  -1.45891  -0.08850
C    -3.69598   0.83731  -0.16442
H     4.68508   0.45281   0.18166
H     3.58690   1.96387   0.11079
H     2.24507  -1.87449  -0.75952
H     2.17168  -1.84319   1.00634
H     3.75288  -1.73619   0.18532
H     1.21760   1.77538   0.02072
H     0.10225  -1.09611   0.02492
H    -1.20403   1.73603  -0.07378
H    -3.18607  -1.77610  -0.98947
H    -3.25601  -1.75344   0.77358
H    -1.69578  -2.03053  -0.04421
H    -4.27683   0.58330  -1.06938
H    -3.49933   1.91950  -0.16946
H    -4.35227   0.60526   0.69365
