34
Generated by autodE on: 2022-07-27. E = -840.564114 Ha
C    -0.36423   0.43962   2.90043
N    -0.55786  -0.96645   2.60470
C    -0.71795  -1.54194   1.38771
O    -1.11182  -2.71401   1.26813
C    -0.48742  -0.67145   0.20785
O     0.56460   0.13304   0.12637
C     1.75420   0.09756   0.68556
C     2.25357  -1.08062   1.41980
C     2.60998   1.24136   0.34557
O     3.79460   1.28847   0.72621
N     2.04980   2.23109  -0.39079
C     2.81654   3.38571  -0.80617
C    -1.42835  -0.54609  -0.88594
C    -2.70440  -1.15800  -0.84102
C    -3.60555  -0.99705  -1.89081
C    -3.27103  -0.22246  -3.00815
C    -2.01171   0.38685  -3.06632
C    -1.09695   0.22282  -2.02913
H     0.70168   0.72007   2.96334
H    -0.84212   1.06622   2.13503
H    -0.83189   0.66553   3.86776
H    -0.68340  -1.60292   3.38866
H     1.91641  -1.14187   2.46927
H     1.89400  -2.00092   0.92257
H     3.35054  -1.05582   1.41482
H     1.07485   2.15518  -0.65827
H     2.16948   4.04849  -1.39367
H     3.68085   3.09651  -1.42614
H     3.20126   3.94733   0.06096
H    -2.98312  -1.76294   0.02141
H    -4.58457  -1.47898  -1.83366
H    -3.98226  -0.10000  -3.82798
H    -1.73444   0.98733  -3.93619
H    -0.11172   0.68627  -2.09676
