34
Generated by autodE on: 2022-06-25. E = -840.566191 Ha
C    -2.18442   3.54412  -0.70801
N    -1.31603   2.39638  -0.56355
C    -1.81601   1.17077  -0.27239
O    -3.03993   0.96406  -0.18257
C    -0.82788   0.09165  -0.08185
O     0.41012   0.53500  -0.16827
C     1.61626   0.05110  -0.29182
C     1.87026  -1.39495  -0.48492
C     2.60099   1.14617  -0.36058
O     2.24945   2.34148  -0.37748
N     3.90557   0.78967  -0.40559
C     4.95426   1.78694  -0.45553
C    -1.19288  -1.25526   0.34798
C    -0.52215  -1.87200   1.42723
C    -0.90698  -3.13680   1.87375
C    -1.96953  -3.80845   1.26188
C    -2.65388  -3.19925   0.20280
C    -2.27530  -1.93671  -0.24937
H    -2.72076   3.77701   0.22779
H    -2.94066   3.37535  -1.49097
H    -1.57834   4.41447  -0.98869
H    -0.30816   2.52413  -0.57664
H     2.85250  -1.55511  -0.94777
H     1.10437  -1.82126  -1.15327
H     1.83287  -1.97760   0.45331
H     4.16652  -0.18481  -0.31140
H     4.81823   2.46048  -1.31590
H     4.97118   2.40763   0.45613
H     5.92168   1.27965  -0.55391
H     0.28048  -1.34029   1.94069
H    -0.37840  -3.59534   2.71278
H    -2.26780  -4.79953   1.61143
H    -3.48586  -3.71739  -0.28018
H    -2.80588  -1.47124  -1.07973
