31
Generated by autodE on: 2022-06-17. E = -767.208020 Ha
C     3.16154  -1.97357   1.16396
O     2.78109  -0.89315   0.29622
C     1.47855  -0.73646   0.06236
O     0.62078  -1.45611   0.53232
C     1.19317   0.47899  -0.83217
C     2.03207   0.44105  -2.10086
C     1.33501   1.76605  -0.00021
C     0.01822   1.79388   0.77621
C    -0.98071   1.11289  -0.18814
C    -1.90890   2.10129  -0.89307
C    -1.84466   0.07413   0.53504
O    -2.12057   0.11839   1.71709
O    -2.32365  -0.84767  -0.29898
C    -3.14422  -1.87368   0.27659
O    -0.18420   0.45889  -1.19375
H     4.25411  -1.93110   1.23783
H     2.84519  -2.93622   0.73776
H     2.70658  -1.84417   2.15643
H     1.85557  -0.49198  -2.65688
H     1.75564   1.29286  -2.73879
H     3.10054   0.50865  -1.85687
H     2.22374   1.76167   0.64429
H     1.41013   2.61513  -0.69589
H     0.09987   1.21990   1.70851
H    -0.30381   2.81064   1.03590
H    -2.49342   1.58453  -1.66819
H    -2.60132   2.56068  -0.17228
H    -1.30743   2.89228  -1.36524
H    -4.02844  -1.43703   0.76279
H    -2.56720  -2.45002   1.01458
H    -3.44829  -2.52074  -0.55430
