25
Generated by autodE on: 2022-07-27. E = -688.453111 Ha
C     2.84296  -1.93835   1.13473
O     2.45095  -1.10277   0.04263
C     1.32362  -0.37464   0.21857
O     0.65901  -0.43067   1.25305
C     1.09758   0.51321  -0.89271
C     2.10050   0.78081  -1.96177
O     0.08619   1.37659  -0.85391
C    -1.05071   1.40438  -0.20680
C    -1.71403   2.73176  -0.12936
C    -1.74048   0.21333   0.29720
O    -2.62215   0.27788   1.14116
O    -1.42183  -0.90879  -0.35624
C    -2.04326  -2.11743   0.09401
H     2.04684  -2.65652   1.38232
H     3.74073  -2.47237   0.80097
H     3.07461  -1.33645   2.02639
H     1.85474   1.72687  -2.46496
H     2.10371  -0.01769  -2.72493
H     3.12200   0.84312  -1.55477
H    -2.79471   2.65502  -0.32333
H    -1.59450   3.17051   0.87874
H    -1.25328   3.41961  -0.85236
H    -3.13249  -2.07399  -0.05224
H    -1.82250  -2.28640   1.15777
H    -1.61279  -2.92232  -0.51305
