31
Generated by autodE on: 2022-06-17. E = -767.083137 Ha. Imaginary frequency = -175.6 cm-1
C     2.81461  -2.16298   1.05332
O     2.42526  -1.35154  -0.05721
C     1.21145  -0.75531   0.03300
O     0.46758  -0.94177   0.99211
C     0.99765   0.13296  -1.09041
C     1.97941   0.28376  -2.20447
C     1.61712   1.99673   0.75270
C     0.36976   2.29047   1.18346
C    -1.15796   1.08198  -0.49457
C    -2.01714   2.21260  -0.95816
C    -1.81718   0.04393   0.33967
O    -2.41205   0.28245   1.37474
O    -1.84458  -1.13991  -0.28244
C    -2.43867  -2.22867   0.43690
O    -0.12687   0.81385  -1.26045
H     3.80686  -2.55923   0.80614
H     2.10513  -2.99059   1.20236
H     2.86810  -1.56466   1.97542
H     2.01867  -0.61466  -2.84565
H     1.69330   1.14120  -2.82910
H     2.99454   0.44994  -1.81490
H     2.24153   1.25258   1.25246
H     2.09338   2.57288  -0.04553
H    -0.07946   1.77878   2.03758
H    -0.17394   3.15175   0.78984
H    -2.79286   1.86217  -1.66454
H    -2.53536   2.65579  -0.09566
H    -1.41010   2.98320  -1.45199
H    -3.50345  -2.03167   0.62807
H    -1.91568  -2.38430   1.39113
H    -2.32672  -3.11127  -0.20352
