33
Generated by autodE on: 2022-06-17. E = -815.638144 Ha
C     4.05511  -0.18478   0.63803
N     2.63125  -0.25510   0.36945
C     2.04681   0.48401  -0.57610
O     2.63426   1.25933  -1.33227
C     0.50401   0.37247  -0.63060
C     0.07388   0.61019  -2.02941
N    -0.32230   0.72613  -3.11347
C    -0.12031   1.41849   0.34295
C    -0.10259   2.85696  -0.14477
C    -1.51863   0.84237   0.58830
C    -2.25194   1.38557   1.80172
C    -1.25435  -0.70806   0.60457
C    -1.08553  -1.24043   1.97909
N    -0.91030  -1.64709   3.05025
C    -2.40341  -1.40334  -0.01668
N    -3.29390  -1.93961  -0.52926
N     0.00068  -0.89157  -0.12494
C     0.18839  -2.10696  -0.90220
H     4.32212   0.74949   1.15868
H     4.62316  -0.22781  -0.30243
H     4.34149  -1.03555   1.26811
H     2.02923  -0.84448   0.93929
H     0.45963   1.33270   1.27521
H     0.92239   3.17386  -0.38546
H    -0.49122   3.52417   0.63787
H    -0.72595   2.98212  -1.04346
H    -2.12333   1.02380  -0.31395
H    -3.20763   0.86015   1.95006
H    -1.64831   1.28217   2.71590
H    -2.47257   2.45222   1.65347
H     1.23890  -2.17816  -1.21437
H    -0.45058  -2.14175  -1.80323
H    -0.03836  -2.97931  -0.27252
