12
Generated by autodE on: 2022-06-17. E = -157.300302 Ha
C    -1.93793  -0.09702  -0.30468
C    -0.45023  -0.19846  -0.45452
C     0.45024   0.19853   0.45449
C     1.93793   0.09696   0.30470
H    -2.38034   0.51710  -1.10919
H    -2.41650  -1.08975  -0.37870
H    -2.22164   0.34888   0.66164
H    -0.08620  -0.63631  -1.39459
H     0.08621   0.63642   1.39454
H     2.41670   1.08951   0.37974
H     2.22165  -0.34809  -0.66200
H     2.38011  -0.51805   1.10867
