21
Generated by autodE on: 2022-06-17. E = -658.269926 Ha
C     3.74184  -0.37391   0.46115
N     2.50726  -0.58395  -0.27377
C     1.31769  -0.49030   0.33354
O     1.17081  -0.20711   1.52394
C     0.11570  -0.83422  -0.50948
C     0.21972  -1.94715  -1.37672
N     0.38889  -2.86054  -2.08259
N    -1.06908  -0.23520  -0.32912
C    -2.31020  -0.90243  -0.78883
C    -1.23692   0.97940   0.27411
C    -0.17815   1.90001   0.44035
N     0.65863   2.70497   0.54833
C    -2.53148   1.40466   0.65294
N    -3.58180   1.79274   0.97972
H     4.58587  -0.48750  -0.22858
H     3.84307  -1.10553   1.27749
H     3.76743   0.63555   0.89952
H     2.55074  -0.78665  -1.26855
H    -2.91240  -1.15037   0.09516
H    -2.05671  -1.82051  -1.32359
H    -2.86170  -0.21986  -1.44536
