33
Generated by autodE on: 2022-06-17. E = -815.552871 Ha. Imaginary frequency = -372.2 cm-1
C     4.06272   0.02578   1.05078
N     2.63711  -0.04128   0.78665
C     2.15544   0.07337  -0.46204
O     2.87766   0.29194  -1.43903
C     0.65067  -0.00481  -0.63927
C     0.25556   0.50864  -1.91713
N    -0.02597   0.92221  -2.96737
C    -0.18649   1.72477   0.62949
C    -0.47864   2.84000  -0.33337
C    -1.20427   1.09055   1.35287
C    -0.93809   0.48870   2.70050
C    -1.44463  -0.84417   0.09542
C    -2.15041  -1.78616   0.90048
N    -2.75168  -2.49224   1.60463
C    -2.28050  -0.18484  -0.86053
N    -3.03291   0.35015  -1.56952
N    -0.08834  -1.03914  -0.10626
C     0.54713  -2.16608   0.60055
H     4.46980   1.01945   0.80351
H     4.60493  -0.72346   0.45417
H     4.23216  -0.17432   2.11557
H     1.99840  -0.10134   1.57276
H     0.79236   1.76206   1.11255
H     0.36222   3.02502  -1.01677
H    -0.64974   3.77358   0.23133
H    -1.38163   2.64420  -0.92990
H    -2.23532   1.39409   1.14704
H    -1.68771  -0.26120   2.99036
H     0.06188   0.03184   2.75048
H    -0.97001   1.28735   3.46389
H     1.53632  -2.34697   0.17283
H    -0.06251  -3.06254   0.43692
H     0.63090  -1.97672   1.67907
