58
Generated by autodE on: 2022-06-06. E = -1268.191833 Ha
C    -2.92231   1.64263  -4.28295
N    -2.03643   1.21686  -3.22024
C    -2.45419   0.43790  -2.21145
O    -3.60499  -0.00968  -2.12992
C    -1.39590   0.13779  -1.17225
N    -0.34181   0.84851  -1.13666
C     0.60275   0.39729  -0.10810
C     1.83672  -0.10880  -0.89960
C     1.62905  -0.90193  -2.04239
C     2.70070  -1.39484  -2.78671
C     4.01487  -1.09982  -2.41092
C     4.23687  -0.30063  -1.28883
C     3.15910   0.19367  -0.54563
C     0.96291   1.59658   0.77996
C     0.52426   2.88614   0.44250
C     0.85601   3.99352   1.22965
C     1.63906   3.83701   2.37457
C     2.08823   2.55941   2.72089
C     1.75477   1.45643   1.93254
C    -0.17957  -0.80963   0.67791
C     0.74028  -2.03220   0.79217
C     1.75725  -2.07992   1.91104
O     0.72125  -2.94623  -0.01529
C    -0.75561  -0.41509   2.07391
C    -1.44764  -1.65872   2.69242
C    -2.77592  -1.77108   1.89374
C    -2.64616  -0.63064   0.86968
C    -1.97038   0.45348   1.71712
C    -1.52928  -0.98516  -0.17117
C    -1.82068  -2.30109  -0.90558
H    -2.33286   2.14098  -5.06193
H    -3.69036   2.34361  -3.91572
H    -3.43950   0.77774  -4.72509
H    -1.08570   1.57071  -3.16714
H     0.61563  -1.14340  -2.36057
H     2.50534  -2.01210  -3.66681
H     4.85630  -1.48424  -2.99218
H     5.25583  -0.04924  -0.98499
H     3.36899   0.82381   0.31612
H    -0.08700   3.02565  -0.44721
H     0.49619   4.98407   0.94074
H     1.89800   4.70061   2.99163
H     2.70353   2.41489   3.61203
H     2.12128   0.47578   2.22723
H     1.42565  -1.60854   2.84269
H     2.65849  -1.54839   1.56352
H     2.03640  -3.12702   2.08841
H    -0.02441   0.04370   2.74264
H    -1.63451  -1.48017   3.76141
H    -0.83864  -2.57145   2.62454
H    -3.64597  -1.58346   2.54052
H    -2.92031  -2.75609   1.43217
H    -3.58494  -0.35795   0.37408
H    -1.72254   1.37029   1.16775
H    -2.56085   0.72748   2.60442
H    -1.72889  -3.16858  -0.24384
H    -2.84858  -2.26368  -1.29275
H    -1.14018  -2.45643  -1.75235
