58
Generated by autodE on: 2022-06-06. E = -1268.128187 Ha. Imaginary frequency = -180.7 cm-1
C    -3.52976   1.10854  -4.21520
N    -2.43275   0.59199  -3.41564
C    -2.08042   1.16300  -2.25590
O    -2.63302   2.15381  -1.76171
C    -0.99931   0.50182  -1.48683
N     0.16346   0.83347  -1.34500
C     1.32094   0.89758  -0.74225
C     2.46376   0.19426  -1.34550
C     2.23326  -0.87580  -2.23566
C     3.29854  -1.55479  -2.82367
C     4.61656  -1.18125  -2.54035
C     4.85825  -0.10999  -1.67383
C     3.79598   0.57529  -1.08448
C     1.41242   1.83804   0.39626
C     0.55337   2.95370   0.45663
C     0.57569   3.81113   1.55630
C     1.45865   3.57754   2.61535
C     2.31970   2.47633   2.56321
C     2.30151   1.61496   1.46587
C    -0.50372  -1.06190   0.85866
C     0.67756  -1.87988   0.82720
C     1.56251  -1.87332   2.06010
O     0.98891  -2.62055  -0.13196
C    -0.99898  -0.28820   2.07992
C    -1.98542  -1.25338   2.80904
C    -3.15998  -1.36108   1.79109
C    -2.72798  -0.39047   0.64427
C    -2.00303   0.69728   1.45112
C    -1.56119  -1.07556  -0.06943
C    -1.83149  -2.13532  -1.10091
H    -3.36410   2.16548  -4.47281
H    -4.48701   1.03246  -3.67530
H    -3.59589   0.52425  -5.14038
H    -1.96015  -0.26127  -3.69990
H     1.21066  -1.17200  -2.46777
H     3.09813  -2.38369  -3.50644
H     5.45096  -1.71575  -3.00013
H     5.88313   0.20315  -1.46180
H     4.00582   1.42555  -0.43675
H    -0.13738   3.14594  -0.36626
H    -0.09879   4.67005   1.58283
H     1.47683   4.25011   3.47585
H     3.00787   2.27863   3.38830
H     2.96073   0.74832   1.45482
H     1.05545  -2.40532   2.88328
H     2.50725  -2.38765   1.83635
H     1.76872  -0.85592   2.41909
H    -0.22317   0.14429   2.72320
H    -2.32250  -0.81721   3.76272
H    -1.51809  -2.22411   3.02856
H    -4.10741  -1.01497   2.23052
H    -3.31901  -2.38501   1.42321
H    -3.54841  -0.07633  -0.01451
H    -1.54255   1.47042   0.82686
H    -2.65021   1.18143   2.19862
H    -2.15595  -3.06375  -0.59770
H    -2.63949  -1.82658  -1.78008
H    -0.93758  -2.37868  -1.68520
