24
Generated by autodE on: 2022-06-17. E = -555.975399 Ha
C    -4.43282   0.72756  -0.18402
C    -2.91987   0.66562  -0.14020
O    -2.23502   1.71004  -0.21247
C    -2.34169  -0.64113  -0.01431
C    -3.10510  -1.93366   0.07117
N    -1.00713  -0.65442   0.02122
C     0.14919  -0.47159   0.03492
C     1.53533  -0.21473   0.05873
C     1.97309   1.12893  -0.01124
C     3.33723   1.40392   0.01033
C     4.27118   0.36432   0.10123
C     3.83416  -0.96402   0.17050
C     2.47486  -1.26598   0.14977
H    -4.82787   0.14678  -1.03351
H    -4.87329   0.29627   0.72972
H    -4.75144   1.77415  -0.28088
H    -2.41384  -2.78132   0.17994
H    -3.71498  -2.11276  -0.83078
H    -3.79151  -1.94873   0.93461
H     1.23416   1.92899  -0.08153
H     3.67521   2.44106  -0.04381
H     5.33957   0.58941   0.11800
H     4.56109  -1.77612   0.24127
H     2.12932  -2.29931   0.20288
