38
Generated by autodE on: 2022-06-17. E = -826.662844 Ha. Imaginary frequency = -278.8 cm-1
C     3.63615  -0.12345  -1.86626
C     2.19350   0.13773  -1.54360
O     1.28261  -0.12256  -2.32917
C     1.90463   0.72531  -0.20507
C     2.97771   1.23437   0.70224
N     0.63929   0.94616   0.03318
C    -0.45751   0.50473   0.32776
C    -1.81495   0.98692   0.13605
C    -2.63525   1.33267   1.22335
C    -3.94142   1.76533   0.98948
C    -4.44236   1.82777  -0.31498
C    -3.62842   1.47036  -1.39602
C    -2.31501   1.05603  -1.17884
C    -0.17374  -1.49124   1.01435
C    -1.11456  -1.47972   2.20070
C    -0.72512  -2.19533  -0.21073
C     1.20401  -1.51772   1.30091
C     2.24192  -2.03394   0.47699
O     3.44472  -2.10773   0.81152
H     4.21501   0.81273  -1.82030
H     4.07166  -0.80949  -1.12116
H     3.71429  -0.56111  -2.86960
H     3.58297   2.01732   0.21705
H     2.54357   1.63712   1.62629
H     3.65479   0.40399   0.96321
H    -2.24225   1.27925   2.23907
H    -4.57349   2.05021   1.83339
H    -5.46922   2.15635  -0.49015
H    -4.01627   1.52133  -2.41583
H    -1.66569   0.78064  -2.01191
H    -1.18867  -2.50596   2.60135
H    -2.13018  -1.17083   1.91858
H    -0.75045  -0.82761   3.00811
H    -0.10193  -2.05029  -1.10143
H    -0.79839  -3.27799  -0.00829
H    -1.73999  -1.83860  -0.44019
H     1.52680  -1.14516   2.27981
H     1.93525  -2.43091  -0.51598
