41
Generated by autodE on: 2022-06-19. E = -1015.380308 Ha
C     3.87950   0.71139   2.33225
O     3.14507   0.07918   1.27242
C     1.86692   0.42012   1.13579
O     1.27022   1.14211   1.90210
C     1.21201  -0.26436  -0.08418
C     2.14758  -1.40245  -0.55397
C     2.13235  -2.67916   0.23304
O     2.83830  -1.24720  -1.54253
N    -0.07688  -0.80004   0.34461
C    -1.04395  -0.13092  -0.17481
C    -2.44502  -0.54278   0.08890
C    -3.54619   0.30970  -0.11060
C    -4.84528  -0.12828   0.15881
C    -5.07105  -1.42575   0.62366
C    -3.98505  -2.28619   0.82316
C    -2.68887  -1.84865   0.56145
C    -0.63188   1.04555  -1.07510
C    -0.84269   2.39881  -0.36563
C    -1.32217   1.03511  -2.44511
C     0.89101   0.71125  -1.23917
C     1.77328   1.90792  -1.41539
O     2.66735   2.23690  -0.66226
H     3.41429   0.49469   3.30393
H     3.90790   1.79803   2.16713
H     4.89094   0.29227   2.28962
H     3.04389  -3.25460   0.02392
H     1.25796  -3.26845  -0.08999
H     2.02082  -2.49830   1.31047
H    -3.40498   1.32871  -0.46371
H    -5.68458   0.55315   0.00303
H    -6.08845  -1.76745   0.82800
H    -4.15095  -3.30482   1.18153
H    -1.84316  -2.51947   0.71261
H    -0.48428   3.21774  -1.00847
H    -0.29695   2.43528   0.58590
H    -1.90443   2.58774  -0.16128
H    -1.25821   0.04015  -2.91159
H    -0.82434   1.75750  -3.11056
H    -2.38054   1.31981  -2.37777
H     1.00018   0.14527  -2.17783
H     1.55802   2.50710  -2.33020
