14
Generated by autodE on: 2022-06-19. E = -270.687343 Ha
C    -2.08829   0.98859   0.46452
C    -0.97350   0.06170   0.08519
C    -1.41224  -1.30722  -0.34132
C     0.31648   0.48573   0.14262
C     1.48770  -0.30246  -0.19830
O     2.63612   0.12938  -0.13123
H    -1.72341   1.97706   0.77574
H    -2.78229   1.11315  -0.38479
H    -2.68319   0.55057   1.28462
H    -0.59285  -1.98054  -0.61773
H    -2.10071  -1.22069  -1.19909
H    -1.99288  -1.77567   0.47144
H     0.52989   1.50897   0.46974
H     1.31542  -1.34870  -0.53646
