27
Generated by autodE on: 2022-06-19. E = -744.637555 Ha
C    -3.39606   2.16419   0.98065
O    -2.33865   1.27950   0.60175
C    -2.70296   0.02740   0.23125
O    -3.87350  -0.33311   0.21709
C    -1.55827  -0.78351  -0.12842
N    -0.33227  -0.21619  -0.04921
C     0.77172   0.14291  -0.02788
C     2.11896   0.57048   0.00382
C     2.43057   1.91445   0.29766
C     3.76627   2.30625   0.32344
C     4.78123   1.37918   0.05837
C     4.46485   0.04716  -0.23437
C     3.13723  -0.37008  -0.26297
C    -1.55375  -2.16588  -0.57008
C    -2.86915  -2.89511  -0.69334
O    -0.48609  -2.73660  -0.83967
H    -2.91633   3.11607   1.23888
H    -4.10106   2.31299   0.14911
H    -3.94360   1.77216   1.85084
H     1.62900   2.62601   0.50001
H     4.01753   3.34408   0.55093
H     5.82577   1.69693   0.07996
H     5.25931  -0.67280  -0.44041
H     2.87163  -1.40407  -0.48777
H    -2.66920  -3.91641  -1.04398
H    -3.54016  -2.38046  -1.39696
H    -3.39175  -2.92667   0.27439
