57
Generated by autodE on: 2022-06-23. E = -1026.544333 Ha
C    -1.96171   2.72162  -0.52903
C    -1.78510   1.50156  -1.05725
C    -2.51179   1.06099  -2.29914
C    -0.86696   0.46565  -0.44540
C    -1.49822  -0.36921   0.69195
C    -2.61881  -1.27295   0.23207
C    -3.95123  -0.92951   0.49541
C    -5.00295  -1.70848   0.00174
C    -4.73172  -2.85047  -0.75722
C    -3.40290  -3.20715  -1.01725
C    -2.35618  -2.42319  -0.52776
N    -0.34128  -1.07681   1.21000
C    -0.54827  -1.89761   2.37807
C     0.85351  -0.20850   1.17718
C     1.20073   0.38154   2.55540
C     2.04737  -0.97568   0.59347
C     1.84995  -2.11312  -0.20219
C     2.92791  -2.78061  -0.79284
C     4.23320  -2.32139  -0.59792
C     4.44607  -1.18967   0.19595
C     3.36581  -0.52724   0.78491
C     0.40360   0.98448   0.24130
C     1.43302   1.49824  -0.71302
C     2.04579   2.69611  -0.68961
C     1.81089   3.75905   0.35014
C     3.06083   3.06365  -1.73978
H    -2.65463   3.43634  -0.98355
H    -1.42913   3.05356   0.36581
H    -3.08122   0.13500  -2.11408
H    -3.20508   1.83141  -2.66766
H    -1.79050   0.82602  -3.10141
H    -0.57374  -0.24733  -1.23381
H    -1.92354   0.34255   1.43417
H    -4.16421  -0.03587   1.08783
H    -6.03665  -1.42391   0.21350
H    -5.55074  -3.46315  -1.14178
H    -3.18241  -4.10060  -1.60688
H    -1.32111  -2.69969  -0.73589
H    -0.86418  -1.33242   3.28052
H     0.37666  -2.44098   2.62614
H    -1.32599  -2.65026   2.17379
H     1.62093  -0.37355   3.23598
H     0.29745   0.80704   3.01760
H     1.93235   1.19617   2.45718
H     0.83168  -2.47075  -0.34912
H     2.74434  -3.66561  -1.40774
H     5.07765  -2.84040  -1.05803
H     5.46098  -0.81785   0.35858
H     3.55957   0.35863   1.39017
H     0.09996   1.78956   0.92036
H     1.70077   0.80765  -1.52080
H     1.06906   3.47587   1.10765
H     1.47514   4.69658  -0.12682
H     2.75451   3.99934   0.87088
H     3.20237   2.25937  -2.47705
H     2.75897   3.98019  -2.27738
H     4.03920   3.28608  -1.27753
