23
Generated by autodE on: 2022-06-23. E = -351.521381 Ha
C    -3.57869   1.17473  -0.33531
C    -2.56519   0.31115  -0.10533
C    -2.82916  -1.12402   0.27259
C    -1.18027   0.76396  -0.21998
C    -0.07872   0.00122  -0.00643
C     1.27498   0.50167  -0.13224
C     2.42447  -0.19011   0.07230
C     3.76204   0.47250  -0.09986
C     2.48495  -1.63599   0.47603
H    -3.38349   2.21626  -0.60885
H    -4.62385   0.86301  -0.25577
H    -3.90751  -1.33052   0.32358
H    -2.38359  -1.36555   1.25195
H    -2.37790  -1.81661  -0.45724
H    -1.04176   1.81473  -0.50191
H    -0.20933  -1.04693   0.27600
H     1.36442   1.55522  -0.42371
H     4.34660   0.42344   0.83646
H     3.66909   1.52735  -0.39722
H     4.36405  -0.05368  -0.86248
H     1.49911  -2.10078   0.60494
H     3.04450  -2.21944  -0.27652
H     3.04276  -1.74477   1.42291
