34
Generated by autodE on: 2022-07-27. E = -674.955887 Ha
C     0.25861   2.07994   1.52113
C     0.80825   0.91958   0.75833
C     2.25778   0.75910   0.63313
C     2.90555   0.39193  -0.57259
C     4.29521   0.30287  -0.65053
C     5.09321   0.58826   0.46275
C     4.47592   0.97360   1.65861
C     3.08743   1.06027   1.74248
N    -0.08728   0.07649   0.18644
C     0.38697  -1.19330  -0.40079
C    -1.43796   0.27015   0.27502
C    -2.50502  -0.44021  -0.37611
C    -3.81104  -0.24778   0.16743
C    -4.93798  -0.84145  -0.38758
C    -4.82961  -1.66309  -1.51981
C    -3.56472  -1.85257  -2.08621
C    -2.42695  -1.25608  -1.54120
H    -0.35664   1.76714   2.38708
H    -0.40752   2.68958   0.87992
H     1.06243   2.72987   1.88423
H     2.31735   0.20999  -1.47192
H     4.76028   0.02353  -1.59946
H     6.18144   0.51983   0.39705
H     5.08215   1.20143   2.53913
H     2.62866   1.34531   2.69125
H    -0.35521  -1.97004  -0.19455
H     1.33233  -1.47690   0.06834
H     0.53303  -1.10785  -1.48329
H    -1.74541   1.06545   0.94566
H    -3.91752   0.38406   1.05340
H    -5.91560  -0.66716   0.07030
H    -5.71339  -2.13456  -1.95514
H    -3.45751  -2.46870  -2.98334
H    -1.47920  -1.40099  -2.05466
