34
Generated by autodE on: 2022-06-23. E = -674.959023 Ha
C    -0.06202   0.08589  -1.86047
C    -0.65212  -0.52773  -0.64011
C    -2.01219  -0.20615  -0.21484
C    -3.02928   0.08750  -1.15590
C    -4.32289   0.40520  -0.74706
C    -4.65060   0.45227   0.61370
C    -3.65585   0.18488   1.56071
C    -2.35932  -0.13032   1.15710
N     0.12313  -1.37131   0.09396
C    -0.48366  -2.48482   0.84889
C     1.48666  -1.36050   0.08853
C     2.33893  -0.21071   0.03189
C     1.90843   1.13376   0.21369
C     2.82566   2.18579   0.24543
C     4.19458   1.95701   0.07401
C     4.64105   0.63762  -0.10783
C     3.73976  -0.41941  -0.12554
H     0.47671   1.03625  -1.66837
H    -0.84277   0.30839  -2.59969
H     0.68263  -0.59759  -2.30374
H    -2.80842   0.04352  -2.22344
H    -5.08684   0.61336  -1.50048
H    -5.66507   0.70416   0.93084
H    -3.88704   0.23866   2.62767
H    -1.59318  -0.29272   1.91605
H     0.09539  -3.39123   0.62239
H    -0.43446  -2.30217   1.93027
H    -1.52141  -2.63831   0.53712
H     1.95141  -2.33292   0.26032
H     0.85336   1.34755   0.38732
H     2.45934   3.20373   0.40483
H     4.90334   2.78805   0.08267
H     5.70798   0.43593  -0.23709
H     4.10448  -1.44134  -0.26075
