43
Generated by autodE on: 2022-06-19. E = -958.555826 Ha
C    -5.07009   2.53006   0.37906
O    -3.66510   2.32671   0.15779
C    -3.29520   1.14364  -0.33220
O    -4.07184   0.25346  -0.61496
C    -1.78943   1.05413  -0.48890
C    -1.07033   1.13047   0.87799
C     0.04361   0.06110   0.80702
C     0.43556  -0.46792   2.18227
C     1.22052   0.59910   0.02253
C     2.52171   0.37718   0.29315
C     3.60242   0.90850  -0.52026
C     4.93051   0.71969  -0.32960
C     5.93595   1.32890  -1.26599
C     5.52179  -0.08785   0.79129
C    -0.69953  -1.02899  -0.09081
C    -1.65919  -1.80230   0.72707
N    -2.46875  -2.38482   1.32177
C     0.33292  -2.02857  -0.66350
C     0.74986  -1.87492  -2.09052
O     0.75931  -2.90199   0.06867
N    -1.37354  -0.21577  -1.08665
H    -5.45384   1.79659   1.10263
H    -5.62415   2.43741  -0.56602
H    -5.16931   3.54556   0.77906
H    -1.49111   1.90091  -1.12945
H    -0.66469   2.12969   1.08007
H    -1.76367   0.87247   1.69131
H    -0.45118  -0.79145   2.74499
H     1.12216  -1.32207   2.10764
H     0.93325   0.32700   2.75640
H     0.96934   1.20918  -0.85146
H     2.79239  -0.23775   1.15460
H     3.29324   1.51879  -1.37722
H     6.62931   1.99170  -0.71787
H     6.56351   0.54619  -1.72864
H     5.45811   1.91094  -2.06762
H     4.77308  -0.52680   1.46316
H     6.20083   0.53908   1.39571
H     6.14164  -0.90666   0.38549
H    -0.10579  -2.14094  -2.73414
H     1.00999  -0.83433  -2.32265
H     1.59263  -2.54619  -2.30011
H    -2.15368  -0.70350  -1.52466
