20
Generated by autodE on: 2022-07-27. E = -606.988340 Ha
C    -3.23186   1.91422   2.01346
O    -2.69937   1.64071   0.71012
C    -1.63503   0.82929   0.65796
O    -1.10793   0.33134   1.63698
C    -1.24313   0.59303  -0.73039
N    -0.15589  -0.03803  -1.10375
C     0.97389  -0.54701  -0.54396
C     1.40712  -0.37661   0.78674
N     1.91943  -0.28202   1.83170
C     1.82779  -1.22151  -1.52994
C     3.13098  -1.80457  -1.06882
O     1.45068  -1.28230  -2.70528
H    -2.47408   2.40164   2.64419
H    -3.56375   0.98326   2.49623
H    -4.08409   2.58514   1.85686
H    -1.91497   0.90296  -1.52986
H    -0.09093  -0.23136  -2.12262
H     2.96357  -2.52141  -0.24950
H     3.62838  -2.30567  -1.90827
H     3.78284  -1.00931  -0.67265
