20
Generated by autodE on: 2022-06-19. E = -606.997760 Ha
C     4.48067   0.59270  -0.24303
O     3.28965  -0.06537   0.21484
C     2.13022   0.41805  -0.23239
O     2.01911   1.36599  -0.99372
C     0.99090  -0.32995   0.30545
N    -0.19832   0.06229  -0.06813
C    -1.44651  -0.37931   0.22768
C    -1.63157  -1.47063   1.09814
N    -1.78396  -2.37598   1.81976
C    -2.53121   0.35845  -0.41355
C    -3.94001  -0.07306  -0.12240
O    -2.25999   1.30190  -1.16284
H     4.47581   1.64902   0.06242
H     5.31696   0.06422   0.22808
H     4.55679   0.52837  -1.33818
H     1.11240  -1.17190   0.98661
H    -0.23177   0.87009  -0.71857
H    -4.64447   0.56482  -0.67055
H    -4.08472  -1.12550  -0.41516
H    -4.14206  -0.00734   0.95894
