43
Generated by autodE on: 2022-06-19. E = -958.511634 Ha. Imaginary frequency = -437.4 cm-1
C    -4.40846   1.06245   2.25004
O    -3.90888   0.95224   0.90887
C    -3.04116  -0.03386   0.67319
O    -2.69378  -0.84346   1.50870
C    -2.59115  -0.02887  -0.75042
C    -1.60823   1.74255  -0.91221
C    -0.47346   1.73578  -0.08467
C    -0.61848   2.03294   1.37837
C     0.80875   1.39786  -0.61866
C     1.96307   1.29962   0.11416
C     3.22500   0.92702  -0.46569
C     4.40817   0.76125   0.18891
C     5.64320   0.35225  -0.55822
C     4.59059   0.94945   1.66582
C    -0.59404  -1.50755  -0.71451
C    -0.11194  -1.36632   0.59265
N     0.43001  -1.27654   1.62820
C     0.23241  -2.14304  -1.72300
C     1.60124  -2.63109  -1.32581
O    -0.18361  -2.24348  -2.89161
N    -1.79195  -1.01875  -1.19977
H    -3.57949   1.22569   2.95348
H    -4.95545   0.15125   2.53149
H    -5.08271   1.92625   2.24977
H    -3.39354   0.22228  -1.44798
H    -2.46985   2.33492  -0.59504
H    -1.44786   1.68831  -1.99250
H    -0.34970   1.14342   1.97406
H    -1.64341   2.33195   1.63314
H     0.06718   2.83796   1.68821
H     0.85114   1.18261  -1.69185
H     1.92586   1.50360   1.18604
H     3.21789   0.74804  -1.54716
H     6.44778   1.09687  -0.42049
H     6.03968  -0.60014  -0.16226
H     5.45768   0.23230  -1.63543
H     3.66935   1.22454   2.19466
H     4.98428   0.02278   2.11952
H     5.34797   1.72950   1.85980
H     1.54461  -3.33797  -0.48361
H     2.07934  -3.11773  -2.18551
H     2.22278  -1.78309  -0.99448
H    -1.83536  -1.20543  -2.20703
