19
Generated by autodE on: 2022-05-29. E = -585.885022 Ha
C     3.87329  -0.70021   0.49010
O     2.64742  -0.04914   0.12763
C     1.51654  -0.71647   0.37546
O     1.47106  -1.83262   0.87992
C     0.32497   0.02356  -0.01571
C     0.38952   1.30013  -0.59981
N     0.48567   2.35821  -1.08563
N    -0.84173  -0.63680   0.23543
C    -2.11991  -0.36354   0.07893
C    -3.16458  -1.36107   0.46613
C    -2.54294   0.88302  -0.45808
N    -2.98645   1.87330  -0.88184
H     4.67454  -0.00333   0.21896
H     3.89685  -0.90360   1.57048
H     3.98737  -1.64336  -0.06358
H    -0.64007  -1.56115   0.64745
H    -3.85535  -0.92434   1.20474
H    -2.69744  -2.25747   0.89675
H    -3.75874  -1.65345  -0.41481
