19
Generated by autodE on: 2022-07-26. E = -585.877083 Ha
C     2.71962  -2.05374  -0.49802
O     1.70700  -1.53320   0.37143
C     0.75387  -0.77563  -0.20252
O     0.74678  -0.49303  -1.39275
C    -0.27310  -0.39665   0.75013
C    -0.35698  -1.02523   2.00947
N    -0.43001  -1.53827   3.05688
N    -1.31922   0.42396   0.39622
C    -1.43565   1.38009  -0.50540
C    -2.77287   1.98034  -0.79525
C    -0.29951   1.93165  -1.15789
N     0.55910   2.52987  -1.66907
H     3.26028  -1.23591  -0.99636
H     3.40321  -2.62242   0.14318
H     2.27756  -2.71466  -1.25822
H    -2.17827   0.26428   0.93431
H    -3.52258   1.61900  -0.07691
H    -2.71817   3.07873  -0.75377
H    -3.09757   1.70040  -1.81165
