17
Generated by autodE on: 2022-05-29. E = -831.765983 Ha
F     1.14596   1.89191  -0.22842
C     0.42720   0.79109  -0.45696
C     0.51289  -0.38751   0.17620
Cl    1.54964  -0.80018   1.49890
C    -0.68052  -1.21499  -0.27483
C    -1.93683  -0.55453   0.37908
C    -2.02345   0.82104  -0.34651
C    -0.80475   0.77911  -1.32964
C    -0.81616  -0.71238  -1.72917
H    -0.58250  -2.29569  -0.11637
H    -2.83021  -1.16674   0.18615
H    -1.81883  -0.46075   1.46799
H    -1.95843   1.67655   0.34052
H    -2.95856   0.91613  -0.91780
H    -0.81942   1.53002  -2.12932
H    -1.76088  -1.02013  -2.20210
H     0.03514  -0.99587  -2.36413
