39
Generated by autodE on: 2022-06-21. E = -1043.652134 Ha
C     4.69314  -0.22386   0.03485
N     3.29414  -0.60416   0.00773
C     2.34908   0.21069  -0.47612
O     2.58679   1.32015  -0.95876
C     0.91602  -0.34968  -0.43194
C     0.59895  -1.04886  -1.78309
C     1.01033  -0.34642  -3.03997
O     0.03503  -2.12527  -1.78459
N     0.78635  -1.32198   0.65034
C    -0.32057  -1.12855   1.25989
C    -0.72080  -1.98545   2.34582
N    -1.06331  -2.69837   3.19576
C    -1.21544  -0.03452   0.72206
C    -1.76081   0.84181   1.84703
N    -2.71205   1.71946   1.49886
O    -1.29864   0.75105   2.98872
C    -2.32060  -0.65779  -0.17644
C    -2.69683   0.25972  -1.29874
C    -1.90288   1.27588  -1.69590
N    -0.67227   1.58678  -1.14781
C    -0.19925   2.96160  -1.24354
C    -0.14626   0.77645  -0.08824
H     5.28724  -1.08151   0.37219
H     5.03385   0.07489  -0.96778
H     4.86793   0.62165   0.71989
H     2.99068  -1.46667   0.44938
H     0.49083  -0.79778  -3.89489
H     0.80990   0.73065  -2.97710
H     2.09803  -0.47192  -3.17335
H    -3.07948   1.75055   0.55052
H    -3.09672   2.34056   2.20473
H    -3.19375  -0.89835   0.45061
H    -1.95505  -1.62107  -0.56780
H    -3.63832   0.08923  -1.82322
H    -2.21140   1.94324  -2.50462
H     0.89545   2.98131  -1.18943
H    -0.61157   3.59678  -0.43739
H    -0.50896   3.38412  -2.20980
H     0.36704   1.43575   0.62490
