20
Generated by autodE on: 2022-06-21. E = -457.715331 Ha
C    -2.96227   1.14569   0.04665
N    -1.81239   0.25595   0.05560
C    -2.00210  -1.11745  -0.14267
C    -0.98137  -1.98197  -0.25530
C     0.46630  -1.56259  -0.18472
C     0.57395  -0.05825   0.00633
C     1.88212   0.61069   0.09545
N     2.97078  -0.19125  -0.01632
O     2.01630   1.84000   0.26401
C    -0.53488   0.72803   0.10486
H    -3.41830   1.20834  -0.95618
H    -3.72845   0.79184   0.75329
H    -2.64626   2.15168   0.35025
H    -3.04537  -1.43377  -0.19467
H    -1.21054  -3.04018  -0.40031
H     0.99966  -1.88493  -1.10250
H     0.97975  -2.10336   0.63669
H     3.89169   0.23079   0.03002
H     2.90311  -1.18975  -0.16554
H    -0.42762   1.80585   0.23759
