19
Generated by autodE on: 2022-06-21. E = -585.854939 Ha
C    -3.09603  -0.09089   0.74037
N    -2.44490   0.98286   0.01307
C    -1.15038   1.09567  -0.33554
O    -0.66289   2.15357  -0.75259
C    -0.27727  -0.12028  -0.19224
N     0.93638   0.11368   0.23582
C     2.02820   0.33558   0.61850
C     3.27806   0.57007   1.08470
N     4.36077   0.77194   1.48595
C    -0.59088  -1.45456  -0.72563
C     0.47002  -2.51722  -0.58823
O    -1.66466  -1.67167  -1.28121
H    -3.78502   0.34701   1.47668
H    -3.66578  -0.75829   0.07746
H    -2.35418  -0.68916   1.28435
H    -2.99236   1.82135  -0.16829
H     0.08054  -3.46606  -0.97770
H     0.76938  -2.63965   0.46480
H     1.37224  -2.23333  -1.15465
