39
Generated by autodE on: 2022-06-21. E = -1043.583961 Ha. Imaginary frequency = -309.0 cm-1
C     4.19850  -0.43418   1.30623
N     2.85755  -0.60118   0.78481
C     2.64685  -0.72032  -0.55038
O     3.57878  -0.73889  -1.36895
C     1.21643  -0.80787  -0.93362
C     0.66523  -0.45587  -2.22774
C     1.59063   0.10236  -3.28643
O    -0.54491  -0.60231  -2.47045
N     0.37666  -1.40188  -0.06578
C    -0.64443  -1.27578   0.58003
C    -1.52812  -2.16279   1.20826
N    -2.32813  -2.80407   1.76395
C    -1.23729   0.78812   1.06022
C    -0.40949   0.74480   2.30033
N    -1.06102   0.49947   3.45054
O     0.82614   0.89403   2.27129
C    -2.75280   0.71406   1.13775
C    -3.33237   0.72630  -0.25063
C    -2.65573   1.24184  -1.28683
N    -1.35431   1.75066  -1.13438
C    -0.76510   2.52282  -2.22194
C    -0.66970   1.49397  -0.01404
H     4.85826  -1.23415   0.94009
H     4.64655   0.53109   1.01079
H     4.16316  -0.48089   2.40249
H     2.08433  -0.24538   1.35519
H     0.97981   0.46912  -4.12182
H     2.26983  -0.68380  -3.64886
H     2.22263   0.91187  -2.89561
H    -2.06695   0.39124   3.49892
H    -0.52334   0.42836   4.30899
H    -3.07931  -0.19194   1.67314
H    -3.15362   1.56098   1.73212
H    -4.34165   0.34392  -0.41251
H    -3.05644   1.30419  -2.29862
H     0.32254   2.56354  -2.09116
H    -1.16579   3.54888  -2.22683
H    -0.99754   2.04374  -3.18091
H     0.35937   1.84885   0.03437
