30
Generated by autodE on: 2022-05-29. E = -3465.133534 Ha
C    -3.74616  -2.67830  -0.60298
N    -2.96605  -1.87271   0.31947
C    -1.68121  -1.58488   0.08759
O    -1.05012  -1.97273  -0.89876
C    -0.99061  -0.68655   1.13078
O     0.25567  -1.26525   1.54995
N     1.30577  -0.64594   0.79871
C     1.90954  -1.50966  -0.16651
O     2.48304  -1.01407  -1.13301
N     1.85951  -2.81529   0.13905
C     2.25145  -3.81458  -0.83768
C     0.77524   0.57626   0.30483
C     1.66358   1.61183  -0.27963
O     1.30088   2.41225  -1.11431
O     2.88254   1.57242   0.25641
C     3.84032   2.50643  -0.26513
C    -0.55267   0.61502   0.50073
Br   -1.77850   1.96037   0.10351
H    -4.79758  -2.65589  -0.29357
H    -3.66289  -2.28057  -1.62518
H    -3.39875  -3.72375  -0.61281
H    -3.39766  -1.55152   1.18112
H    -1.59981  -0.54765   2.03580
H     1.18974  -3.08214   0.85521
H     1.47373  -3.95535  -1.60751
H     2.42083  -4.77108  -0.32676
H     3.18202  -3.50900  -1.33279
H     4.76786   2.32624   0.28969
H     3.49573   3.53872  -0.10985
H     3.99636   2.32779  -1.33890
