20
Generated by autodE on: 2022-07-26. E = -586.069951 Ha
C    -3.36306  -0.94564  -0.41899
N    -2.42314  -0.55748   0.61501
C    -1.42617   0.30275   0.36314
O    -1.25725   0.88052  -0.71281
C    -0.58910   0.61326   1.56126
O     0.56790   1.14143   1.55103
N     1.43571   1.16462   0.47426
C     1.41975  -0.03582  -0.19696
O     0.77340  -1.05107   0.13538
N     2.26203  -0.03243  -1.26716
C     2.63594  -1.26645  -1.92575
H    -4.03168  -0.11116  -0.68557
H    -2.82571  -1.25595  -1.32780
H    -3.96800  -1.78322  -0.05310
H    -2.51156  -0.95572   1.54619
H    -1.03795   0.60533   2.56196
H     2.89863   0.75572  -1.33563
H     3.35607  -1.86522  -1.33928
H     1.74292  -1.88325  -2.09597
H     3.09136  -1.03317  -2.89742
