10
Generated by autodE on: 2022-05-29. E = -2878.922479 Ha
C    -4.24525   0.62432  -0.36830
O    -2.81756   0.72991  -0.22540
C    -2.13359  -0.41420  -0.24270
O    -2.62905  -1.51556  -0.37091
C    -0.71044  -0.18753  -0.08719
C     0.48974  -0.05690   0.04200
Br    2.25657   0.13931   0.23326
H    -4.62555   1.65103  -0.32904
H    -4.49860   0.15786  -1.33101
H    -4.66735   0.02730   0.45267
