24
Generated by autodE on: 2022-07-26. E = -667.424043 Ha
C     4.26649  -0.04525   0.14967
O     3.19146   0.23367  -0.75770
C     1.95310   0.20782  -0.24659
O     1.70929  -0.03985   0.92415
C     0.97496   0.60362  -1.25657
N    -0.32560   0.63538  -1.05115
C    -1.16192   0.13982  -0.10541
C    -0.85987  -1.03304   0.72949
C    -0.05075  -2.16350   0.13466
O    -1.38687  -1.17690   1.83119
C    -2.49159   0.75811  -0.19190
C    -3.58273   0.35514   0.75873
O    -2.69925   1.60663  -1.07178
H     4.14702  -1.04486   0.59243
H     4.29888   0.70723   0.95127
H     5.18429  -0.00183  -0.44767
H     1.33143   1.07094  -2.17368
H    -0.86844   1.22352  -1.70976
H     0.77400  -2.42605   0.81216
H     0.35317  -1.96006  -0.86554
H    -0.72603  -3.03239   0.07241
H    -4.51264   0.85722   0.46164
H    -3.72586  -0.73562   0.76415
H    -3.31426   0.64332   1.78593
