24
Generated by autodE on: 2022-05-31. E = -667.436054 Ha
C     4.69450   0.06987  -0.23562
O     3.38488  -0.43354  -0.53889
C     2.35489   0.20677   0.01601
O     2.45781   1.17478   0.75245
C     1.07399  -0.40149  -0.37126
N     0.00271   0.15787   0.12290
C    -1.34393  -0.06163   0.03611
C    -1.83214  -1.15893  -0.78537
C    -3.30781  -1.44042  -0.92807
O    -1.02371  -1.88127  -1.38812
C    -2.06734   0.92914   0.84675
C    -3.56547   0.93661   0.96102
O    -1.40719   1.78439   1.45797
H     4.79404   1.10981  -0.57904
H     4.88203   0.02240   0.84692
H     5.39802  -0.57673  -0.77209
H     1.00613  -1.26334  -1.02563
H     0.17407   0.97867   0.74121
H    -3.77127  -1.67007   0.04215
H    -3.42154  -2.30475  -1.59472
H    -3.84142  -0.58034  -1.35794
H    -4.03878   1.07134  -0.02199
H    -3.93549  -0.00976   1.38120
H    -3.85539   1.76455   1.61999
