39
Generated by autodE on: 2022-10-21. E = -1469.939871 Ha
C     3.56753  -0.84810  -2.28062
N     2.56153  -0.59402  -1.27088
C     2.72456   0.25906  -0.25761
O     3.72291   0.94201  -0.03156
C     1.45866   0.39787   0.64217
C     1.90247   0.82603   1.98977
N     2.19812   1.14252   3.06587
N     0.64923  -0.81838   0.66232
C    -0.77490  -0.49194   0.52904
C    -1.46383  -0.46954   1.92775
C    -2.84657   0.09688   2.04525
O    -0.84557  -0.89145   2.88700
C    -1.46031  -1.48663  -0.40856
C    -2.20556  -2.56516   0.08308
C    -2.75721  -3.50363  -0.79580
C    -2.56671  -3.37248  -2.17304
C    -1.81565  -2.30076  -2.66965
C    -1.26488  -1.36581  -1.79272
C    -0.74587   0.92592  -0.02445
O    -1.90608   1.39680  -0.46603
C    -2.05472   2.77214  -0.83920
C     0.50079   1.43064   0.06116
Cl    1.11235   2.99325  -0.36552
H     4.04549  -1.83008  -2.13345
H     4.33868  -0.07013  -2.22195
H     3.11355  -0.82863  -3.28198
H     1.69763  -1.13391  -1.25804
H     0.80760  -1.37156   1.50483
H    -3.30888  -0.25280   2.97770
H    -3.47105  -0.15026   1.17765
H    -2.76130   1.19629   2.08229
H    -2.35661  -2.69313   1.15734
H    -3.33588  -4.34045  -0.39802
H    -2.99940  -4.10400  -2.85942
H    -1.65792  -2.19329  -3.74536
H    -0.67059  -0.53814  -2.18611
H    -3.11580   2.89726  -1.08629
H    -1.43948   3.00649  -1.71874
H    -1.78858   3.43100  -0.00068
