31
Generated by autodE on: 2022-10-21. E = -818.297274 Ha
C     4.65246   2.07601   0.87907
N     3.32906   1.50859   1.04959
C     2.58065   1.14444  -0.00586
O     2.96379   1.26658  -1.18232
C     1.24212   0.57249   0.26658
C     0.72939   0.40840   1.56835
N     0.38965   0.31403   2.68270
N     0.56721   0.23783  -0.84933
C    -0.61503  -0.29430  -1.09783
C    -0.91096  -0.45869  -2.53323
C    -2.23141  -1.06961  -2.89787
O    -0.08402  -0.10170  -3.37552
C    -1.52708  -0.68648  -0.00154
C    -2.49199   0.21571   0.47243
C    -3.31092  -0.13802   1.54644
C    -3.17442  -1.39310   2.14829
C    -2.22296  -2.29964   1.66997
C    -1.40110  -1.94980   0.59717
H     5.07074   2.29739   1.86809
H     5.32411   1.37466   0.35900
H     4.61550   3.00790   0.29292
H     2.96490   1.38713   1.98894
H     1.11884   0.45522  -1.70306
H    -2.32143  -2.07068  -2.44666
H    -2.32327  -1.13879  -3.98906
H    -3.05460  -0.46338  -2.48729
H    -2.58564   1.19824   0.00503
H    -4.05497   0.57006   1.91816
H    -3.81290  -1.66622   2.99169
H    -2.11713  -3.28114   2.13751
H    -0.64794  -2.64820   0.22612
