8
Generated by autodE on: 2022-10-21. E = -651.547900 Ha
C    -2.88731  -0.07511  -0.10838
O    -1.80673   0.85797  -0.35707
C    -0.60601   0.40875  -0.15901
C     0.53057   0.02772   0.01573
Cl    2.08835  -0.48486   0.25084
H    -2.79126  -0.94412  -0.77579
H    -2.86742  -0.39732   0.94307
H    -3.81302   0.47105  -0.32341
