39
Generated by autodE on: 2022-06-18. E = -931.498948 Ha
C     3.52373  -1.56026   1.55049
N     2.74170  -0.64237   0.75248
C     1.97774  -1.05600  -0.26714
O     2.01020  -2.21335  -0.70609
C     1.07039   0.01477  -0.90887
C     1.33123   0.01930  -2.41840
N     1.31416   1.33847  -0.29974
C     0.05909   1.95438   0.12251
C    -0.56116   2.73827  -0.96813
N    -0.96362   3.34971  -1.86946
C    -0.80077   0.74199   0.53271
C    -2.28142   1.10584   0.62806
N    -3.14803   0.11529   0.37761
O    -2.62608   2.24510   0.96214
C    -0.34006   0.21369   1.91947
C    -0.45594  -1.27796   2.03415
C    -0.70018  -2.07044   0.97215
N    -0.88891  -1.59601  -0.31753
C    -1.05594  -2.52873  -1.41836
C    -0.46022  -0.25289  -0.60742
H     4.17927  -0.99096   2.22146
H     4.14358  -2.20206   0.90718
H     2.87508  -2.21452   2.15885
H     2.58663   0.31763   1.05055
H     2.38429   0.26672  -2.62611
H     1.11457  -0.96429  -2.85564
H     0.69121   0.77037  -2.90480
H     1.86635   1.94701  -0.90000
H     0.20877   2.64125   0.96891
H    -2.80979  -0.79968   0.08420
H    -4.14445   0.29181   0.46311
H     0.69616   0.54020   2.10178
H    -0.94094   0.71137   2.69874
H    -0.35620  -1.73373   3.02088
H    -0.80848  -3.15212   1.08314
H    -1.54126  -2.01337  -2.26062
H    -1.70823  -3.35669  -1.10391
H    -0.09827  -2.94781  -1.76805
H    -1.00265   0.07162  -1.50791
