19
Generated by autodE on: 2022-06-18. E = -473.729008 Ha
C     3.70678   0.48267   0.19941
N     2.34398   0.81710  -0.17468
C     1.41244  -0.13833   0.07660
O     1.77320  -1.26941   0.47865
C    -0.00950   0.16762  -0.11920
C    -0.56851   1.50171  -0.49417
N    -0.75056  -0.90776   0.16832
C    -2.07115  -1.17132   0.15755
C    -3.03977  -0.19894  -0.13070
N    -3.83249   0.65691  -0.24579
H     4.44079   1.28416   0.00372
H     3.84616   0.20400   1.26634
H     3.90614  -0.39284  -0.41275
H     2.10363   1.77876  -0.35298
H    -1.20262   1.92910   0.29623
H     0.30762   2.16876  -0.63052
H    -1.12094   1.50483  -1.43902
H    -0.14253  -1.68155   0.46913
H    -2.38131  -2.18105   0.40588
