39
Generated by autodE on: 2022-06-18. E = -931.434082 Ha. Imaginary frequency = -387.9 cm-1
C     3.46172  -2.37473  -0.58304
N     2.62771  -1.37063  -1.21188
C     2.04036  -0.39684  -0.48254
O     2.32420  -0.25292   0.71974
C     1.04457   0.45215  -1.19217
C     1.07348   0.51145  -2.69793
N     0.68797   1.63271  -0.57539
C     0.20918   1.62422   0.70100
C    -0.34629   2.82557   1.21922
N    -0.86186   3.77413   1.65986
C    -1.34020   0.09258   0.43912
C    -2.35162   1.07848  -0.00844
N    -2.31108   1.51382  -1.29656
O    -3.18575   1.54677   0.78554
C    -1.51770  -0.39074   1.87544
C    -0.69041  -1.61262   2.16638
C    -0.15712  -2.35916   1.18355
N    -0.26242  -2.02911  -0.16086
C    -0.04505  -3.04528  -1.17309
C    -0.73866  -0.77001  -0.53187
H     4.38389  -1.93248  -0.17414
H     3.73711  -3.12582  -1.33343
H     2.93335  -2.87431   0.24501
H     2.32215  -1.53250  -2.16309
H     0.27496   1.17061  -3.07004
H     2.03659   0.88761  -3.08440
H     0.89749  -0.47978  -3.13966
H     0.25045   2.31674  -1.19188
H     0.73489   0.99230   1.41228
H    -1.77165   1.05158  -2.01689
H    -3.04505   2.14635  -1.59786
H    -1.27798   0.42235   2.58395
H    -2.59048  -0.59922   2.05694
H    -0.54820  -1.92028   3.20423
H     0.39765  -3.27920   1.38483
H    -0.93807  -3.68149  -1.32145
H     0.79402  -3.69527  -0.88485
H     0.20073  -2.57363  -2.13288
H    -1.10630  -0.74643  -1.55764
