51
Generated by autodE on: 2022-06-04. E = -1486.373950 Ha
C     3.34252  -2.09667   2.65400
N     2.41407  -1.90685   1.56128
C     2.66046  -1.12146   0.51095
O     3.75681  -0.58314   0.29074
C     1.49211  -0.94817  -0.47673
N     0.30050  -1.70460  -0.13031
C    -0.80794  -0.84199   0.20975
C    -2.10400  -1.46105  -0.36012
O    -2.15630  -2.57482  -0.83071
O    -3.13210  -0.63399  -0.25568
C    -4.37519  -1.05813  -0.84116
C    -1.06715  -0.77476   1.74534
O    -1.95527  -0.12584   2.25334
O    -0.26580  -1.57237   2.43668
C    -0.38343  -1.53862   3.86859
C    -0.49156   0.59619  -0.41883
C    -1.32399   0.75963  -1.68122
O    -1.37952  -0.09038  -2.54938
O    -2.04998   1.87061  -1.68520
C    -2.88886   2.08950  -2.82945
C    -0.58091   1.75421   0.63248
C    -0.10527   3.06832   0.04074
C     1.22478   2.96657  -0.04471
C     1.54540   1.56654   0.44822
O     0.54296   1.37091   1.45083
C     1.06284   0.54274  -0.68735
C     1.50778   1.07358  -2.05351
C     2.91187   0.78106  -2.49863
O     0.76148   1.75285  -2.73780
H     3.23032  -3.10768   3.06981
H     3.16796  -1.36700   3.46325
H     4.37092  -1.97165   2.29188
H     1.44073  -2.18393   1.67865
H     1.88725  -1.34289  -1.42252
H     0.02090  -2.33180  -0.88000
H    -5.06959  -0.22218  -0.70502
H    -4.23009  -1.27027  -1.90956
H    -4.74800  -1.95621  -0.32937
H     0.37447  -2.23453   4.24546
H    -1.38861  -1.85806   4.17668
H    -0.18739  -0.52090   4.23417
H    -3.38359   3.05241  -2.66001
H    -2.27917   2.12696  -3.74323
H    -3.63437   1.28580  -2.91300
H    -1.51010   1.77227   1.20158
H    -0.75648   3.87848  -0.28067
H     1.94358   3.66346  -0.47421
H     2.54946   1.37173   0.82909
H     3.58896   0.61522  -1.65191
H     3.25977   1.59143  -3.15284
H     2.89661  -0.15063  -3.09041
