27
Generated by autodE on: 2022-06-04. E = -798.098869 Ha
C     5.29740  -0.68099  -0.41599
N     3.92426  -1.06085  -0.15042
C     2.91213  -0.18852  -0.28281
O     3.06485   0.99338  -0.63175
C     1.56701  -0.72238   0.02072
N     0.59383   0.13478  -0.10920
C    -0.76353   0.10148   0.05689
C    -1.38655  -1.13717   0.47972
O    -0.75498  -2.16878   0.70035
O    -2.72209  -1.08106   0.61659
C    -3.36856  -2.28603   1.03827
C    -1.36260   1.39981  -0.24001
O    -0.68192   2.36215  -0.59438
O    -2.68927   1.47463  -0.10205
C    -3.29084   2.74235  -0.39286
H     5.43716  -0.39895  -1.47210
H     5.59502   0.17768   0.20578
H     5.95159  -1.53018  -0.18660
H     3.71705  -2.01504   0.12859
H     1.37253  -1.74531   0.33041
H     0.91787   1.07422  -0.41084
H    -2.99960  -2.60452   2.02452
H    -4.43740  -2.04799   1.09629
H    -3.20197  -3.09543   0.31207
H    -2.89524   3.52315   0.27298
H    -3.10768   3.02959  -1.43858
H    -4.36548   2.60930  -0.22120
