27
Generated by autodE on: 2022-07-27. E = -798.078417 Ha
C     3.62441   1.08173   1.49670
N     2.54637   0.33310   0.88249
C     2.78375  -0.45127  -0.17429
O     3.89467  -0.54991  -0.72049
C     1.68749  -1.21357  -0.83957
N     0.40122  -1.01368  -0.96846
C    -0.60553  -0.24314  -0.40982
C    -1.72954  -0.15652  -1.34259
O    -1.70192  -0.71814  -2.43876
O    -2.77622   0.56371  -0.93612
C    -3.88739   0.64361  -1.83819
C    -0.63499   0.02881   1.00751
O     0.16205  -0.46133   1.81678
O    -1.62515   0.83408   1.40886
C    -1.74717   1.04921   2.82019
H     3.21144   1.69888   2.30407
H     4.11117   1.73731   0.75942
H     4.39737   0.41571   1.91652
H     1.67617   0.17345   1.40262
H     2.08505  -1.95505  -1.53485
H     0.00197  -1.51298  -1.78055
H    -4.63262   1.27325  -1.33805
H    -4.30472  -0.35532  -2.03129
H    -3.58295   1.10157  -2.79057
H    -2.61338   1.70935   2.94620
H    -0.84322   1.53156   3.21982
H    -1.91611   0.09929   3.34785
