51
Generated by autodE on: 2022-06-04. E = -1486.305710 Ha. Imaginary frequency = -266.0 cm-1
C     3.51271  -1.63137   2.71097
N     2.54835  -1.89145   1.66154
C     2.75420  -1.45091   0.41922
O     3.83608  -0.97308   0.03621
C     1.70208  -1.63105  -0.63181
N     0.42334  -2.04292  -0.60947
C    -0.70875  -1.60972   0.02682
C    -1.89617  -1.94497  -0.82022
O    -1.76418  -2.48305  -1.90919
O    -3.06590  -1.59227  -0.31437
C    -4.22030  -1.83906  -1.13554
C    -0.83678  -1.50149   1.49788
O    -0.09096  -2.05009   2.29610
O    -1.86950  -0.76575   1.88159
C    -2.10119  -0.65344   3.29533
C    -0.21613   0.71836  -0.42253
C    -1.51392   0.93173  -1.09715
O    -1.84883   0.57745  -2.21208
O    -2.33313   1.62354  -0.28415
C    -3.63658   1.93995  -0.78672
C     0.03617   1.48036   0.90851
C     0.34039   2.93691   0.50705
C     1.54865   2.88646  -0.06124
C     1.96161   1.40375   0.00924
O     1.34404   1.00467   1.24313
C     1.06924   0.61823  -0.99394
C     1.42301   0.43428  -2.41641
C     2.74833   1.00944  -2.84595
O     0.71080  -0.19124  -3.19697
H     3.53654  -0.55976   2.97460
H     4.52253  -1.92764   2.39382
H     3.23447  -2.20761   3.60229
H     1.59317  -2.14439   1.93091
H     2.19165  -1.90037  -1.56981
H     0.13018  -2.37041  -1.54163
H    -5.07650  -1.46656  -0.56297
H    -4.12654  -1.29793  -2.08664
H    -4.32660  -2.91576  -1.32838
H    -2.29820  -1.64376   3.72926
H    -2.97980  -0.00743   3.39892
H    -1.23050  -0.19959   3.78866
H    -4.12045   2.54105  -0.00823
H    -3.56236   2.51599  -1.72009
H    -4.21335   1.02240  -0.96782
H    -0.68662   1.31757   1.70935
H    -0.34566   3.77398   0.62610
H     2.13350   3.67569  -0.53189
H     3.02749   1.17428  -0.00516
H     2.90139   0.83462  -3.91850
H     2.79848   2.08844  -2.62945
H     3.55256   0.52395  -2.27026
