47
Generated by autodE on: 2022-06-09. E = -2071.143567 Ha
C    -1.57308   0.01303   2.86431
C    -0.41587  -0.11791   1.87835
C     0.31933  -1.38439   2.18139
N     0.93019  -2.31612   2.50191
O     0.45193   0.96892   2.21317
N     1.22472   1.27010   1.05530
C     2.56073   0.73557   1.17028
C     2.95590  -0.41603   0.48232
C     4.26791  -0.87805   0.61658
C     5.16685  -0.20945   1.45086
C     4.75636   0.93235   2.15103
C     3.45688   1.41385   2.00367
C     0.42459   0.88180  -0.04306
C    -0.62692   0.10268   0.33424
C    -1.72346  -0.56398  -0.51460
C    -3.15987  -0.40555   0.08464
F    -3.35137   0.84525   0.52929
F    -3.42505  -1.24448   1.09731
F    -4.10266  -0.64751  -0.83825
C    -1.40144  -2.08721  -0.61157
F    -1.35058  -2.68826   0.58608
F    -2.32162  -2.74515  -1.33210
F    -0.21305  -2.27304  -1.20063
C    -1.80689  -0.07111  -1.98955
C    -2.32724   1.33949  -2.26426
C    -1.59552   2.48569  -1.58140
C    -0.11482   2.61874  -1.90530
C     0.88417   1.55306  -1.33781
Cl    1.39398   0.29977  -2.60603
C     2.14570   2.29193  -1.14926
N     3.10806   2.93759  -1.11966
H    -1.12862   0.14335   3.86134
H    -2.19788  -0.88335   2.87976
H    -2.17570   0.89520   2.62111
H     2.24954  -0.95320  -0.15133
H     4.58131  -1.77241   0.07375
H     6.19011  -0.57630   1.55717
H     5.45780   1.45698   2.80335
H     3.12637   2.31492   2.52298
H    -0.82115  -0.20632  -2.43404
H    -2.46179  -0.77305  -2.51786
H    -2.26022   1.47665  -3.35607
H    -3.39684   1.40566  -2.01837
H    -2.05983   3.42936  -1.90877
H    -1.73573   2.45080  -0.49132
H     0.22562   3.57692  -1.48803
H     0.05829   2.66813  -2.99018
