20
Generated by autodE on: 2022-06-09. E = -532.614739 Ha
C    -3.04801   1.24326  -0.06244
C    -2.40349  -0.08223  -0.11055
C    -3.08614  -1.31355  -0.20863
N    -3.68735  -2.31201  -0.28983
O    -1.10412  -0.20676  -0.06492
N    -0.33993   0.87754   0.02367
C     0.99450   0.51261   0.06804
C     1.90942   1.58708   0.15246
C     3.27887   1.34310   0.20515
C     3.76636   0.03046   0.17547
C     2.86329  -1.03830   0.09206
C     1.49042  -0.81217   0.03836
H    -2.74897   1.76947   0.86232
H    -4.13928   1.14802  -0.10686
H    -2.68626   1.86423  -0.90214
H     1.51815   2.60617   0.17501
H     3.97343   2.18400   0.26997
H     4.84093  -0.15965   0.21726
H     3.23658  -2.06514   0.06916
H     0.79723  -1.65091  -0.02513
