20
Generated by autodE on: 2022-07-27. E = -532.610512 Ha
C    -2.04088   1.53001   2.56194
C    -1.93065   0.67804   1.35148
C    -3.04342   0.06752   0.72754
N    -3.99893  -0.41075   0.25700
O    -0.74574   0.49284   0.84598
N    -0.55545  -0.25320  -0.24107
C     0.78654  -0.28824  -0.56649
C     1.10857  -1.05339  -1.71201
C     2.42892  -1.16218  -2.13897
C     3.45633  -0.51573  -1.44019
C     3.14297   0.24332  -0.30415
C     1.82789   0.36314   0.13738
H    -2.50926   0.97214   3.38975
H    -2.66819   2.41482   2.36079
H    -1.03894   1.85994   2.86761
H     0.30052  -1.55338  -2.24983
H     2.66002  -1.75691  -3.02597
H     4.49171  -0.60181  -1.77648
H     3.93877   0.75072   0.24694
H     1.59826   0.95633   1.02249
