27
Generated by autodE on: 2022-06-09. E = -1538.430535 Ha
N    -0.66426   0.26270  -4.76130
C    -0.98921   0.31273  -3.64967
C    -1.41553   0.34188  -2.24735
Cl   -2.51680   1.82140  -2.08493
C    -0.31937   0.48081  -1.30228
C     0.27551   0.31073  -0.26420
C     0.61560  -0.23192   1.04624
C     0.89985   0.91966   2.04329
F     1.07459   0.46080   3.28767
F     1.99143   1.61951   1.70752
F    -0.13112   1.77469   2.06515
C     1.85889  -1.14993   0.92172
F     2.22205  -1.64636   2.11057
F     2.91115  -0.49674   0.41278
F     1.60379  -2.18557   0.11157
C    -0.63436  -1.04415   1.54098
C    -1.41714  -1.85093   0.48586
C    -2.48741  -1.10895  -0.36351
C    -2.20825  -0.94094  -1.86798
H    -1.31819  -0.32339   2.01057
H    -0.28541  -1.71577   2.33824
H    -0.72418  -2.39425  -0.17207
H    -1.94090  -2.62803   1.06211
H    -3.41867  -1.69069  -0.30198
H    -2.72590  -0.12853   0.07973
H    -1.61972  -1.79398  -2.24253
H    -3.14533  -0.91334  -2.44228
