47
Generated by autodE on: 2022-06-09. E = -2071.029094 Ha. Imaginary frequency = -122.3 cm-1
C    -1.23999   1.01095   3.17752
C    -0.02081   0.56760   2.44589
C     0.42721  -0.77468   2.59885
N     0.64590  -1.88854   2.86610
O     0.65508   1.52015   1.87191
N     1.68028   1.44976   0.99812
C     2.52611   0.32646   1.18680
C     2.81357  -0.55270   0.13062
C     3.71998  -1.59623   0.32586
C     4.35054  -1.77089   1.56129
C     4.08714  -0.87676   2.60537
C     3.18867   0.17109   2.42197
C     0.19696   1.01437  -0.70638
C    -0.52470   0.06510  -0.42108
C    -1.54795  -0.91155  -0.82845
C    -2.71749  -0.93245   0.18390
F    -3.10186   0.31935   0.47914
F    -2.38877  -1.52794   1.34189
F    -3.78180  -1.57867  -0.30621
C    -0.88470  -2.31440  -0.91002
F    -0.28958  -2.66727   0.23335
F    -1.78416  -3.26183  -1.21212
F     0.05892  -2.32824  -1.86302
C    -2.04900  -0.53655  -2.26006
C    -2.75893   0.80809  -2.47480
C    -2.04312   2.13248  -2.14054
C    -0.59207   2.27975  -2.64911
C     0.45369   2.21520  -1.50375
Cl    2.14431   2.18042  -2.22909
C     0.38736   3.42514  -0.67256
N     0.27890   4.40200  -0.05769
H    -1.01143   1.14739   4.24930
H    -2.02610   0.24816   3.09932
H    -1.59529   1.96246   2.75999
H     2.31503  -0.43267  -0.82904
H     3.92554  -2.28591  -0.49611
H     5.05176  -2.59524   1.70822
H     4.58788  -0.99438   3.56910
H     2.98055   0.87237   3.23296
H    -1.15937  -0.58565  -2.90108
H    -2.72681  -1.33446  -2.59680
H    -3.00297   0.81831  -3.54987
H    -3.72755   0.80771  -1.95171
H    -2.64629   2.93646  -2.58772
H    -2.07981   2.31480  -1.05598
H    -0.44478   3.23518  -3.17145
H    -0.33027   1.47893  -3.35493
