45
Generated by autodE on: 2022-06-18. E = -885.464802 Ha
C     0.68168   3.08317  -0.16871
C    -0.11337   2.25967   0.52585
C    -1.21641   2.75343   1.42045
C     0.04285   0.75253   0.46911
C    -1.21377   0.04741  -0.12425
C    -2.18079  -0.43308   0.90993
C    -3.51437  -0.25214   0.92827
C    -4.35508  -0.81592   2.04190
C    -4.28411   0.50182  -0.12087
C    -0.56213  -1.08739  -0.97823
C    -1.45219  -1.44185  -2.15309
C    -2.52890  -2.45302  -1.90902
O    -1.29573  -0.88477  -3.22967
N     0.71036  -0.53619  -1.42454
N     1.16076   0.28000  -0.35951
C     2.39349  -0.01379   0.21472
C     2.79728   0.63148   1.40616
C     4.04410   0.35813   1.97117
C     4.92407  -0.55112   1.37532
C     4.53111  -1.18412   0.19039
C     3.28926  -0.92330  -0.38851
H     1.47916   2.69443  -0.80598
H     0.55303   4.16820  -0.11513
H    -2.20485   2.44743   1.03958
H    -1.12658   2.31966   2.43083
H    -1.20377   3.84949   1.50619
H     0.18690   0.38893   1.50288
H    -1.69445   0.74189  -0.82660
H    -1.72753  -1.01244   1.72361
H    -3.75029  -1.35599   2.78520
H    -5.11819  -1.50761   1.64363
H    -4.90723  -0.01150   2.55927
H    -5.05256  -0.15124  -0.56982
H    -3.65605   0.89218  -0.93188
H    -4.82582   1.34873   0.33547
H    -0.39799  -1.97216  -0.34279
H    -3.08250  -2.19829  -0.99129
H    -3.20704  -2.51205  -2.77008
H    -2.06019  -3.43576  -1.73185
H     0.50884   0.06620  -2.22696
H     2.14615   1.36616   1.87907
H     4.32994   0.87250   2.89263
H     5.89896  -0.75800   1.82197
H     5.20208  -1.89749  -0.29604
H     2.99066  -1.41867  -1.31057
