22
Generated by autodE on: 2022-07-27. E = -533.906930 Ha
C    -3.46412  -1.12427  -1.86523
C    -2.48157   0.01682  -1.85675
O    -2.61393   1.00456  -2.59720
C    -1.36651  -0.09185  -0.94042
N    -0.54630   0.96427  -0.91198
N     0.49135   1.31919  -0.23713
C     1.10787   0.41976   0.63830
C     1.75801   1.00558   1.74569
C     2.46425   0.22289   2.65552
C     2.56596  -1.16053   2.46527
C     1.95578  -1.74665   1.35176
C     1.22540  -0.97447   0.44698
H    -3.90131  -1.25625  -0.86194
H    -4.26153  -0.93036  -2.59439
H    -2.94941  -2.06566  -2.11804
H    -1.22423  -0.93840  -0.27715
H    -0.86579   1.68831  -1.57628
H     1.68898   2.08768   1.87338
H     2.94591   0.69560   3.51475
H     3.12436  -1.77533   3.17457
H     2.04757  -2.82204   1.18113
H     0.78588  -1.45666  -0.42522
