22
Generated by autodE on: 2022-06-18. E = -533.911493 Ha
C     4.70714  -0.30075  -0.02676
C     3.23314  -0.57254  -0.17143
O     2.80406  -1.62387  -0.67676
C     2.33000   0.45186   0.29850
N     1.02811   0.21166   0.15286
N     0.05669   0.97260   0.51175
C    -1.23527   0.53229   0.22614
C    -2.27484   1.32696   0.75407
C    -3.60957   0.99196   0.53899
C    -3.94006  -0.14193  -0.21206
C    -2.91605  -0.93260  -0.74757
C    -1.57684  -0.60582  -0.53922
H     4.95437  -0.06890   1.02181
H     5.28462  -1.17181  -0.36276
H     4.98759   0.58118  -0.62636
H     2.64289   1.39043   0.75363
H     0.85384  -0.70642  -0.29962
H    -2.00401   2.20829   1.33875
H    -4.39815   1.62019   0.96000
H    -4.98580  -0.40589  -0.38367
H    -3.16258  -1.81520  -1.34271
H    -0.81259  -1.24280  -0.99003
