45
Generated by autodE on: 2022-06-18. E = -885.408254 Ha. Imaginary frequency = -385.8 cm-1
C    -0.84531   3.10507  -1.35108
C    -0.25230   2.84681  -0.16657
C     0.58419   3.87984   0.54121
C    -0.30144   1.52869   0.47767
C    -1.24676   0.53185   0.12970
C    -1.52616  -0.55245   1.07229
C    -2.68320  -1.23935   1.21335
C    -2.80490  -2.33889   2.23195
C    -3.93360  -0.96903   0.42266
C    -0.12991  -0.47784  -1.46270
C    -1.03844  -0.49028  -2.61503
C    -2.08921  -1.56424  -2.63189
O    -0.94750   0.35415  -3.50926
N     0.94021   0.35777  -1.53610
N     1.54305   0.81931  -0.43944
C     2.05662  -0.11366   0.46842
C     2.43008   0.35494   1.74867
C     2.99635  -0.50370   2.68672
C     3.23179  -1.84953   2.37417
C     2.90305  -2.31294   1.09756
C     2.32307  -1.46320   0.15242
H    -1.43949   2.36072  -1.88467
H    -0.74371   4.08622  -1.82344
H     0.22839   4.03567   1.57356
H     1.62854   3.53310   0.61422
H     0.57292   4.84661   0.01785
H     0.13379   1.46770   1.47508
H    -2.05793   0.83357  -0.53502
H    -0.69080  -0.82307   1.72884
H    -1.87332  -2.48339   2.79888
H    -3.06717  -3.29536   1.74507
H    -3.62003  -2.12570   2.94655
H    -4.28164  -1.88732  -0.08059
H    -3.81234  -0.18672  -0.33754
H    -4.75003  -0.66296   1.10108
H    -0.05080  -1.37405  -0.85389
H    -2.32564  -1.92237  -1.62148
H    -2.99339  -1.20519  -3.14249
H    -1.68828  -2.42072  -3.20232
H     0.83905   1.07279  -2.26166
H     2.26767   1.40580   1.99459
H     3.26500  -0.11595   3.67267
H     3.67598  -2.52124   3.11185
H     3.10045  -3.35301   0.82507
H     2.10009  -1.84552  -0.84374
