35
Generated by autodE on: 2022-05-30. E = -1119.295026 Ha
C    -1.00223   4.38878  -0.42463
N    -0.68971   3.00606  -0.73206
C    -0.86766   2.00645   0.13625
O    -1.33606   2.11523   1.27129
C    -0.45764   0.61311  -0.33276
C     0.38213   0.41404  -1.63703
O     1.03949   1.20355  -2.26059
O     0.21901  -0.88193  -1.98172
C    -0.69451  -1.42681  -0.90880
C    -1.33770  -2.62225  -1.44126
N    -1.91646  -3.50266  -1.89844
C     0.17866  -1.49357   0.35228
C     0.81935  -2.75994   0.79520
C     1.66252  -2.76875   2.03045
O     0.63990  -3.75700   0.11011
C     0.32474  -0.20104   0.70606
C     1.12270   0.47517   1.76232
O     1.15948   0.14648   2.92667
O     1.75716   1.52158   1.24136
C     2.48686   2.36486   2.15086
N    -1.57546  -0.32575  -0.60254
C    -2.52547   0.07585  -1.64385
H    -1.59090   4.83401  -1.23960
H    -0.08168   4.97924  -0.29345
H    -1.58435   4.42750   0.50300
H    -0.19852   2.80207  -1.59955
H     2.53301  -2.10721   1.89146
H     2.00233  -3.79263   2.22934
H     1.09338  -2.37321   2.88367
H     2.95065   3.13985   1.53127
H     1.79300   2.81422   2.87532
H     3.25366   1.78164   2.67874
H    -3.22858  -0.75004  -1.81270
H    -3.09648   0.93721  -1.27533
H    -2.05243   0.34345  -2.60429
