20
Generated by autodE on: 2022-07-26. E = -661.180997 Ha
C     0.47093   3.95877   1.01276
N     0.59659   2.62620   0.46303
C    -0.26867   1.62507   0.73819
O    -1.25251   1.74554   1.48354
C     0.05664   0.35547   0.07204
C     1.15039   0.08359  -0.79647
O     2.07683   0.74128  -1.23630
O     1.00345  -1.28421  -1.14830
C    -0.08513  -1.75683  -0.53269
C    -0.50011  -3.09316  -0.68158
N    -0.83461  -4.20118  -0.81175
N    -0.66685  -0.81022   0.19576
C    -1.88090  -1.01438   0.99022
H     1.37698   4.23952   1.57261
H     0.31349   4.70422   0.21662
H    -0.38722   3.98614   1.69411
H     1.37275   2.42313  -0.16439
H    -2.20750  -2.05234   0.86330
H    -2.65591  -0.32392   0.64118
H    -1.65740  -0.80967   2.04269
