20
Generated by autodE on: 2022-05-30. E = -661.174011 Ha
C    -2.94219   0.29864  -1.51017
N    -2.82887  -0.50580  -0.30563
C    -1.76129  -0.65076   0.50677
O    -1.86003  -1.15025   1.63873
C    -0.44850  -0.21098  -0.00656
C     0.11939  -0.38742  -1.29970
O    -0.25776  -0.81287  -2.37177
O     1.47515   0.05967  -1.15183
C     1.65871   0.42815   0.11572
C     2.88880   0.94222   0.57019
N     3.91224   1.36094   0.93563
N     0.54640   0.26648   0.82123
C     0.40738   0.58517   2.24362
H    -2.20061   1.10833  -1.50202
H    -3.94214   0.75335  -1.53480
H    -2.80244  -0.29317  -2.42643
H    -3.68418  -0.90897   0.06997
H     0.26312  -0.34359   2.80511
H    -0.46754   1.23253   2.37552
H     1.31258   1.10335   2.57867
