15
Generated by autodE on: 2022-05-30. E = -458.066919 Ha
C    -3.69189   0.17737   0.30835
O    -2.28701   0.47280   0.19391
C    -1.47097  -0.56964   0.07454
O    -1.81605  -1.73278   0.05611
C    -0.08409  -0.15517  -0.03237
C     1.09466   0.12541  -0.12495
C     2.50905   0.47148  -0.24187
C     3.26840   0.57516   1.04506
O     2.99574   0.65578  -1.34531
H    -4.19368   1.14761   0.39119
H    -3.88022  -0.43039   1.20464
H    -4.04048  -0.36109  -0.58422
H     4.31535   0.83477   0.84038
H     2.80171   1.33979   1.68783
H     3.20875  -0.38295   1.58721
