44
Generated by autodE on: 2022-06-20. E = -1050.772176 Ha. Imaginary frequency = -235.5 cm-1
C     0.39591  -3.19511   3.08205
O    -0.37241  -2.61678   2.01151
C     0.27879  -1.84908   1.15014
O     1.47174  -1.61581   1.18564
C    -0.63714  -1.25566   0.12449
C    -1.89080  -2.08078  -0.20638
C    -1.69806  -3.08560  -1.30970
O    -2.91022  -2.01732   0.44458
C    -1.44033   0.34123   1.38105
C    -1.46426   1.48512   0.58113
C    -2.76580   1.96859   0.00565
C    -0.27175   2.24327   0.31686
C     0.99233   1.90017   0.71605
C     2.16954   2.62163   0.31696
C     3.45582   2.30227   0.63145
C     4.59298   3.14980   0.14321
C     3.85542   1.11945   1.46388
C    -0.52303   0.08502  -1.89224
C     0.29150   0.99577  -2.58955
N     0.96664   1.77997  -3.13356
C    -1.86948  -0.05678  -2.26178
N    -2.99257  -0.15879  -2.57752
N     0.04339  -0.64919  -0.86613
H     0.83899  -2.40037   3.69845
H     1.18941  -3.83709   2.67509
H    -0.31301  -3.78692   3.67106
H    -1.17224  -3.94845  -0.86320
H    -1.07017  -2.71243  -2.12867
H    -2.67563  -3.41601  -1.68384
H    -0.63239   0.23050   2.10536
H    -2.37956  -0.14706   1.63795
H    -3.25485   2.65414   0.72111
H    -2.62278   2.52084  -0.93403
H    -3.46001   1.13565  -0.17456
H    -0.38501   3.12122  -0.32765
H     1.12764   1.02888   1.35989
H     2.00368   3.50112  -0.31541
H     4.24785   4.01826  -0.43606
H     5.27724   2.55477  -0.48799
H     5.20019   3.51082   0.99262
H     4.31335   1.45942   2.41003
H     3.02711   0.44219   1.70368
H     4.63350   0.53687   0.94114
H     1.03348  -0.47693  -0.67291
