38
Generated by autodE on: 2022-05-29. E = -963.147111 Ha
C    -0.65486   3.81019  -0.30152
C    -1.39453   2.52619  -0.07952
O    -2.61059   2.46259   0.00841
C    -0.58821   1.26297   0.04013
N     0.68454   1.26102  -0.06668
C     1.20767  -0.08762   0.14478
C     2.16342  -0.52907  -0.99570
C     2.39867   0.41809  -2.12874
O     2.70020  -1.61632  -0.90989
C     2.13066  -0.07519   1.40177
C     2.97402   1.14475   1.61646
O     2.16251  -1.04079   2.13380
C    -0.01011  -1.04431   0.33283
C    -0.38835  -2.02719  -0.79849
C    -1.51234  -2.93098  -0.24619
C    -2.73976  -1.97434  -0.17052
C    -2.18191  -0.64250  -0.71482
C    -1.17556  -1.12699  -1.77494
C    -1.22650  -0.07809   0.34876
F    -1.83522   0.01778   1.60250
H    -1.36914   4.63982  -0.37558
H     0.04798   3.98757   0.52762
H    -0.05265   3.74416  -1.22097
H     3.05592  -0.04961  -2.87285
H     2.85829   1.34150  -1.74225
H     1.44160   0.71005  -2.58681
H     3.48167   1.43727   0.68416
H     2.32586   1.98780   1.90348
H     3.70572   0.95447   2.41193
H     0.09232  -1.56308   1.29195
H     0.45830  -2.58363  -1.21329
H    -1.24667  -3.36022   0.73093
H    -1.70037  -3.76496  -0.93803
H    -3.56209  -2.31984  -0.81306
H    -3.13548  -1.86282   0.84742
H    -2.94180   0.07871  -1.03608
H    -0.58026  -0.31921  -2.22541
H    -1.66071  -1.69361  -2.58318
