21
Generated by autodE on: 2022-05-29. E = -590.918664 Ha
C     3.74291   0.10237   0.16153
C     2.76690  -1.02330  -0.01462
O     3.05493  -2.20341  -0.13626
C     1.37912  -0.61244  -0.02854
N     0.25456  -0.29019  -0.02882
C    -0.94873   0.26599  -0.00709
C    -0.91519   1.73501   0.14654
C    -2.21286   2.49215   0.18923
O     0.16835   2.31321   0.23701
C    -2.11955  -0.60851  -0.13263
C    -1.85284  -2.08857  -0.27506
O    -3.26559  -0.16236  -0.12319
H     4.46577   0.07332  -0.66908
H     3.24459   1.08089   0.19397
H     4.29642  -0.06302   1.10023
H    -2.83727   2.14207   1.02461
H    -2.79247   2.31849  -0.72944
H    -1.99107   3.56150   0.30284
H    -2.80939  -2.62222  -0.33867
H    -1.27505  -2.46523   0.58417
H    -1.25804  -2.28909  -1.18088
