36
Generated by autodE on: 2022-06-18. E = -936.927619 Ha
C    -3.49654  -0.63971   0.34610
C    -2.35655  -0.66966  -0.62473
O    -2.50675  -0.85271  -1.81823
C    -0.96740  -0.38838  -0.06231
C    -0.54234  -1.16103   1.21123
O    -1.18805  -1.71412   2.06341
O     0.79933  -1.06816   1.23700
C     1.17454  -0.25968   0.04685
C     2.63311  -0.53749  -0.30651
C     3.50879  -1.10931   0.76139
O     3.02020  -0.26285  -1.42564
N     0.18682  -0.61124  -0.94492
C     0.30739  -1.95671  -1.51818
C     0.82209   1.22762   0.40047
C     1.29792   1.65244   1.78959
C     1.38792   2.19326  -0.64745
C    -0.75784   1.11196   0.35587
C    -1.39601   2.06518  -0.62421
O    -1.95448   3.08425  -0.27758
H    -3.48851   0.30400   0.91522
H    -3.37385  -1.45115   1.07961
H    -4.44466  -0.74834  -0.19519
H     3.41673  -0.52345   1.68885
H     4.54955  -1.13180   0.41514
H     3.16598  -2.13015   0.99703
H     1.24845  -2.02121  -2.07742
H    -0.51804  -2.11758  -2.21858
H     0.29037  -2.75978  -0.75860
H     2.39742   1.64500   1.84021
H     0.95549   2.67887   1.98801
H     0.90610   1.00053   2.58165
H     0.97969   3.20096  -0.48086
H     2.48054   2.26179  -0.54913
H     1.15306   1.88579  -1.67365
H    -1.19060   1.31365   1.34351
H    -1.32498   1.78791  -1.69902
