22
Generated by autodE on: 2022-06-18. E = -666.231654 Ha
C     3.51819   0.89912  -0.54465
C     2.60500  -0.24704  -0.23215
O     2.98218  -1.39657  -0.05882
C     1.16686   0.08490  -0.13860
O     0.74559   1.33538  -0.32636
C    -0.67095   1.37392  -0.18163
O    -1.26071   2.42556  -0.31521
C    -1.03522   0.02182   0.10965
C    -2.38116  -0.47878   0.33906
C    -3.49389   0.53730   0.25806
O    -2.63170  -1.66247   0.58609
N     0.14723  -0.71800   0.12216
C     0.27074  -2.15963   0.38483
H     3.42475   1.67858   0.22875
H     4.55189   0.53584  -0.59270
H     3.23177   1.36039  -1.50352
H    -3.51412   1.01581  -0.73329
H    -4.44724   0.02755   0.44741
H    -3.34494   1.34139   0.99511
H     0.72160  -2.64549  -0.48811
H     0.91906  -2.30952   1.25576
H    -0.73174  -2.54524   0.57201
