14
Generated by autodE on: 2022-06-18. E = -270.687347 Ha
C    -1.27671   1.46418   0.17624
C    -0.97897   0.00339   0.01637
C    -2.18657  -0.88070  -0.05773
C     0.26732  -0.53337  -0.06103
C     1.51414   0.20865  -0.00274
O     2.62124  -0.31938  -0.07658
H    -0.38818   2.10411   0.22376
H    -1.87155   1.61925   1.09237
H    -1.90981   1.80325  -0.66126
H    -2.80331  -0.75664   0.84924
H    -1.92245  -1.94135  -0.16867
H    -2.82508  -0.57899  -0.90610
H     0.37881  -1.61664  -0.17752
H     1.43992   1.31288   0.11637
