36
Generated by autodE on: 2022-06-18. E = -936.892141 Ha. Imaginary frequency = -358.8 cm-1
C    -3.43695  -1.05839   0.26983
C    -2.25455  -1.15100  -0.64556
O    -2.36087  -1.39957  -1.83909
C    -0.92426  -0.88737  -0.04573
C    -0.61483  -0.83897   1.38589
O    -1.28816  -0.98998   2.37865
O     0.74335  -0.63151   1.44609
C     1.19133  -0.30755   0.16419
C     2.66902  -0.61738  -0.01976
C     3.40722  -1.09784   1.19107
O     3.19383  -0.47066  -1.10725
N     0.25097  -0.86983  -0.71303
C     0.41046  -0.98086  -2.16060
C     0.86465   1.55092   0.09916
C     1.77281   2.08565   1.20637
C     1.31119   2.04068  -1.27324
C    -0.53845   1.62326   0.42083
C    -1.60654   1.86262  -0.51274
O    -2.76662   2.14310  -0.18285
H    -3.47310  -0.05839   0.73122
H    -3.34526  -1.78857   1.08785
H    -4.35165  -1.24038  -0.30794
H     2.97969  -2.05980   1.51783
H     4.46868  -1.21846   0.94207
H     3.28429  -0.39406   2.02772
H     0.06187  -1.96929  -2.48040
H     1.46719  -0.85289  -2.40248
H    -0.19135  -0.21552  -2.66741
H     1.50876   1.66931   2.18770
H     1.66337   3.17996   1.25663
H     2.83110   1.87040   0.99761
H     2.35486   1.76412  -1.46808
H     0.69617   1.66496  -2.09814
H     1.24820   3.14028  -1.28651
H    -0.82294   1.71487   1.47299
H    -1.35029   1.78937  -1.59273
