74
Generated by autodE on: 2022-07-02. E = -1706.413452 Ha
C   -11.77190 -12.80178  -7.36647
N   -12.26302 -12.43900  -6.05130
C   -13.34265 -13.03454  -5.52840
O   -14.05049 -13.80272  -6.19192
C   -13.77143 -12.65163  -4.07738
C   -12.88259 -11.56401  -3.47103
N   -15.11038 -12.07537  -4.26562
C   -16.10542 -13.13573  -4.06316
C   -17.11274 -12.51686  -3.17319
N   -17.78000 -11.80792  -2.53893
C   -16.81209 -13.48020  -5.41916
C   -17.00020 -12.35162  -6.38640
O   -17.20884 -14.60439  -5.64401
C   -15.33065 -14.32443  -3.41642
C   -14.02390 -13.96439  -3.28568
C   -12.88755 -14.58278  -2.43894
C   -13.00080 -13.96428  -1.00965
C   -13.91307 -12.95234  -0.67859
C   -14.01236 -12.44947   0.62279
C   -13.20381 -12.95486   1.64025
C   -12.29246 -13.97015   1.33465
C   -12.19432 -14.46230   0.03223
C   -11.48927 -14.30309  -3.05372
C   -10.47674 -13.61605  -2.36125
C    -9.21618 -13.40807  -2.92665
C    -8.92532 -13.88662  -4.20664
C    -9.91828 -14.56743  -4.91195
C   -11.17910 -14.76592  -4.34306
C   -12.98295 -16.12922  -2.21889
C   -13.01701 -17.09633  -3.40388
C   -13.99196 -16.79913  -4.53593
C   -15.47163 -16.76732  -4.18291
C   -15.99928 -15.69231  -3.18835
C   -15.99209 -16.21787  -1.71229
C   -16.18003 -15.23747  -0.58730
O   -15.96627 -17.41574  -1.49556
C   -17.56581 -15.65179  -3.30485
C   -18.29073 -16.85777  -3.83853
O   -18.18816 -14.72787  -2.81597
H   -11.52290 -13.87436  -7.41740
H   -10.87026 -12.21648  -7.58319
H   -12.52789 -12.59153  -8.13763
H   -11.63874 -11.93228  -5.43481
H   -11.83088 -11.85690  -3.41104
H   -12.95701 -10.65926  -4.09164
H   -13.21600 -11.30512  -2.46006
H   -15.24227 -11.34602  -3.56906
H   -16.04053 -12.14836  -6.88411
H   -17.74668 -12.64143  -7.13746
H   -17.30297 -11.42943  -5.86991
H   -14.59711 -12.55818  -1.42495
H   -14.74166 -11.66426   0.83561
H   -13.28358 -12.56825   2.65892
H   -11.64851 -14.38482   2.11397
H   -11.46184 -15.24400  -0.16714
H   -10.67123 -13.20550  -1.37284
H    -8.45960 -12.86058  -2.35928
H    -7.93952 -13.72595  -4.64930
H    -9.72288 -14.93938  -5.92018
H   -11.93349 -15.26938  -4.94006
H   -13.83019 -16.32019  -1.55790
H   -12.10792 -16.40697  -1.61804
H   -13.25241 -18.08893  -2.98259
H   -12.00619 -17.18971  -3.82903
H   -13.87360 -17.58916  -5.29674
H   -13.72809 -15.86512  -5.04700
H   -15.76808 -17.74673  -3.78582
H   -16.01418 -16.61903  -5.12253
H   -16.39540 -14.21994  -0.92343
H   -16.99322 -15.60696   0.05496
H   -15.26184 -15.22409   0.01741
H   -17.98755 -17.75620  -3.28096
H   -18.06267 -17.03278  -4.89695
H   -19.36814 -16.69237  -3.71417
