50
Generated by autodE on: 2022-07-02. E = -1079.899773 Ha
C     0.35902  -4.63916   2.17294
C     0.63393  -3.53220   1.19826
O     0.86379  -3.73772   0.02154
C     0.58747  -2.07810   1.73868
C     1.80188  -1.91273   2.70135
C     3.11618  -1.55357   2.07583
O     1.66666  -2.09322   3.89486
C     0.64306  -1.10509   0.65279
C     0.34321  -0.12340   0.01027
C    -0.36202   1.09363  -0.40012
C     0.62034   2.13956  -0.95126
C     0.54114   3.49777  -0.61775
C     1.43202   4.42067  -1.17878
C     2.41383   3.99930  -2.07796
C     2.49991   2.64387  -2.41602
C     1.61011   1.72580  -1.85684
C    -1.41822   0.78981  -1.48336
C    -1.63780  -0.50336  -1.97328
C    -2.61644  -0.74210  -2.94569
C    -3.39094   0.30933  -3.43915
C    -3.17692   1.60552  -2.95545
C    -2.19824   1.84223  -1.98927
C    -1.07067   1.55732   0.91869
C    -1.84848   0.46472   1.68215
C    -1.09628  -0.35052   2.77393
C    -0.75823  -1.82828   2.48867
H     0.67018  -5.59855   1.74005
H     0.85635  -4.46572   3.13732
H    -0.72525  -4.67299   2.37112
H     3.28079  -2.13861   1.15778
H     3.93130  -1.71222   2.79339
H     3.09147  -0.49280   1.77786
H    -0.21757   3.85247   0.07974
H     1.35516   5.47609  -0.90619
H     3.10959   4.72087  -2.51260
H     3.26440   2.30014  -3.11709
H     1.68011   0.66887  -2.12591
H    -1.04009  -1.33346  -1.59372
H    -2.77094  -1.75874  -3.31552
H    -4.15548   0.12370  -4.19723
H    -3.77408   2.43816  -3.33521
H    -2.03620   2.85996  -1.62849
H    -1.76052   2.37213   0.65637
H    -0.30525   1.99034   1.58145
H    -2.67997   0.98115   2.18584
H    -2.32674  -0.22266   0.96425
H    -1.74089  -0.36458   3.66661
H    -0.18358   0.18604   3.08307
H    -1.56861  -2.28068   1.89580
H    -0.70450  -2.37680   3.43859
