24
Generated by autodE on: 2022-07-27. E = -626.460399 Ha
C     2.96811  -1.05428  -2.18002
N     2.51164  -0.09107  -1.19544
C     1.48309  -0.36850  -0.38038
O     0.88653  -1.44959  -0.39046
C     1.14896   0.69468   0.63096
C     2.22105   1.56150   1.19595
N    -0.05783   0.78097   1.13445
C    -1.27506   0.23529   0.73488
C    -2.19789  -0.01511   1.77315
N    -2.96521  -0.20979   2.63418
C    -1.71561   0.01164  -0.62127
C    -0.95932   0.60253  -1.78746
O    -2.78135  -0.59243  -0.83027
H     2.17099  -1.28860  -2.90350
H     3.82445  -0.63061  -2.71727
H     3.27627  -1.99356  -1.69623
H     2.94946   0.82411  -1.16602
H     3.11689   0.96804   1.43211
H     2.51892   2.33147   0.46239
H     1.87385   2.07909   2.10181
H    -0.11923   1.36538   1.97571
H    -0.42433  -0.19557  -2.32476
H    -1.70348   1.02565  -2.47814
H    -0.23934   1.38347  -1.50976
