13
Generated by autodE on: 2022-07-27. E = -340.863451 Ha
C    -2.89289   1.57044   0.07772
C    -1.73159   0.73799  -0.15573
N    -0.81626   0.05883  -0.36087
N     0.16228  -0.73703  -0.64983
C     1.27452  -0.52784   0.12783
C     2.41956  -1.45134  -0.19726
O     1.36029   0.32612   1.01829
H    -2.76345   2.55001  -0.40789
H    -3.03471   1.71640   1.15967
H    -3.78493   1.07536  -0.33670
H     2.67720  -2.03280   0.70243
H     2.18414  -2.13589  -1.02162
H     3.30409  -0.84865  -0.45768
