18
Generated by autodE on: 2022-06-16. E = -235.968070 Ha
C    -1.40863  -1.11344   0.81414
C    -0.61268   0.05466   0.28314
C    -1.35024   1.36003   0.46084
C     0.61261  -0.05468  -0.28329
C     1.35032  -1.36001  -0.46070
C     1.40860   1.11344  -0.81419
H    -0.91045  -2.08503   0.71254
H    -2.38374  -1.17899   0.29868
H    -1.64154  -0.96397   1.88378
H    -0.81218   2.23825   0.08477
H    -2.32937   1.32002  -0.04949
H    -1.57278   1.53273   1.52921
H     1.57339  -1.53271  -1.52896
H     2.32919  -1.31994   0.05012
H     0.81216  -2.23826  -0.08483
H     0.90964   2.08480  -0.71422
H     2.38293   1.18010  -0.29740
H     1.64311   0.96313  -1.88336
