31
Generated by autodE on: 2022-06-16. E = -576.815870 Ha. Imaginary frequency = -388.7 cm-1
C     3.29956  -0.53987  -0.48149
C     2.22745   0.47426  -0.16962
O     2.33042   1.24340   0.80054
N     1.16868   0.43833  -1.02824
N     0.23413   1.31433  -0.77836
C    -0.89655   1.39506  -0.37152
C    -1.95912   2.39752  -0.20373
C    -1.60073  -0.58128   0.30705
C    -2.09446  -0.13605   1.67467
C    -2.68802  -0.80060  -0.73049
C    -0.43703  -1.34566   0.23804
C     0.43688  -1.49099   1.44982
C    -0.18821  -2.28747  -0.90472
H     3.52260  -1.12361   0.42451
H     3.01406  -1.21336  -1.29922
H     4.22350  -0.00665  -0.76041
H    -1.67816   3.31524  -0.74116
H    -2.09441   2.63161   0.86210
H    -2.91496   2.02610  -0.59749
H    -1.31775   0.36861   2.26629
H    -2.95441   0.54228   1.59006
H    -2.42886  -1.01381   2.25688
H    -3.48863  -0.05350  -0.63453
H    -2.30693  -0.75919  -1.76075
H    -3.15362  -1.79326  -0.59334
H     0.67531  -0.52056   1.91199
H    -0.08187  -2.08790   2.22373
H     1.37949  -2.00083   1.21137
H    -0.77258  -3.21569  -0.74516
H     0.87025  -2.57333  -0.97197
H    -0.50316  -1.87834  -1.87328
