18
Generated by autodE on: 2022-07-27. E = -551.533481 Ha
C     0.98108   1.24193  -2.66631
C     0.87027   0.00013  -1.82239
O     1.24571  -1.08611  -2.26278
C     0.28361   0.06494  -0.46952
O     0.30922  -1.15858   0.08922
C    -0.18992  -1.74042   1.11351
C    -1.21714  -1.26904   1.96333
N    -2.12994  -1.11129   2.67367
C    -0.06587   1.18999   0.38262
C    -0.10474   2.59994  -0.14217
O    -0.28675   0.97360   1.58220
H     0.00115   1.72091  -2.80531
H     1.38653   0.95073  -3.64355
H     1.65148   1.97997  -2.20218
H     0.13309  -2.77929   1.23088
H     0.89471   2.93799  -0.45254
H    -0.46405   3.24780   0.66743
H    -0.77555   2.68657  -1.00847
