28
Generated by autodE on: 2022-06-01. E = -596.319120 Ha
N    -0.70799   1.50484  -2.99409
C    -0.91408   0.87864  -2.03050
C    -1.22628   0.12149  -0.87892
C    -0.37909  -0.35562   0.08432
C     1.07834  -0.27810   0.16895
C     1.88312  -0.10446  -0.97736
C     3.27007  -0.02312  -0.86768
C     3.88634  -0.10983   0.38623
C     3.10282  -0.28833   1.53024
C     1.71453  -0.37971   1.42394
C    -1.27676  -0.87610   1.19769
C    -1.89809   0.39244   1.87176
C    -2.85753   0.93707   0.77617
C    -2.66010  -0.08115  -0.38946
C    -2.48312  -1.39607   0.39144
H     1.42286  -0.05288  -1.96440
H     3.87600   0.10347  -1.76784
H     4.97368  -0.04462   0.46932
H     3.57531  -0.35986   2.51260
H     1.11611  -0.51651   2.32557
H    -0.79961  -1.57378   1.89470
H    -1.12427   1.11423   2.16782
H    -2.44716   0.09456   2.77685
H    -3.90449   0.92236   1.11365
H    -2.61705   1.96238   0.46196
H    -3.42750  -0.04362  -1.17163
H    -2.23509  -2.25166  -0.25341
H    -3.34813  -1.64253   1.02530
