46
Generated by autodE on: 2022-06-01. E = -1147.862818 Ha. Imaginary frequency = -246.8 cm-1
C     2.58696   1.33726  -2.08942
C     2.63971   0.18399  -1.12214
O     3.22467  -0.85505  -1.43270
C     1.93312   0.27152   0.16715
C     1.56180   1.44470   0.94124
C     1.57136   2.82542   0.34812
O     1.23436   1.28774   2.12326
O     1.92067  -0.93213   0.78328
C     1.11840  -1.52077   1.61860
C     0.60450  -1.01347   2.84993
N     0.10978  -0.88387   3.89756
C    -0.86573  -1.48008   0.29650
C    -1.82678  -1.42583   1.34397
N    -2.62508  -1.45373   2.19159
C    -0.72628  -2.79939  -0.48388
C    -1.95752  -2.84558  -1.43718
C    -1.65165  -1.70530  -2.44812
C    -0.28262  -1.13261  -1.93489
C     0.39416  -2.43365  -1.46374
C    -0.64821  -0.43682  -0.63448
C    -1.14327   0.93430  -0.56370
C    -1.54846   1.52638   0.65368
C    -2.02696   2.83389   0.68347
C    -2.12146   3.58140  -0.49559
C    -1.72314   3.01130  -1.70861
C    -1.23295   1.70675  -1.74374
H     1.56913   1.73659  -2.19512
H     2.94752   0.97463  -3.06046
H     3.23825   2.15903  -1.75651
H     1.20420   3.52038   1.11295
H     2.58973   3.11648   0.05165
H     0.93121   2.88942  -0.54152
H     1.22739  -2.60996   1.60285
H    -0.59169  -3.68564   0.14677
H    -2.90169  -2.69784  -0.89387
H    -2.00347  -3.82548  -1.93380
H    -2.43455  -0.93619  -2.48496
H    -1.50852  -2.09392  -3.46665
H     0.25664  -0.52326  -2.66667
H     0.48619  -3.16256  -2.28135
H     1.37455  -2.29234  -1.00252
H    -1.46580   0.97505   1.58793
H    -2.32540   3.27497   1.63696
H    -2.50024   4.60548  -0.46766
H    -1.78997   3.58711  -2.63419
H    -0.92561   1.27970  -2.69782
