35
Generated by autodE on: 2022-06-18. E = -878.564891 Ha. Imaginary frequency = -183.5 cm-1
C    -4.83214   0.18693   0.23957
O    -3.63497  -0.54157   0.51726
C    -2.51348   0.20123   0.68992
O    -2.50307   1.42843   0.61319
N    -1.48909  -0.63458   1.00040
O    -0.26990   0.02180   1.06810
C     0.31178   0.47866  -0.01017
C    -0.45472   0.90176  -1.15185
N    -0.99737   1.24123  -2.12172
C     1.70796   0.86018   0.10352
C     2.42018   0.56766   1.28675
C     3.77146   0.88367   1.37507
C     4.42738   1.48555   0.29340
C     3.72547   1.77684  -0.88226
C     2.37208   1.46920  -0.98159
C     0.49769  -1.75345  -1.10390
C     1.68012  -2.32500  -0.38380
C    -0.79623  -2.16155  -0.88901
C    -1.18383  -3.33120  -0.04273
H    -5.08890   0.85856   1.07283
H    -5.62121  -0.56435   0.11206
H    -4.72794   0.77931  -0.68192
H     1.90661   0.09708   2.12475
H     4.32062   0.65862   2.29146
H     5.48957   1.72868   0.36769
H     4.23658   2.24623  -1.72487
H     1.82870   1.69301  -1.90105
H     0.69606  -1.13919  -1.98488
H     1.52479  -2.33389   0.70758
H     2.59523  -1.75666  -0.59952
H     1.85778  -3.37194  -0.68947
H    -1.57396  -1.74020  -1.53261
H    -0.53860  -3.44006   0.84029
H    -2.22918  -3.26278   0.28554
H    -1.07836  -4.25579  -0.64137
