64
Generated by autodE on: 2022-06-09. E = -1657.860915 Ha
C     3.34810 -25.64711  -9.85943
N     3.17399 -24.55154  -8.92730
C     1.94920 -24.21156  -8.47954
O     0.90416 -24.73942  -8.86864
N     1.92891 -23.14420  -7.57639
C     0.91453 -22.79335  -6.63943
C     1.53308 -22.36707  -5.50983
N     2.95989 -22.57004  -5.71604
C     3.60928 -23.57886  -4.98804
C     4.94768 -24.01522  -5.50864
O     3.09943 -24.02889  -3.97411
N     3.16236 -22.59989  -7.11502
C     3.36248 -21.25548  -7.66435
C     1.09498 -21.56249  -4.28491
C     2.23445 -21.44084  -3.34774
N     3.06070 -21.23152  -2.56012
C    -0.02582 -22.21584  -3.45105
C    -0.84290 -21.43597  -2.62050
C    -1.84200 -22.03419  -1.84873
C    -2.02733 -23.41934  -1.88486
C    -1.18988 -24.20418  -2.68184
C    -0.18950 -23.60746  -3.45270
C     0.84215 -20.05491  -4.69179
C    -0.47080 -19.64042  -5.35640
C    -0.87176 -20.35417  -6.64439
C    -1.42055 -21.76940  -6.39805
C    -0.55359 -22.92524  -6.98403
C    -0.77414 -22.83010  -8.50472
O    -0.21607 -22.02152  -9.21377
O    -1.75514 -23.62965  -8.91351
C    -2.06759 -23.60091 -10.31433
C    -1.04566 -24.28927  -6.45133
O    -0.32437 -25.24688  -6.27227
O    -2.34791 -24.29328  -6.19141
C    -2.91247 -25.52816  -5.72381
H     3.13762 -26.62535  -9.39528
H     4.38551 -25.64468 -10.21632
H     2.67828 -25.52879 -10.72344
H     3.97470 -24.14975  -8.44845
H     5.53069 -23.17075  -5.89876
H     5.48892 -24.51779  -4.69706
H     4.79963 -24.73135  -6.33196
H     3.45855 -21.34886  -8.75404
H     4.29882 -20.85634  -7.25248
H     2.52795 -20.57491  -7.42410
H    -0.70547 -20.35629  -2.56695
H    -2.47838 -21.41121  -1.21611
H    -2.81395 -23.88506  -1.28684
H    -1.31032 -25.28949  -2.70459
H     0.46521 -24.22736  -4.06164
H     0.95346 -19.45154  -3.77927
H     1.68813 -19.78475  -5.34197
H    -0.35721 -18.56445  -5.56831
H    -1.30029 -19.71696  -4.63631
H    -1.65398 -19.75701  -7.13621
H    -0.02635 -20.37343  -7.34762
H    -1.54705 -21.95248  -5.32489
H    -2.42216 -21.87855  -6.83249
H    -2.37497 -22.59093 -10.61985
H    -2.89176 -24.30954 -10.45326
H    -1.19027 -23.91480 -10.89791
H    -2.42603 -25.84126  -4.79009
H    -2.79131 -26.31146  -6.48559
H    -3.97517 -25.32487  -5.55056
