9
Generated by autodE on: 2022-05-26. E = -329.340485 Ha
C    -2.15186   0.61506   0.36534
C    -1.14116  -0.38127  -0.12391
O    -1.44180  -1.46640  -0.59845
C     0.25485   0.01591  -0.00314
C     1.40905   0.35980   0.10291
F     2.62445   0.71072   0.21009
H    -2.03111   1.56405  -0.18241
H    -1.97034   0.83278   1.43071
H    -3.16707   0.22079   0.22551
