17
Generated by autodE on: 2022-07-26. E = -621.861783 Ha
C     2.65062  -2.94505  -1.50404
N     1.75504  -1.82866  -1.27419
C     1.19901  -1.56805  -0.08445
O     1.35768  -2.20275   0.96047
C     0.30393  -0.38029  -0.05987
N    -0.31883   0.03409   1.01495
C    -1.07746   1.15932   0.71624
C    -1.86656   1.85955   1.63548
N    -2.53142   2.45928   2.38487
C    -0.89252   1.44240  -0.66368
O    -1.28504   2.26816  -1.45325
O     0.02172   0.39219  -1.09458
H     3.61892  -2.58901  -1.88650
H     2.81110  -3.47408  -0.55792
H     2.22001  -3.64366  -2.23776
H     1.53008  -1.21769  -2.05554
H    -0.23607  -0.42694   1.92354
