26
Generated by autodE on: 2022-05-26. E = -951.189693 Ha. Imaginary frequency = -408.4 cm-1
C     3.25313  -2.43647  -1.22004
N     2.53155  -1.20541  -0.95604
C     2.01974  -0.93286   0.24714
O     2.20122  -1.55600   1.29272
C     1.07881   0.22818   0.27300
N     0.34261   0.53844   1.31084
C    -0.63495   1.45474   0.89182
C    -1.33604   2.26133   1.83238
N    -1.93904   2.90980   2.58444
C    -0.10476   2.01559  -0.36499
O    -0.39233   2.94175  -1.05612
O     0.92616   1.09239  -0.72284
C    -1.91728   0.23736  -0.02751
F    -3.02139   0.95312   0.06530
C    -1.45301  -0.82010  -0.50761
C    -0.76700  -1.97289  -0.97092
C    -0.69357  -3.14551  -0.01819
O    -0.23050  -2.02228  -2.08849
H     3.96743  -2.27342  -2.03710
H     3.79422  -2.74639  -0.31824
H     2.55099  -3.23479  -1.51122
H     2.17462  -0.68363  -1.75387
H     0.28337  -0.05983   2.13944
H    -0.58190  -4.07550  -0.59387
H    -1.57387  -3.20270   0.63749
H     0.19698  -3.02562   0.62161
