39
Generated by autodE on: 2022-06-17. E = -789.841702 Ha
C    -3.64677   2.34511  -0.38030
O    -3.15686   1.01476  -0.15232
C    -1.99994   0.68575  -0.73073
O    -1.37185   1.46035  -1.42828
C    -1.59763  -0.77324  -0.46923
C    -2.62343  -1.63977  -1.21535
N    -0.23124  -1.01733  -0.96025
C     0.71769  -0.97571   0.17300
C     1.96719  -0.16417  -0.07860
C     3.21692  -0.66721   0.31327
C     4.38152   0.08930   0.14871
C     4.31379   1.36442  -0.41986
C     3.07327   1.87581  -0.81710
C     1.91035   1.12073  -0.64501
C    -0.10938  -0.47182   1.37717
C     0.48715  -0.81467   2.73321
C    -1.51285  -1.03123   1.06532
C    -1.69811  -2.49672   1.45619
H    -4.59096   2.41830   0.17142
H    -2.92809   3.08763  -0.00493
H    -3.81872   2.51202  -1.45337
H    -2.66024  -1.35180  -2.27781
H    -2.33013  -2.69635  -1.16221
H    -3.63157  -1.52406  -0.79197
H     0.00324  -0.31106  -1.65410
H     1.04552  -2.00412   0.40623
H     3.27459  -1.66688   0.75189
H     5.34485  -0.32158   0.46112
H     5.22231   1.95638  -0.55480
H     3.01003   2.87214  -1.26200
H     0.94760   1.53349  -0.95279
H    -0.17196   0.62750   1.29289
H    -0.17266  -0.48908   3.55320
H     1.45931  -0.31397   2.86631
H     0.65582  -1.89736   2.84165
H    -2.28365  -0.44110   1.57987
H    -0.96443  -3.15864   0.97034
H    -2.70302  -2.85556   1.19071
H    -1.58859  -2.61608   2.54430
