27
Generated by autodE on: 2022-06-17. E = -632.486721 Ha
C    -3.67662   2.04230   0.16522
O    -2.58374   1.13585   0.04194
C    -2.89169  -0.16099  -0.28154
O    -4.06045  -0.51492  -0.46016
C    -1.73823  -1.00002  -0.37816
C    -1.82307  -2.44495  -0.71678
N    -0.52151  -0.43711  -0.14687
C     0.67916  -0.99216  -0.17523
C     1.90181  -0.27208   0.09612
C     1.95042   1.10373   0.42488
C     3.16860   1.73161   0.67349
C     4.36976   1.01364   0.60416
C     4.33747  -0.34788   0.28098
C     3.12293  -0.98309   0.03032
H    -4.23452   2.12228  -0.78043
H    -3.24003   3.01589   0.42094
H    -4.36769   1.72464   0.96116
H    -1.25797  -2.68477  -1.63729
H    -2.87073  -2.73140  -0.86941
H    -1.40090  -3.07945   0.08536
H    -0.57399   0.56009   0.08057
H     0.73356  -2.05278  -0.41846
H     1.03317   1.69447   0.48866
H     3.18209   2.79490   0.92479
H     5.32139   1.51251   0.80045
H     5.26715  -0.91923   0.22401
H     3.10354  -2.04631  -0.22162
