27
Generated by autodE on: 2022-07-27. E = -632.487651 Ha
C    -5.01474   0.63977  -0.42231
O    -3.95145  -0.30598  -0.32218
C    -2.69532   0.20382  -0.22547
O    -2.48821   1.42706  -0.22023
C    -1.67458  -0.79313  -0.13305
C    -1.86667  -2.26746  -0.13755
N    -0.41869  -0.28190  -0.03342
C     0.74338  -0.90365   0.06533
C     2.01446  -0.22437   0.16767
C     3.18505  -1.01311   0.26107
C     4.44259  -0.42185   0.36281
C     4.56930   0.97208   0.37463
C     3.41917   1.76686   0.28313
C     2.15837   1.18346   0.18108
H    -5.94005   0.05352  -0.48462
H    -5.04819   1.29518   0.46153
H    -4.90815   1.26318  -1.32347
H    -2.92936  -2.51960  -0.22593
H    -1.32633  -2.74453  -0.97730
H    -1.47611  -2.73098   0.78833
H    -0.42221   0.74507  -0.04109
H     0.72633  -1.99334   0.06808
H     3.09141  -2.10196   0.25232
H     5.33176  -1.05303   0.43345
H     5.55457   1.43659   0.45497
H     3.50648   2.85603   0.29205
H     1.28387   1.83507   0.11329
