39
Generated by autodE on: 2022-06-17. E = -789.770516 Ha. Imaginary frequency = -432.0 cm-1
C    -4.76219   1.25379  -0.77187
O    -3.74082   0.25357  -0.78066
C    -2.46457   0.69282  -0.83207
O    -2.19042   1.89290  -0.90312
C    -1.48037  -0.36523  -0.70750
C    -1.81231  -1.80662  -0.95345
N    -0.19456   0.06890  -0.90849
C     0.85411  -0.60148  -0.37642
C     2.19726  -0.02809  -0.34808
C     3.30157  -0.89265  -0.19971
C     4.59950  -0.38959  -0.10146
C     4.82609   0.98969  -0.15392
C     3.73863   1.86026  -0.29859
C     2.43940   1.36178  -0.38822
C     0.12124  -0.60366   1.73333
C     0.66772  -1.91284   2.24402
C    -1.25046  -0.35037   1.61520
C    -2.31517  -1.31848   2.05093
H    -5.71527   0.71434  -0.71403
H    -4.65325   1.91760   0.09882
H    -4.72791   1.85742  -1.69098
H    -1.64298  -2.06709  -2.01459
H    -1.19882  -2.48582  -0.34563
H    -2.86285  -2.00893  -0.72012
H    -0.12696   1.08690  -0.94265
H     0.79953  -1.68802  -0.43088
H     3.12982  -1.97121  -0.16922
H     5.43980  -1.07912   0.01050
H     5.84174   1.38521  -0.08083
H     3.90473   2.93969  -0.33526
H     1.60886   2.06623  -0.47991
H     0.75921   0.26776   1.90501
H     0.53759  -2.01073   3.33809
H     1.74593  -2.00313   2.03762
H     0.16650  -2.77853   1.78359
H    -1.54849   0.70213   1.62213
H    -2.07975  -2.35657   1.77481
H    -3.29427  -1.06397   1.61855
H    -2.42942  -1.30249   3.15155
