48
Generated by autodE on: 2022-05-31. E = -1115.861186 Ha
C    -3.06643   2.36319  -0.93710
C    -2.58206   1.06816  -1.52693
O    -3.11260   0.55311  -2.49487
C    -1.39265   0.37989  -0.80112
C    -2.01967  -0.33208   0.39287
C    -2.89132  -1.40881   0.17568
C    -3.44756  -2.09541   1.25719
C    -3.14822  -1.70419   2.56647
C    -2.29594  -0.61746   2.78531
C    -1.73717   0.06963   1.70431
O    -0.47588   1.36595  -0.33764
C     0.57425   1.57836  -1.30331
C     0.27546   2.76286  -2.21002
C     0.70091   0.25532  -2.06692
C     1.78311  -0.77028  -1.60036
O     1.17010  -1.99785  -2.02990
C    -0.00204  -1.88167  -1.20065
C     0.61395  -1.62543   0.15870
C     1.72426  -0.89543  -0.07589
C     2.61458  -0.22679   0.87514
C     2.30831  -0.20176   2.25249
C     3.14701   0.44331   3.15899
C     4.30861   1.08728   2.71329
C     4.62020   1.07872   1.35115
C     3.78277   0.42913   0.44064
C    -0.59730  -0.53551  -1.75600
H    -2.39325   3.17597  -1.25050
H    -4.07929   2.57919  -1.30148
H    -3.04710   2.33332   0.16149
H    -3.12943  -1.71695  -0.84454
H    -4.11640  -2.94000   1.07587
H    -3.58126  -2.24241   3.41284
H    -2.05958  -0.30351   3.80489
H    -1.05713   0.90355   1.87373
H     1.47554   1.79525  -0.71123
H     0.06974   3.66584  -1.61582
H     1.14662   2.96349  -2.85304
H    -0.58810   2.56461  -2.86423
H     0.82812   0.42921  -3.14271
H     2.76895  -0.64417  -2.05930
H    -0.65324  -2.75488  -1.30865
H     0.17764  -1.90401   1.11450
H     1.39641  -0.68390   2.61010
H     2.89083   0.45161   4.22120
H     4.96271   1.59635   3.42500
H     5.52139   1.58147   0.99203
H     4.04110   0.43326  -0.61954
H    -1.18831  -0.75037  -2.65193
