25
Generated by autodE on: 2022-07-27. E = -577.042728 Ha
C     2.13466   1.61907  -2.07904
C     1.86674   1.96576  -0.68404
O     0.97464   1.44018   0.06371
C    -0.02947   0.54512  -0.33455
C    -0.90278   0.89862  -1.40187
C    -0.87948   2.30178  -1.98464
O    -1.78887   0.11559  -1.82703
C    -0.15231  -0.56352   0.59966
C    -1.23206  -1.48125   0.55214
C    -1.32575  -2.52487   1.47151
C    -0.35785  -2.69868   2.46780
C     0.71762  -1.80626   2.52452
C     0.82675  -0.76265   1.60593
H     1.71468   2.37060  -2.77218
H     3.22600   1.63535  -2.22976
H     1.69670   0.64143  -2.33604
H     2.49182   2.68606  -0.14498
H    -0.32981   3.04795  -1.39452
H    -0.46286   2.28735  -3.00518
H    -1.92850   2.62264  -2.07038
H    -1.98676  -1.35941  -0.22071
H    -2.17212  -3.21412   1.40779
H    -0.43713  -3.52026   3.18340
H     1.48989  -1.92737   3.28877
H     1.68558  -0.09323   1.66412
