48
Generated by autodE on: 2022-05-31. E = -1115.725677 Ha. Imaginary frequency = -254.1 cm-1
C    -2.81348   2.83725  -1.48649
C    -2.62520   1.33438  -1.39775
O    -3.44991   0.59198  -1.95034
C    -1.60032   0.79955  -0.50741
C    -1.96569  -0.10331   0.59219
C    -2.90600  -1.14122   0.42259
C    -3.20515  -2.00898   1.47465
C    -2.58781  -1.86353   2.72129
C    -1.67199  -0.82062   2.90710
C    -1.36690   0.04928   1.86288
O    -0.43843   1.45671  -0.27008
C     0.41286   2.01686  -1.08112
C     0.08985   2.72875  -2.33890
C     0.88152  -0.10814  -2.37557
C     1.91891  -1.04066  -1.71137
O     1.37813  -2.32894  -2.09085
C     0.07606  -2.08574  -1.49989
C     0.49975  -1.75545  -0.07051
C     1.64911  -1.06308  -0.19010
C     2.42184  -0.34028   0.81517
C     2.15725  -0.50309   2.19223
C     2.86782   0.22227   3.14590
C     3.85911   1.13094   2.75125
C     4.13369   1.30102   1.39182
C     3.42590   0.57120   0.43282
C    -0.30141  -0.76483  -2.23225
H    -2.10499   3.41120  -0.87934
H    -2.78117   3.18365  -2.53017
H    -3.83056   3.03271  -1.10923
H    -3.37954  -1.27578  -0.54787
H    -3.92414  -2.81612   1.31209
H    -2.81988  -2.55001   3.53865
H    -1.18594  -0.68393   3.87654
H    -0.64013   0.84606   2.02165
H     1.36345   2.21042  -0.57750
H    -0.29771   3.74157  -2.13035
H     1.01630   2.84732  -2.91812
H    -0.65513   2.20042  -2.94966
H     1.14920   0.66372  -3.08896
H     2.95837  -0.92735  -2.03532
H    -0.60802  -2.92833  -1.64534
H    -0.07584  -1.97591   0.82237
H     1.38651  -1.20645   2.51180
H     2.64810   0.07998   4.20686
H     4.41366   1.69995   3.50106
H     4.90426   2.00681   1.07242
H     3.64810   0.72157  -0.62524
H    -1.25449  -0.59503  -2.72606
