37
Generated by autodE on: 2022-06-18. E = -967.329114 Ha. Imaginary frequency = -422.8 cm-1
C     3.67599  -1.05323   0.09116
N     2.89310  -1.98240  -0.70886
C     1.61022  -1.85245  -1.08928
O     1.01088  -2.65355  -1.80983
C     0.89584  -0.65976  -0.56920
N     1.14735   0.51802  -0.40355
N     0.48009   1.59655  -0.23071
C     0.91885   2.44155   0.77739
C     0.00012   3.60704   1.01669
O     1.94127   2.25167   1.43383
C    -1.65937   0.23824  -0.18881
C    -1.85268   0.78976  -1.55235
N    -2.63402   1.88792  -1.65213
O    -1.35218   0.25426  -2.55515
C    -2.28714   0.87020   1.03208
C    -1.65662   0.30520   2.27994
C    -1.12625  -0.92809   2.27800
N    -1.07257  -1.71607   1.12192
C    -0.39521  -3.00088   1.20683
C    -1.11069  -1.04568  -0.10118
H     4.56802  -1.58044   0.45128
H     3.10540  -0.69732   0.95911
H     3.99728  -0.17624  -0.49295
H     3.36928  -2.78745  -1.11168
H     0.59759   4.51827   1.16610
H    -0.55988   3.42377   1.94885
H    -0.71244   3.74589   0.19461
H    -2.75302   2.31597  -2.56428
H    -3.01022   2.36412  -0.84176
H    -2.18781   1.96450   1.01192
H    -3.38139   0.67245   1.02294
H    -1.66753   0.88951   3.20138
H    -0.70734  -1.38954   3.17472
H     0.69172  -2.88877   1.37045
H    -0.55317  -3.56507   0.27962
H    -0.80892  -3.58186   2.04290
H    -1.10280  -1.67645  -0.99411
