54
Generated by autodE on: 2022-12-30. E = -1227.048178 Ha. Imaginary frequency = -306.7 cm-1
C     4.10048  -0.85823   1.09490
N     2.72945  -0.82412   0.63172
C     2.30437   0.08792  -0.26204
O     3.09677   0.89994  -0.78047
C     0.85684   0.12230  -0.63601
C     0.61519   0.56722  -2.09157
C     1.27418  -0.51636  -2.99474
C     0.37539  -1.76138  -2.75176
C    -0.74047  -1.21369  -1.79989
C    -0.86438   0.23135  -2.31170
C    -0.04833  -1.00378  -0.45801
O     0.31529  -2.03613   0.32138
C    -0.38434  -3.27876   0.21172
C    -1.74439   0.03517   0.88702
C    -1.67272  -0.56492   2.25718
C    -1.94161   0.36146   3.42246
O    -1.61302  -1.77503   2.44053
C    -3.01009  -0.19404   0.16653
C    -3.76639  -1.48954   0.30926
O    -3.45287   0.68249  -0.59237
N    -1.26488   1.33051   0.68651
C     0.05267   1.68360   0.65358
C     0.33914   2.98658  -0.04015
C     0.92424   1.30964   1.82118
C     2.13854   2.15243   2.09309
O     0.65492   0.35535   2.53983
H     4.36970   0.06472   1.63404
H     4.22201  -1.70941   1.77659
H     4.80402  -0.97444   0.25547
H     2.04450  -1.46692   1.01657
H     0.93415   1.58946  -2.31841
H     2.32892  -0.68959  -2.74487
H     1.23049  -0.19309  -4.04555
H     0.92704  -2.59962  -2.30496
H    -0.08812  -2.12347  -3.68088
H    -1.64969  -1.82244  -1.77651
H    -1.56566   0.85151  -1.75339
H    -1.14427   0.26261  -3.37487
H    -0.02167  -3.90513   1.03513
H    -1.46365  -3.12772   0.31799
H    -0.15868  -3.76475  -0.74863
H    -1.68045   1.40567   3.22206
H    -3.02847   0.31195   3.61515
H    -1.41854  -0.00141   4.31792
H    -4.82622  -1.29721   0.09321
H    -3.39611  -2.20238  -0.44541
H    -3.65239  -1.96029   1.29154
H    -1.84006   1.81329  -0.00843
H     0.20300   3.83630   0.64846
H    -0.33996   3.12032  -0.89326
H     1.37132   3.01222  -0.40893
H     1.81605   3.16894   2.37242
H     2.77711   2.24933   1.20524
H     2.70493   1.70678   2.92013
