47
Generated by autodE on: 2022-06-09. E = -8810.891848 Ha
C    -3.87701   0.84897   1.67466
O    -2.60513   0.33112   1.26324
C    -1.88528  -0.32254   2.16526
O    -2.24726  -0.52357   3.30383
C    -0.58897  -0.92835   1.55462
C     0.38794  -1.27135   2.68255
C    -0.04500  -0.03881   0.42299
C    -0.26391  -0.62493  -0.77939
C    -0.02715  -0.14673  -2.19858
Br    1.98891  -0.06393  -2.54516
C    -0.39990  -1.15929  -3.19264
N    -0.72096  -1.89623  -4.02918
C    -0.77895   1.16458  -2.63779
C    -1.43281   2.02033  -1.55455
C    -0.48825   2.97412  -0.83341
C     0.80748   2.34728  -0.32845
C     0.68834   1.25173   0.72649
Br    2.58527   0.73226   1.17578
Br   -0.05464   2.14560   2.35895
C    -0.90533  -2.00448  -0.58962
C    -0.02283  -3.07426  -1.12744
N     0.68077  -3.92837  -1.47541
C    -2.34379  -2.05876  -1.25770
C    -2.84524  -3.36889  -1.77492
O    -2.98959  -1.03497  -1.29587
N    -0.95959  -2.16026   0.84759
C    -1.89869  -3.09377   1.43962
H    -4.31762   1.30614   0.78175
H    -4.51781   0.03728   2.04638
H    -3.74214   1.60365   2.46314
H    -0.09665  -1.98095   3.36618
H     0.67659  -0.39081   3.26733
H     1.28504  -1.74033   2.26256
H    -0.09569   1.76117  -3.25888
H    -1.57673   0.81813  -3.30831
H    -1.96806   1.37758  -0.84456
H    -2.20706   2.61901  -2.05890
H    -0.18409   3.77329  -1.52889
H    -1.02032   3.46600  -0.00507
H     1.38068   1.93924  -1.16953
H     1.44333   3.13120   0.10413
H    -2.62620  -4.19450  -1.08398
H    -3.92273  -3.29805  -1.96943
H    -2.31902  -3.59118  -2.71810
H    -1.76910  -4.08601   0.98346
H    -1.68093  -3.19734   2.51001
H    -2.95727  -2.78976   1.33233
