26
Generated by autodE on: 2022-06-09. E = -685.646862 Ha
C     2.84869   2.05287   1.19775
O     2.42947   0.73659   0.80483
C     1.41900   0.66986  -0.05387
O     0.91367   1.63060  -0.59586
C     1.08221  -0.75318  -0.40511
C     2.19741  -1.72780  -0.57266
N    -0.15601  -1.07820  -0.69484
C    -0.42048  -2.39070  -1.31694
C    -1.27508  -0.32344  -0.27467
C    -2.43525  -0.36109  -1.06886
N    -3.41233  -0.36409  -1.71378
C    -1.28170   0.30181   1.01629
C    -2.58439   0.90915   1.48702
O    -0.26854   0.34941   1.73972
H     3.66668   1.90722   1.91192
H     3.19879   2.62137   0.32464
H     2.01296   2.58407   1.67514
H     1.94008  -2.70833  -0.14566
H     2.41425  -1.88016  -1.64477
H     3.10450  -1.34956  -0.09084
H     0.27860  -2.56414  -2.14205
H    -1.44566  -2.40223  -1.69786
H    -0.30757  -3.17942  -0.55986
H    -3.43008   0.21365   1.38312
H    -2.81412   1.80162   0.88156
H    -2.47832   1.21106   2.53695
