21
Generated by autodE on: 2022-06-09. E = -8125.170740 Ha
N    -1.72737  -4.25439  -0.25542
C    -1.46115  -3.18045  -0.60296
C    -1.16647  -1.81313  -1.02527
Br   -0.42980  -1.99214  -2.90904
C    -0.17334  -1.14135  -0.21547
C     0.33634  -0.20353   0.35883
C     0.46492   1.13799   0.85626
Br    2.33003   1.79469   0.69269
Br   -0.03088   1.14519   2.78947
C    -0.48811   2.04561   0.05574
C    -1.92545   1.51184  -0.11655
C    -2.22038   0.56911  -1.31683
C    -2.44492  -0.92947  -1.04388
H    -0.03005   2.18607  -0.93621
H    -0.49992   3.02841   0.54848
H    -2.27207   1.05455   0.82451
H    -2.54891   2.40768  -0.25189
H    -1.45262   0.69450  -2.09771
H    -3.15776   0.91781  -1.77410
H    -2.92115  -1.06659  -0.05881
H    -3.12496  -1.36105  -1.79242
