47
Generated by autodE on: 2022-06-09. E = -8810.796609 Ha. Imaginary frequency = -307.4 cm-1
C    -1.73410   0.69874   4.35663
O    -1.33375   0.10158   3.11644
C    -0.12823  -0.42400   3.05433
O     0.65041  -0.47115   3.98364
C     0.24596  -0.96873   1.68080
C     1.74498  -0.99620   1.51320
C    -0.07344   0.43419  -0.03111
C     0.14749  -0.32394  -1.01605
C     0.55946  -0.34184  -2.43106
Br    2.25177  -1.47757  -2.60602
C    -0.41042  -0.97939  -3.31921
N    -1.18048  -1.41869  -4.06667
C     0.92026   1.05284  -2.99786
C     1.82281   1.88467  -2.07434
C     1.11588   3.07940  -1.42074
C    -0.28103   2.83890  -0.84448
C    -0.42229   1.82222   0.29370
Br   -2.37409   1.85925   0.78632
Br    0.63427   2.49009   1.85451
C    -0.17585  -2.46655  -0.08785
C     1.03556  -3.22939  -0.07865
N     1.96780  -3.92584  -0.03514
C    -1.21826  -2.90140  -1.06683
C    -0.82896  -3.97773  -2.04436
O    -2.32684  -2.38477  -1.07659
N    -0.55440  -1.92136   1.13834
C    -1.92656  -2.14450   1.64103
H    -1.04123   1.50820   4.62683
H    -2.73881   1.09936   4.18457
H    -1.75067  -0.05629   5.15503
H     2.16280  -0.04631   1.86457
H     2.15735  -1.80240   2.14122
H     2.06686  -1.15341   0.48242
H     1.37951   0.89104  -3.98218
H    -0.03417   1.56629  -3.19076
H     2.26894   1.23762  -1.30452
H     2.67045   2.27113  -2.65853
H     1.77093   3.50723  -0.64634
H     0.98327   3.86813  -2.17947
H    -0.96606   2.50130  -1.63660
H    -0.68089   3.79587  -0.48084
H    -0.74755  -4.93288  -1.49840
H    -1.59703  -4.05883  -2.82201
H     0.15187  -3.78925  -2.50327
H    -2.29408  -3.09134   1.24145
H    -1.89060  -2.22551   2.73173
H    -2.59616  -1.32810   1.34915
