57
Generated by autodE on: 2022-07-01. E = -6649.626388 Ha
C    -1.72088   0.67460   3.91428
N    -0.71682  -0.36172   3.77908
C     0.59295  -0.08688   3.89341
O     0.98927   1.06930   4.08069
C     1.58206  -1.29586   4.00057
C     1.13914  -2.61865   3.32485
C     0.27516  -2.72147   2.22528
C    -0.02474  -3.96498   1.65800
C     0.53856  -5.13226   2.17317
C     1.39979  -5.04489   3.27217
C     1.68869  -3.80510   3.83853
C     3.00406  -0.83873   3.58084
C     3.79611  -0.70195   4.68091
C     5.24897  -0.23016   4.77797
C     5.96575  -0.40279   6.12419
Cl    6.29538  -1.39385   3.71608
C     5.43522   1.26649   4.37942
C     4.37516   1.99079   3.55014
C     4.41264   1.72022   2.05046
C     4.48915   0.24819   1.65687
C     3.34699  -0.65975   2.11272
Br    3.77620  -2.48234   1.33855
Br    1.76785   0.00346   1.04330
C     2.99428  -0.98616   5.96687
C     3.61528  -2.06478   6.88263
C     2.73198   0.31330   6.76250
N     1.75712  -1.54975   5.42344
C     0.59033  -1.66799   6.26128
H    -1.56452   1.47144   3.17073
H    -1.69145   1.13564   4.91556
H    -2.71230   0.23214   3.75604
H    -1.01569  -1.32749   3.71262
H    -0.16742  -1.83337   1.78417
H    -0.70321  -4.01224   0.80258
H     0.30717  -6.10242   1.72644
H     1.85120  -5.94872   3.68926
H     2.36027  -3.73784   4.69382
H     5.46106   0.15233   6.92325
H     6.06746  -1.45138   6.41540
H     6.97539   0.01733   6.01561
H     5.49179   1.79353   5.34384
H     6.43155   1.37102   3.92160
H     4.53010   3.07097   3.70607
H     3.37463   1.77052   3.94620
H     3.54441   2.19693   1.56937
H     5.31033   2.19514   1.61913
H     5.42364  -0.18249   2.02454
H     4.53163   0.16910   0.56235
H     4.33355  -1.65889   7.60242
H     4.10412  -2.85290   6.29174
H     2.80896  -2.53079   7.46637
H     3.66055   0.81762   7.05797
H     2.13037   1.00993   6.16623
H     2.18085   0.07557   7.68543
H     0.87080  -2.09174   7.23653
H     0.05799  -0.71480   6.45476
H    -0.12712  -2.36617   5.80297
