23
Generated by autodE on: 2022-07-01. E = -5958.283362 Ha
C     3.05805  -0.80431  -2.40371
C     1.61928  -0.30405  -2.47682
Cl    1.54929   0.99631  -3.80194
C     1.15735   0.26433  -1.22247
C     0.58167   0.31332  -0.15552
C    -0.31104  -0.14247   0.87114
Br    0.42235   0.19935   2.69063
Br   -2.03948   0.85451   0.71663
C    -0.55230  -1.65156   0.68526
C    -0.89880  -2.10094  -0.75005
C     0.26495  -2.42401  -1.72925
C     0.59390  -1.40747  -2.84597
H     3.74300   0.01073  -2.13324
H     3.35543  -1.22066  -3.37650
H     3.13378  -1.59386  -1.64076
H     0.36871  -2.15947   1.01323
H    -1.34944  -1.94872   1.38203
H    -1.59429  -1.37944  -1.20949
H    -1.48014  -3.02679  -0.62514
H    -0.01294  -3.35125  -2.25268
H     1.17509  -2.67599  -1.16025
H     1.00348  -1.93623  -3.72054
H    -0.33413  -0.91350  -3.17019
