34
Generated by autodE on: 2022-07-01. E = -691.266053 Ha
C    -0.49885   3.74188   0.92775
N    -0.05727   2.36832   0.81853
C    -0.86679   1.40511   0.25953
O    -2.09496   1.65665   0.13432
C    -0.27630   0.14605  -0.11294
C     1.13788  -0.17269  -0.25057
C     1.58572  -1.50480  -0.04368
C     2.92629  -1.86088  -0.18612
C     3.88827  -0.90387  -0.52877
C     3.47175   0.41522  -0.74568
C     2.12953   0.77329  -0.62397
N    -1.18936  -0.91129  -0.38892
C    -1.11721  -1.53868  -1.72072
C    -2.15831  -1.25366   0.43291
C    -3.25611  -2.15434  -0.03157
C    -2.18723  -0.75451   1.82861
H     0.27817   4.32551   1.43943
H    -1.42701   3.81542   1.51443
H    -0.69090   4.21128  -0.05495
H     0.93829   2.19591   0.86045
H     0.86187  -2.26892   0.24825
H     3.22482  -2.89872  -0.01400
H     4.93983  -1.18085  -0.63164
H     4.20036   1.17697  -1.03646
H     1.84180   1.79936  -0.85699
H    -1.92372  -1.13867  -2.35331
H    -1.21716  -2.62908  -1.65252
H    -0.15536  -1.28766  -2.17584
H    -3.65561  -1.84143  -1.00820
H    -2.88679  -3.18829  -0.14795
H    -4.07313  -2.16657   0.70031
H    -1.17761  -0.49146   2.17649
H    -2.79607   0.16581   1.88098
H    -2.64669  -1.50750   2.48504
