57
Generated by autodE on: 2022-07-01. E = -6649.530757 Ha. Imaginary frequency = -215.3 cm-1
C    -2.13306   0.53630   5.63729
N    -1.09149  -0.44710   5.43011
C    -0.39119  -0.48923   4.25974
O    -0.80595   0.12339   3.26802
C     0.79827  -1.38672   4.25317
C     0.88167  -2.41026   3.19449
C    -0.23757  -2.75155   2.40878
C    -0.13943  -3.68801   1.37994
C     1.07571  -4.32848   1.11517
C     2.19203  -4.01832   1.89974
C     2.09832  -3.07306   2.91843
C     2.92734  -0.05068   3.59281
C     3.59878  -0.27191   4.62651
C     4.95297  -0.31600   5.21379
C     5.15705   0.51699   6.47258
Cl    5.28873  -2.11435   5.68733
C     6.00175   0.03630   4.14450
C     5.76788   1.44874   3.57062
C     5.42558   1.48957   2.08147
C     4.30499   0.57827   1.56826
C     2.93738   0.58250   2.27940
Br    1.67519  -0.21648   0.94786
Br    2.32076   2.49373   2.54743
C     1.93874  -0.67100   6.25498
C     2.41913  -1.07322   7.62553
C     1.49308   0.76107   6.16619
N     1.40214  -1.65108   5.47588
C     1.66806  -3.04423   5.88110
H    -1.75631   1.56557   5.50644
H    -2.52431   0.43323   6.65743
H    -2.96378   0.39411   4.92840
H    -0.71768  -0.92586   6.24005
H    -1.19219  -2.25657   2.58739
H    -1.02364  -3.92450   0.78202
H     1.15156  -5.06146   0.30826
H     3.15089  -4.50621   1.70547
H     2.98884  -2.81982   3.49310
H     4.96284   1.57562   6.24466
H     4.49227   0.21472   7.28415
H     6.19766   0.42075   6.81350
H     5.95658  -0.72116   3.34952
H     6.99662  -0.04482   4.60672
H     6.66511   2.06620   3.73201
H     4.96172   1.95110   4.12571
H     6.31911   1.21577   1.49450
H     5.18718   2.52962   1.80918
H     4.62639  -0.47565   1.58331
H     4.13297   0.83453   0.51426
H     3.23255  -1.80891   7.60433
H     2.75728  -0.18929   8.17784
H     1.58411  -1.50973   8.20257
H     2.29887   1.40522   6.54369
H     0.61381   0.91725   6.81635
H     1.23819   1.08282   5.15181
H     2.74211  -3.26936   5.87129
H     1.27758  -3.19932   6.89515
H     1.14442  -3.72404   5.20684
