37
Generated by autodE on: 2022-10-23. E = -937.905797 Ha
C    -1.93268   2.72607   1.58536
O    -1.62952   1.42457   1.05729
C    -0.57865   1.33981   0.25426
O     0.09567   2.28131  -0.10254
C    -0.38582  -0.07347  -0.24870
C    -1.58665  -0.88294  -0.49995
C    -1.67443  -2.20301  -0.02233
C    -2.83065  -2.94934  -0.24473
C    -3.90050  -2.39381  -0.95441
C    -3.82040  -1.07923  -1.42710
C    -2.67657  -0.31923  -1.18982
N     0.82813  -0.47517  -0.54478
C     1.06174  -1.70121  -1.32777
C     1.96631   0.08773   0.10249
C     1.84331   0.19416   1.53519
C     3.06660   0.48570   2.37123
O     0.74321   0.05074   2.10945
C     3.07693   0.56149  -0.67971
C     2.87926   0.76690  -2.17420
O     4.17409   0.88242  -0.18734
H    -2.82419   2.59606   2.20851
H    -2.13429   3.43214   0.76765
H    -1.09032   3.09018   2.19073
H    -0.84863  -2.62972   0.54780
H    -2.89796  -3.96876   0.14094
H    -4.80242  -2.98362  -1.13277
H    -4.65578  -0.64199  -1.97786
H    -2.61807   0.70853  -1.55371
H     2.01024  -1.59265  -1.86218
H     0.24661  -1.85735  -2.04256
H     1.14636  -2.56189  -0.65150
H     2.79018   0.39355   3.43030
H     3.41699   1.51042   2.17205
H     3.90274  -0.18381   2.13064
H     3.37041   1.71310  -2.44489
H     1.82789   0.80368  -2.48744
H     3.39081  -0.03369  -2.73335
