37
Generated by autodE on: 2022-10-26. E = -937.905049 Ha
C    -1.09958   2.58520   2.10482
O    -0.27813   1.58033   1.47409
C    -0.60594   1.22612   0.24633
O    -1.49117   1.71090  -0.42306
C     0.34879   0.19322  -0.32898
C     1.67764   0.65439  -0.71661
C     1.82892   1.97590  -1.18869
C     3.08986   2.45200  -1.53575
C     4.21410   1.63217  -1.38626
C     4.07538   0.33120  -0.89054
C     2.81583  -0.16405  -0.56277
N    -0.13178  -1.01043  -0.47704
C     0.50483  -2.05130  -1.29312
C    -1.32943  -1.36686   0.25065
C    -2.56244  -1.46540  -0.48567
C    -2.55416  -1.12392  -1.96923
O    -3.64258  -1.80769   0.02808
C    -1.17882  -1.61756   1.66210
C     0.22252  -1.59056   2.26298
O    -2.13674  -1.86822   2.41541
H    -1.06018   3.51768   1.52549
H    -0.67425   2.73118   3.10318
H    -2.13618   2.22805   2.17417
H     0.95499   2.61897  -1.30716
H     3.19793   3.46854  -1.91869
H     5.20386   2.01200  -1.64904
H     4.95499  -0.30106  -0.75505
H     2.72220  -1.16906  -0.15305
H     1.08634  -2.72377  -0.64741
H     1.14896  -1.60728  -2.06031
H    -0.29537  -2.63463  -1.76255
H    -1.76661  -0.42023  -2.26704
H    -2.42988  -2.05061  -2.55474
H    -3.53563  -0.70159  -2.22714
H     0.99748  -1.99030   1.59402
H     0.50467  -0.55794   2.52147
H     0.20286  -2.17885   3.19028
