22
Generated by autodE on: 2022-10-23. E = -574.825621 Ha
C    -2.75858   1.47492  -0.38437
O    -1.32849   1.39655  -0.51196
C    -0.68250   0.40745   0.07343
C     0.65955   0.15436   0.06851
C     1.76514   0.81509  -0.58069
C     1.50316   2.12491  -1.28639
O     2.89995   0.31614  -0.56377
C     0.76393  -1.19281   0.81324
C     0.12609  -2.27786  -0.08022
C    -1.18367  -2.01022  -0.07703
C    -1.32498  -0.77871   0.84326
O    -0.28420  -1.02385   1.79642
H    -3.06590   2.33966  -0.98368
H    -3.23229   0.56383  -0.77766
H    -3.04233   1.63072   0.66651
H     1.01247   2.84447  -0.61292
H     2.45052   2.54080  -1.65472
H     0.81719   1.96569  -2.13436
H     1.73292  -1.41510   1.27083
H     0.67729  -3.03822  -0.63287
H    -2.00019  -2.47851  -0.62476
H    -2.29538  -0.60081   1.31588
