59
Generated by autodE on: 2022-10-23. E = -1512.690582 Ha. Imaginary frequency = -255.9 cm-1
C     1.16814   1.99222   3.44709
O     1.41705   1.41135   2.16346
C     0.72530   0.30753   1.85510
O    -0.08021  -0.17351   2.64516
C     1.01518  -0.19985   0.51028
C     2.31022   0.17031  -0.12498
C     2.40213   0.34226  -1.52004
C     3.61667   0.66565  -2.12569
C     4.77302   0.81166  -1.35410
C     4.70451   0.61769   0.02915
C     3.48998   0.29835   0.63654
N     0.40290  -1.36169   0.05861
C     1.23937  -2.30593  -0.72161
C    -0.91162  -1.68352   0.33100
C    -1.68042  -2.57856  -0.60129
C    -1.28298  -2.79832  -2.04509
O    -2.71685  -3.10222  -0.19870
C    -1.33766  -1.98097   1.76717
C    -0.40848  -2.93131   2.48662
O    -2.44536  -1.72985   2.20095
C    -1.88616   0.34459  -0.18061
C    -3.12703   0.33222   0.62038
C    -3.17480   1.01903   1.95665
O    -4.14812  -0.12851   0.10344
C    -2.09634   0.23116  -1.71674
C    -2.74493   1.54535  -2.17710
C    -1.77749   2.46542  -2.09072
C    -0.54776   1.68943  -1.57849
O    -0.74665   0.41133  -2.18468
C    -0.87689   1.34748  -0.10726
O    -0.83032   2.28633   0.84793
C    -0.00305   3.43479   0.61677
H     0.11816   2.30466   3.53432
H     1.82907   2.86405   3.51341
H     1.40346   1.27624   4.24778
H     1.51720   0.20570  -2.13756
H     3.65808   0.80207  -3.20881
H     5.72398   1.06499  -1.82850
H     5.60503   0.70770   0.64114
H     3.46044   0.13420   1.71331
H     2.24591  -2.30076  -0.28836
H     1.31532  -2.05158  -1.78310
H     0.83429  -3.31415  -0.60644
H    -0.66966  -2.00236  -2.47556
H    -0.72665  -3.74577  -2.11695
H    -2.20876  -2.91904  -2.62411
H     0.64910  -2.73051   2.27788
H    -0.60445  -2.89194   3.56664
H    -0.64077  -3.94760   2.12246
H    -2.25966   0.86495   2.53804
H    -3.27250   2.10274   1.77200
H    -4.05572   0.67373   2.51323
H    -2.55335  -0.68183  -2.09680
H    -3.79307   1.66210  -2.44878
H    -1.81244   3.53872  -2.27283
H     0.44013   2.10643  -1.78998
H     0.02649   3.98736   1.56275
H    -0.44567   4.07330  -0.16240
H     1.01403   3.13750   0.33129
