59
Generated by autodE on: 2022-06-08. E = -1587.125844 Ha
C   -14.36877  -4.12302   1.61710
N   -12.99299  -3.69052   1.77921
C   -12.13119  -4.36151   2.54332
O   -12.41910  -5.34392   3.23618
C   -10.71969  -3.82307   2.57629
O   -10.47319  -2.73685   1.68780
C    -9.16681  -2.47184   2.12976
C    -8.60952  -1.23306   1.50183
O    -9.39906  -2.23358   3.59172
C   -10.38410  -3.09275   3.91588
O   -10.88277  -3.19334   5.00270
C    -8.48760  -3.88170   2.07522
C    -9.49404  -4.75069   2.30456
C    -9.71317  -6.25404   2.34777
C   -10.82027  -6.57064   1.29470
C   -11.63382  -7.83012   1.35707
O   -10.95119  -5.78936   0.36741
C   -10.00987  -6.62835   3.80194
O    -9.67739  -5.92714   4.73729
O   -10.55430  -7.82674   3.94753
C   -10.82315  -8.26069   5.29099
C    -8.53162  -7.17953   1.90065
C    -7.77571  -6.71212   0.64932
C    -6.35311  -6.26936   0.99112
C    -6.27383  -5.31357   2.17917
C    -6.97190  -3.93003   2.01584
C    -6.48992  -3.37519   0.65820
C    -5.05922  -2.94931   0.49112
O    -7.26399  -3.35858  -0.28384
C    -6.48357  -3.09538   3.24402
C    -6.73207  -3.68040   4.60816
O    -5.91614  -2.02939   3.10682
H   -14.80597  -4.37315   2.59358
H   -14.43212  -5.01344   0.97053
H   -14.94708  -3.31055   1.16130
H   -12.63682  -2.92658   1.21251
H    -8.59397  -1.36009   0.41340
H    -9.26954  -0.39423   1.76267
H    -7.59641  -1.01623   1.85534
H   -11.03963  -8.70854   1.63475
H   -12.40973  -7.70266   2.12587
H   -12.11289  -7.97820   0.38038
H    -9.89161  -8.30533   5.87224
H   -11.52872  -7.57018   5.77414
H   -11.26630  -9.25858   5.19982
H    -7.84492  -7.29349   2.74982
H    -8.96009  -8.17745   1.74632
H    -8.31750  -5.89432   0.15300
H    -7.73079  -7.53254  -0.08224
H    -5.86952  -5.83284   0.10311
H    -5.75541  -7.15681   1.25843
H    -6.68185  -5.79100   3.07792
H    -5.21465  -5.11463   2.39847
H    -4.75002  -3.13963  -0.54582
H    -4.37682  -3.43714   1.19790
H    -5.00683  -1.86499   0.67671
H    -6.81972  -2.86172   5.33439
H    -5.85600  -4.29061   4.88457
H    -7.61818  -4.32597   4.64342
