18
Generated by autodE on: 2022-06-08. E = -588.769532 Ha
C     3.01779   0.19868   0.09260
N     2.33489  -1.07889  -0.01830
C     1.01186  -1.33093   0.13272
O     0.58518  -2.48187   0.32794
C     0.08065  -0.20932   0.05457
O    -1.20407  -0.47110   0.56913
C    -1.97357   0.53045   0.30853
C    -3.37428   0.58919   0.74780
O    -1.38280   1.46041  -0.35441
C     0.05504   1.01567  -0.60462
O     0.75914   1.74394  -1.26232
H     2.48785   0.86354   0.78922
H     4.02486   0.02021   0.49297
H     3.11508   0.71760  -0.87237
H     2.90709  -1.91876  -0.01273
H    -3.65597  -0.35473   1.22814
H    -4.01879   0.79069  -0.12144
H    -3.49222   1.42547   1.45601
