18
Generated by autodE on: 2022-07-27. E = -588.775310 Ha
C    -2.95842  -1.46710  -1.73775
N    -1.76820  -0.73512  -1.35525
C    -1.23296  -0.86060  -0.11932
O    -1.72835  -1.59642   0.75232
C    -0.03544  -0.08941   0.16083
O     0.53396   0.73910  -0.82186
C     1.58677   1.30784  -0.32847
C     2.41338   2.24080  -1.10631
O     1.81772   0.97162   0.88794
C     0.71835  -0.01721   1.32286
O     0.76114  -0.45326   2.44560
H    -3.80063  -1.24377  -1.06373
H    -2.79098  -2.55650  -1.71637
H    -3.23904  -1.17652  -2.75746
H    -1.32166  -0.12824  -2.03353
H     3.43889   1.84422  -1.17301
H     2.46019   3.20646  -0.57893
H     1.98951   2.37188  -2.10835
