41
Generated by autodE on: 2022-06-08. E = -998.282230 Ha
C     1.66089  -0.82242   4.08031
O     1.43527  -0.14029   2.83554
C     2.01555  -0.65447   1.75300
O     2.70087  -1.65155   1.75801
C     1.71233   0.19696   0.51129
C     2.55076   1.49370   0.62728
C     1.97832   2.73595   0.01973
O     3.63899   1.44615   1.16814
C     0.27679   0.41139   0.37193
C    -0.84397   0.27971  -0.06807
C    -1.90223  -0.15754  -0.96972
C    -3.23099  -0.55738  -0.28525
C    -3.18378  -0.90227   1.17025
O    -4.24598  -0.60681  -0.95468
C    -2.24104   0.96564  -1.98764
C    -2.43118   2.34301  -1.42211
O    -2.34479   0.71824  -3.17100
C    -1.35818  -1.43548  -1.68683
C     0.08340  -1.33983  -2.22690
C     1.26014  -1.68474  -1.27034
C     2.17039  -0.53401  -0.79370
H     1.28989  -1.85545   4.02122
H     1.10335  -0.25964   4.83737
H     2.73349  -0.82873   4.32118
H     2.74153   3.52328  -0.02399
H     1.57061   2.52975  -0.98146
H     1.13347   3.07246   0.64393
H    -2.96838   0.01468   1.74381
H    -4.14352  -1.32621   1.49198
H    -2.35940  -1.60288   1.37412
H    -3.01676   2.31149  -0.49048
H    -2.91350   2.99323  -2.16320
H    -1.44085   2.75609  -1.16647
H    -1.43076  -2.27965  -0.98264
H    -2.05279  -1.64093  -2.51291
H     0.24451  -0.34812  -2.67997
H     0.12821  -2.05235  -3.06510
H     1.92331  -2.37888  -1.80905
H     0.89054  -2.25134  -0.40018
H     3.18439  -0.90942  -0.59760
H     2.25187   0.22091  -1.59097
