59
Generated by autodE on: 2022-06-08. E = -1587.048234 Ha. Imaginary frequency = -347.0 cm-1
C   -14.13425  -4.67424   1.27823
N   -13.02145  -3.86689   1.73761
C   -12.28723  -4.20321   2.81761
O   -12.61436  -5.07787   3.63651
C   -11.02960  -3.47849   3.00528
O   -10.55252  -2.62220   2.03929
C    -9.42193  -2.11685   2.49142
C    -8.77507  -1.00151   1.77265
O    -9.37748  -2.21892   3.82360
C   -10.38679  -3.14427   4.23653
O   -10.50022  -3.45597   5.39828
C    -8.26397  -4.11191   2.18853
C    -9.14669  -4.94835   2.42259
C    -9.70562  -6.31090   2.41595
C   -10.80654  -6.43121   1.32719
C   -11.70158  -7.63440   1.26320
O   -10.88218  -5.55166   0.48860
C   -10.07274  -6.70550   3.85084
O    -9.52913  -6.20631   4.81419
O   -10.95875  -7.68449   3.93513
C   -11.35926  -8.08373   5.25629
C    -8.53723  -7.28531   1.96689
C    -7.77045  -6.81039   0.71724
C    -6.33255  -6.32478   0.97327
C    -6.08987  -5.31665   2.10205
C    -6.80185  -3.92611   1.98036
C    -6.51696  -3.34024   0.58630
C    -5.10078  -2.98942   0.22458
O    -7.42466  -3.20872  -0.21598
C    -6.26842  -3.01535   3.11945
C    -6.38363  -3.53981   4.52370
O    -5.78449  -1.92485   2.88061
H   -14.60934  -5.16410   2.13652
H   -13.80143  -5.44930   0.56769
H   -14.87545  -4.03524   0.77906
H   -12.59769  -3.23264   1.06719
H    -8.84183  -1.17995   0.69363
H    -9.30986  -0.07008   2.02709
H    -7.72675  -0.89747   2.07150
H   -11.19913  -8.55792   1.57373
H   -12.54313  -7.47058   1.95319
H   -12.09009  -7.72354   0.24000
H   -10.49463  -8.45406   5.82439
H   -11.81093  -7.22970   5.78025
H   -12.09701  -8.88163   5.11666
H    -7.85947  -7.38389   2.82721
H    -8.98410  -8.27597   1.80749
H    -8.34055  -6.02660   0.19907
H    -7.70905  -7.64821   0.00600
H    -5.92854  -5.92867   0.02675
H    -5.70980  -7.20144   1.21907
H    -6.39845  -5.75075   3.06235
H    -5.00634  -5.13700   2.17638
H    -4.93827  -3.20690  -0.84034
H    -4.35442  -3.50195   0.84334
H    -4.97599  -1.90584   0.37799
H    -6.39396  -2.69467   5.22423
H    -5.49266  -4.15472   4.73559
H    -7.26899  -4.17335   4.66540
