24
Generated by autodE on: 2022-06-20. E = -705.349410 Ha
C     4.47819   0.28789   0.66682
C     3.13469   0.11180   1.30929
O     2.95913  -0.03354   2.51940
C     1.97525   0.11444   0.43063
N     0.71233  -0.03023   0.81532
C    -0.14455   0.01513  -0.24641
C    -1.58799  -0.10870  -0.16705
C    -2.36603  -0.06996  -1.34493
C    -3.75352  -0.19144  -1.27968
C    -4.39631  -0.35347  -0.04805
C    -3.63400  -0.39112   1.12505
C    -2.24671  -0.26991   1.07101
C     0.68041   0.20685  -1.40393
O     0.47455   0.31976  -2.59998
O     2.00753   0.26049  -0.89874
H     4.51366   1.24182   0.11599
H     5.25834   0.27056   1.43802
H     4.65584  -0.51545  -0.06660
H     0.46560  -0.15793   1.79869
H    -1.87124   0.05543  -2.30748
H    -4.33822  -0.15987  -2.20208
H    -5.48335  -0.44926  -0.00131
H    -4.12403  -0.51596   2.09343
H    -1.67834  -0.30009   2.00268
