20
Generated by autodE on: 2022-06-20. E = -457.715321 Ha
C    -3.03819  -0.04482   0.93315
N    -1.73305  -0.41884   0.41368
C    -1.56801  -1.66635  -0.20101
C    -0.40989  -2.05151  -0.75993
C     0.82260  -1.18146  -0.78649
C     0.54564   0.15168  -0.11075
C     1.58744   1.18524  -0.00232
N     2.79225   0.87649  -0.54483
O     1.40713   2.28943   0.55064
C    -0.67496   0.43932   0.42332
H    -3.40752  -0.80526   1.63886
H    -2.95841   0.91250   1.46331
H    -3.77835   0.06274   0.12238
H    -2.45311  -2.30492  -0.18798
H    -0.35692  -3.04332  -1.21474
H     1.66861  -1.70525  -0.29613
H     1.16019  -1.03335  -1.83296
H     3.53656   1.56344  -0.49658
H     2.97507  -0.00464  -1.00760
H    -0.84615   1.40620   0.89934
