44
Generated by autodE on: 2022-06-20. E = -1163.042256 Ha. Imaginary frequency = -450.5 cm-1
C    -0.85994   4.35761   0.40183
C    -0.15461   3.31841   1.22706
O     0.56655   3.59281   2.17845
C    -0.32651   1.92050   0.79034
N    -1.49942   1.45519   0.22342
C    -1.30560   0.08909   0.07743
C    -2.27191  -0.80378  -0.56776
C    -2.15985  -2.20163  -0.42936
C    -3.04808  -3.04956  -1.09412
C    -4.06008  -2.52333  -1.90122
C    -4.17951  -1.13603  -2.04195
C    -3.29334  -0.28264  -1.38591
C    -0.42462  -0.27362   1.19355
O    -0.11460  -1.33599   1.68907
O     0.11499   0.92047   1.64027
C     0.35803   0.31214  -1.29115
C     1.07421  -1.01496  -1.37575
C     2.20483  -1.08558  -0.37460
C     2.75947  -2.35590   0.11218
N     2.24278  -3.49100  -0.42310
O     3.65755  -2.41827   0.97614
C     2.75079   0.06768   0.09713
N     2.30594   1.31771  -0.22923
C     2.97766   2.47543   0.34812
C     1.02657   1.47392  -0.80181
H    -0.55896   5.35763   0.73822
H    -0.61803   4.23149  -0.66602
H    -1.95208   4.24829   0.50721
H    -1.92339   1.99583  -0.52806
H    -1.38105  -2.61740   0.20782
H    -2.94806  -4.13090  -0.97513
H    -4.75454  -3.18952  -2.41809
H    -4.96832  -0.71439  -2.66904
H    -3.40467   0.79592  -1.51397
H    -0.37795   0.49823  -2.07484
H     0.34872  -1.83172  -1.22496
H     1.45228  -1.15686  -2.40894
H     1.54201  -3.48609  -1.15276
H     2.60704  -4.38285  -0.10659
H     3.60392   0.03147   0.77697
H     2.75482   2.58034   1.42004
H     4.06439   2.37920   0.21598
H     2.64459   3.38429  -0.16959
H     0.87871   2.42505  -1.31680
