60
Generated by autodE on: 2022-06-09. E = -1381.573999 Ha
C     2.00666  -2.76629   3.30621
N     2.02047  -1.69342   2.32997
C     0.99703  -1.49407   1.49218
O    -0.00778  -2.21066   1.50130
C     1.07785  -0.22962   0.57954
C     2.53911   0.16413   0.33370
C     3.03467   1.40832   0.74473
C     4.37292   1.75381   0.52552
C     5.23782   0.85582  -0.10168
C     4.75413  -0.39318  -0.50756
C     3.41934  -0.73516  -0.29160
N     0.42871   0.80240   1.39385
C    -0.63460   1.23643   0.83975
C    -1.41895   2.34061   1.51023
C    -1.08264   2.65815   2.93708
O    -2.28072   2.94091   0.88948
C    -1.07534   0.59807  -0.46999
C    -2.48791   0.06695  -0.19527
C    -3.61065   0.55902  -0.88030
C    -4.90054   0.13230  -0.55185
C    -5.10194  -0.78265   0.48459
C    -3.99696  -1.25178   1.19958
C    -2.70939  -0.82376   0.86829
C    -0.96928   1.60755  -1.65705
C    -1.26806   0.89548  -3.00055
C     0.01602   0.06296  -3.25493
C     0.84800   0.31705  -1.98309
C     0.54908   1.80583  -1.75592
C     0.17905  -0.37965  -0.73736
C     0.00084  -1.85252  -1.12635
C    -1.32598  -2.44269  -1.51713
O     1.00749  -2.54442  -1.20424
H     1.87175  -3.74233   2.81534
H     1.18771  -2.63434   4.03116
H     2.96195  -2.76711   3.84439
H     2.82782  -1.08188   2.27407
H     2.37161   2.11453   1.24307
H     4.73639   2.73114   0.85170
H     6.28327   1.12378  -0.27177
H     5.42066  -1.10666  -0.99795
H     3.04002  -1.70201  -0.62055
H    -1.71029   3.48734   3.28717
H    -1.24832   1.76692   3.56322
H    -0.01797   2.91929   3.02991
H    -3.49770   1.29692  -1.67170
H    -5.75376   0.52828  -1.10800
H    -6.11072  -1.11509   0.74079
H    -4.13425  -1.95487   2.02487
H    -1.85810  -1.20592   1.42896
H    -1.56310   2.51055  -1.48499
H    -1.42591   1.64730  -3.78755
H    -2.16674   0.26913  -2.96740
H    -0.18346  -0.99777  -3.45655
H     0.57573   0.44871  -4.11939
H     1.89726   0.03255  -2.09387
H     0.83916   2.41738  -2.62304
H     1.00734   2.23859  -0.85891
H    -1.99961  -1.72925  -2.00375
H    -1.14069  -3.30865  -2.16699
H    -1.82892  -2.79290  -0.60359
