32
Generated by autodE on: 2022-06-09. E = -656.749657 Ha
C    -2.20108   2.73327  -0.85639
C    -1.02677   2.00827  -0.24443
O     0.02327   2.60616  -0.00602
C    -1.22262   0.58623   0.07866
C    -0.27955  -0.36668   0.34615
C     1.18891  -0.32005   0.27154
C     1.95696  -0.98699   1.24496
C     3.35217  -0.97855   1.18281
C     4.00351  -0.32640   0.13186
C     3.24998   0.31956  -0.85554
C     1.85734   0.32679  -0.78539
C    -1.03029  -1.67316   0.55944
C    -1.52214  -2.09112  -0.86778
C    -2.60464  -1.02303  -1.18883
C    -2.57908  -0.11854   0.08292
C    -2.34380  -1.16946   1.18432
H    -1.89382   3.73865  -1.17313
H    -2.60803   2.17170  -1.71211
H    -3.01309   2.81869  -0.11537
H     1.45444  -1.50286   2.06592
H     3.93211  -1.48863   1.95561
H     5.09474  -0.32656   0.07715
H     3.75232   0.81846  -1.68780
H     1.27615   0.82583  -1.56153
H    -0.47034  -2.45508   1.08592
H    -0.69548  -2.10371  -1.59232
H    -1.95108  -3.10318  -0.82775
H    -3.59737  -1.48219  -1.30897
H    -2.38640  -0.44781  -2.09974
H    -3.45258   0.53337   0.19422
H    -3.12796  -1.94094   1.22718
H    -2.20257  -0.72435   2.18044
