28
Generated by autodE on: 2022-06-09. E = -724.754266 Ha
C    -0.10745   4.11633  -0.03209
N    -0.46134   2.71090  -0.06814
C     0.48271   1.75056  -0.04193
O     1.69269   2.01347   0.00281
C     0.01064   0.32908  -0.11305
N     0.94569  -0.50256  -0.43908
C     1.88005  -1.15803  -0.81704
C     3.01118  -1.87551  -0.25663
C     4.24503  -1.02583  -0.09731
O     2.95820  -3.07674  -0.02040
C    -1.36360  -0.16618   0.10140
C    -1.82563  -1.27779  -0.63116
C    -3.11085  -1.77783  -0.42811
C    -3.96134  -1.17912   0.50838
C    -3.50997  -0.08155   1.24674
C    -2.22166   0.42062   1.05198
H    -1.02605   4.71021   0.04744
H     0.43553   4.42166  -0.94179
H     0.53505   4.33520   0.83422
H    -1.43518   2.45405  -0.18536
H     4.85912  -1.43926   0.71551
H     3.98499   0.02418   0.10261
H     4.82805  -1.06462  -1.03300
H    -1.17054  -1.74574  -1.36922
H    -3.45342  -2.63730  -1.00905
H    -4.96951  -1.56963   0.66403
H    -4.16043   0.38407   1.99071
H    -1.87602   1.25846   1.65849
