60
Generated by autodE on: 2022-06-09. E = -1381.505076 Ha. Imaginary frequency = -395.5 cm-1
C     1.76944  -3.72107   2.89055
N     2.01413  -2.44550   2.24635
C     1.05509  -1.50664   2.17628
O    -0.05934  -1.67124   2.69721
C     1.36235  -0.23635   1.44119
C     2.68318   0.15555   0.91500
C     3.12517   1.48645   1.06558
C     4.34682   1.89607   0.53498
C     5.15770   0.98826  -0.15483
C     4.72681  -0.33104  -0.31750
C     3.50249  -0.74793   0.20712
N     0.48084   0.73013   1.65620
C    -0.42637   1.36870   1.15803
C    -1.09537   2.63524   1.54098
C    -2.39650   2.53453   2.26895
O    -0.57976   3.67904   1.17179
C    -1.00090   0.52017  -0.66289
C    -2.38838   0.15129  -0.23860
C    -3.49931   0.64402  -0.94940
C    -4.80431   0.36393  -0.53334
C    -5.03252  -0.40054   0.61323
C    -3.93850  -0.87309   1.34481
C    -2.63652  -0.59629   0.92853
C    -0.79634   1.72230  -1.60841
C    -0.95436   1.19853  -3.07305
C     0.33258   0.35338  -3.28805
C     1.02257   0.44021  -1.89305
C     0.72557   1.90638  -1.54030
C     0.10137  -0.34145  -0.95613
C     0.24612  -1.79081  -0.94907
C    -0.78759  -2.72442  -0.36300
O     1.23711  -2.29576  -1.51233
H     0.95260  -4.26488   2.39077
H     1.49248  -3.58810   3.94827
H     2.68335  -4.32428   2.83466
H     2.93495  -2.25556   1.86930
H     2.50520   2.19984   1.61126
H     4.67093   2.93079   0.66768
H     6.11756   1.30907  -0.56554
H     5.34030  -1.04471  -0.87204
H     3.15784  -1.75987   0.00108
H    -3.17008   2.20471   1.55455
H    -2.66826   3.51898   2.67287
H    -2.34405   1.77689   3.06447
H    -3.35638   1.25764  -1.83748
H    -5.64625   0.75497  -1.10964
H    -6.05247  -0.61402   0.94144
H    -4.09777  -1.45210   2.25778
H    -1.80172  -0.93759   1.53858
H    -1.41905   2.59278  -1.36923
H    -1.00017   2.05362  -3.76351
H    -1.87014   0.60980  -3.21156
H     0.12488  -0.68567  -3.57833
H     0.98133   0.79600  -4.05958
H     2.06792   0.11812  -1.88626
H     1.10246   2.60600  -2.30120
H     1.09337   2.22869  -0.55994
H    -0.84250  -2.64127   0.72944
H    -0.50600  -3.75188  -0.62977
H    -1.78933  -2.50335  -0.75757
