42
Generated by autodE on: 2022-10-07. E = -933.056301 Ha
C    -1.08500  -1.06791  -2.59243
N    -1.75486  -1.38117  -1.33354
C    -1.04330  -1.26172  -0.10366
N    -0.37578  -2.47156   0.25809
N    -2.12368  -0.98863   0.96629
N    -1.52503  -0.35503   2.11034
C    -1.37683  -1.29226   3.22671
N    -0.21365   0.07508   1.63000
C     0.15964   1.33040   2.26993
C    -0.19349   0.05094   0.15246
C    -0.95983   1.30765  -0.33427
O    -2.17452   1.39152  -0.29453
O    -0.17269   2.31853  -0.65034
C    -0.80991   3.56907  -0.97299
C     1.24917  -0.06569  -0.34586
C     2.22214  -0.64820   0.48181
C     3.53390  -0.82492   0.03486
C     3.90034  -0.41904  -1.24970
C     2.94288   0.17189  -2.07831
C     1.63224   0.34872  -1.63127
H    -0.09173  -1.53596  -2.70500
H    -1.72503  -1.43363  -3.40652
H    -0.98379   0.01714  -2.72912
H    -2.11085  -2.33648  -1.37243
H     0.15169  -2.80877  -0.54801
H     0.28742  -2.33824   1.02174
H    -2.77419  -0.31566   0.52571
H    -2.61472  -1.85661   1.22366
H    -2.38020  -1.59664   3.55520
H    -0.77218  -2.17960   2.97913
H    -0.89970  -0.74739   4.05053
H     0.27178   1.16206   3.35008
H     1.13149   1.65095   1.87381
H    -0.58510   2.13172   2.11532
H    -1.39946   3.92338  -0.11619
H    -1.46280   3.44353  -1.84764
H     0.00372   4.26719  -1.19696
H     1.95500  -0.95299   1.49265
H     4.27134  -1.27885   0.70075
H     4.92590  -0.55444  -1.60090
H     3.21444   0.50398  -3.08286
H     0.91629   0.82554  -2.29555
