29
Generated by autodE on: 2022-10-07. E = -687.811548 Ha
C    -2.25385  -3.05118   0.27097
N    -1.23548  -2.02931   0.26518
N    -1.55053  -0.88090  -0.22480
C    -2.91350  -0.65047  -0.75423
C    -0.60839   0.11109  -0.24245
C    -0.82253   1.43790  -0.77720
O    -1.82305   1.93284  -1.29987
O     0.31020   2.18220  -0.63787
C     0.25626   3.52126  -1.12767
C     0.72532  -0.22876   0.32866
C     1.75165  -0.71229  -0.49715
C     3.01017  -1.00885   0.03300
C     3.25711  -0.82653   1.39760
C     2.23990  -0.34456   2.22829
C     0.98238  -0.04802   1.69643
H    -1.81085  -3.94963   0.71942
H    -2.60984  -3.31837  -0.74065
H    -3.14299  -2.77843   0.86796
H    -3.63256  -0.83256   0.05386
H    -3.09490  -1.36578  -1.56566
H    -2.99473   0.37177  -1.11860
H     0.04822   3.54040  -2.20828
H    -0.51753   4.10407  -0.60515
H     1.24482   3.95448  -0.93101
H     1.55810  -0.85007  -1.56373
H     3.80195  -1.38097  -0.62190
H     4.24153  -1.05626   1.81259
H     2.42803  -0.19563   3.29447
H     0.18810   0.33237   2.34337
