29
Generated by autodE on: 2022-10-13. E = -687.808221 Ha
C    -1.84812   0.17379   3.39073
N    -1.49682   0.56329   2.04636
N    -0.58247  -0.11564   1.45413
C     0.18874  -1.14732   2.19549
C    -0.31362   0.05332   0.11478
C    -1.31117   0.51652  -0.83672
O    -1.03070   0.86155  -1.98513
O    -2.59816   0.46064  -0.42810
C    -3.58614   0.81913  -1.39466
C     1.05997  -0.18168  -0.37485
C     1.30184  -0.90892  -1.55807
C     2.60184  -1.11974  -2.01682
C     3.69563  -0.61786  -1.30143
C     3.47335   0.10477  -0.12557
C     2.17126   0.32800   0.32678
H    -2.63428   0.85702   3.73620
H    -2.24410  -0.85668   3.45125
H    -1.00158   0.24207   4.09674
H     0.86267  -1.66772   1.51467
H    -0.52920  -1.86452   2.61304
H     0.75262  -0.68186   3.01288
H    -4.55320   0.73326  -0.88357
H    -3.43979   1.85177  -1.74573
H    -3.55982   0.14127  -2.26166
H     0.45795  -1.31553  -2.11736
H     2.76433  -1.68918  -2.93534
H     4.71348  -0.78734  -1.66048
H     4.31774   0.50946   0.43787
H     2.01077   0.91310   1.23520
