25
Generated by autodE on: 2022-06-16. E = -593.365305 Ha
C     3.15796  -1.62514   0.17435
N     2.18736  -0.55836   0.27977
C     0.88179  -0.76264  -0.03267
O     0.42091  -1.90595  -0.24856
C     0.06021   0.43585  -0.11653
O    -1.29301   0.22884  -0.45567
C    -2.09076  -0.53331   0.19246
C    -3.40936  -0.74815  -0.43316
C    -1.74596  -1.11319   1.49878
C     0.50230   1.77498  -0.23917
C    -0.52579   2.83480  -0.58325
O     1.69982   2.11340  -0.04271
H     2.82843  -2.50983   0.73928
H     4.11358  -1.28290   0.59297
H     3.33141  -1.94344  -0.86983
H     2.47931   0.42268   0.27333
H    -3.53314  -1.82949  -0.62107
H    -3.50502  -0.19129  -1.37289
H    -4.20202  -0.46452   0.27841
H    -1.20693  -2.06243   1.33955
H    -1.05357  -0.44239   2.03394
H    -2.65869  -1.30853   2.07601
H    -1.24566   2.96095   0.24199
H    -0.00842   3.78798  -0.75524
H    -1.10483   2.56052  -1.47880
