25
Generated by autodE on: 2022-07-27. E = -593.365287 Ha
C     2.64033  -2.38104  -0.04464
N     1.80664  -1.30895   0.45213
C     0.74423  -0.85797  -0.26335
O     0.32603  -1.45542  -1.28025
C     0.13735   0.37374   0.21930
O    -0.95272   0.85564  -0.53442
C    -2.00977   0.18162  -0.78957
C    -2.30839  -1.10254  -0.13917
C    -2.94536   0.80821  -1.74246
C     0.70101   1.31779   1.11096
C     0.00960   2.65928   1.25575
O     1.72553   1.07049   1.80102
H     2.03102  -3.25820  -0.30846
H     3.35070  -2.67560   0.73907
H     3.21570  -2.09381  -0.94368
H     2.15504  -0.65424   1.15757
H    -1.83382  -1.91503  -0.71482
H    -1.86106  -1.12476   0.86828
H    -3.39333  -1.26571  -0.11060
H    -2.57877   1.78314  -2.08515
H    -3.93745   0.90166  -1.27081
H    -3.07366   0.12832  -2.60312
H    -0.15174   3.13844   0.27754
H    -0.98065   2.53812   1.72458
H     0.62761   3.31012   1.88845
