47
Generated by autodE on: 2022-10-21. E = -1198.406641 Ha
C    -1.93455   2.49043   1.76025
O    -1.81117   2.05464   0.41350
C    -0.53714   1.70713  -0.14354
C    -0.57397   2.25451  -1.60228
C    -1.25402   3.57498  -1.80832
O    -0.06506   1.62553  -2.50968
C     0.65753   2.38026   0.55849
C     1.11033   1.76409   1.90116
C     2.48493   1.08810   1.86207
C     2.54607  -0.35225   1.36160
C     2.03540  -0.62138  -0.10547
C     2.62464  -1.90901  -0.54035
N     3.13603  -2.90029  -0.85269
C     2.59481   0.36674  -1.05041
N     3.09711   1.11560  -1.77747
C     0.50885  -0.70393  -0.19513
C    -0.47764   0.20130  -0.19550
C    -1.79655  -0.54585  -0.29377
C    -2.48242  -0.65137   1.08041
C    -3.96963  -0.50700   1.10258
O    -1.81184  -0.88281   2.07172
N    -1.43111  -1.90422  -0.75041
C    -1.48824  -2.03456  -2.20948
N    -0.05981  -2.03072  -0.33048
C     0.16267  -2.96881   0.59920
N     0.39413  -3.82526   1.35634
H    -1.68119   1.70043   2.48291
H    -1.32443   3.38300   1.96712
H    -2.99225   2.75810   1.89028
H    -0.97191   3.98686  -2.78612
H    -1.01895   4.28301  -1.00083
H    -2.34350   3.41126  -1.78270
H     1.49586   2.39224  -0.14976
H     0.39159   3.43763   0.69131
H     0.36678   1.04614   2.27701
H     1.15363   2.57235   2.64546
H     2.88598   1.04951   2.88730
H     3.18973   1.71150   1.28674
H     3.58991  -0.69393   1.40158
H     1.95413  -1.01698   2.00746
H    -2.47688  -0.09062  -1.02220
H    -4.41586  -1.24450   0.41481
H    -4.36304  -0.64364   2.11787
H    -4.23695   0.48976   0.71580
H    -1.12604  -3.03077  -2.49444
H    -2.53765  -1.93947  -2.51901
H    -0.88859  -1.26235  -2.72423
