31
Generated by autodE on: 2022-10-21. E = -763.973760 Ha
C    -0.61863   3.14043   0.65919
O    -0.25222   2.77845  -0.66298
C    -0.36291   1.41382  -1.01812
C     0.17089   1.31055  -2.48249
C     1.14727   2.35938  -2.91882
O    -0.18054   0.39288  -3.19490
C     0.47737   0.53039  -0.19366
C     0.83109  -0.35676   0.54950
C     0.63937  -1.54832   1.38891
C     1.48709  -1.53571   2.59759
N     2.12216  -1.51114   3.56609
C     0.95880  -2.75865   0.59913
N     1.16619  -3.70747  -0.03249
C    -0.88482  -1.57747   1.81200
C    -1.86795  -1.29033   0.66425
C    -2.25139   0.19639   0.41592
C    -1.80955   0.84251  -0.91304
H    -1.70530   3.05577   0.82408
H    -0.09078   2.53043   1.41228
H    -0.32505   4.19153   0.78660
H     1.56294   2.09183  -3.89861
H     0.63298   3.33096  -2.98008
H     1.94802   2.47130  -2.17196
H    -0.99580  -0.83062   2.61152
H    -1.06730  -2.56826   2.25223
H    -1.50639  -1.75951  -0.26599
H    -2.78733  -1.83557   0.92445
H    -3.35051   0.25548   0.41777
H    -1.92696   0.80528   1.27245
H    -1.91459   0.10251  -1.71867
H    -2.47511   1.68501  -1.15976
