47
Generated by autodE on: 2022-06-20. E = -965.511887 Ha. Imaginary frequency = -183.8 cm-1
C    -1.26983   2.52524  -0.44411
C    -1.08106   1.04207  -0.40941
C    -2.22983   0.19087  -0.77326
C    -3.40518   0.20181   0.00201
C    -4.51820  -0.53946  -0.39398
C    -4.48899  -1.28417  -1.57937
C    -3.33723  -1.27518  -2.37187
C    -2.21741  -0.54053  -1.97834
O     0.16752   0.66134  -0.58636
C     0.80462  -0.50356  -0.37677
C     0.07079  -1.80273  -0.41177
C     2.22726  -0.41049  -0.68253
C     2.83299   0.83043  -0.99960
C     4.20330   0.92406  -1.22474
C     5.01950  -0.21246  -1.14999
C     4.43585  -1.44782  -0.85512
C     3.06205  -1.55085  -0.62997
C     0.75412  -0.17091   2.07766
C     1.85073   0.86005   2.15371
C     1.17167  -1.56310   2.46133
C    -0.58930   0.18202   2.15832
C    -1.06330   1.52113   2.33921
O    -2.23038   1.84646   2.62313
H    -0.34897   3.04844  -0.15318
H    -2.08103   2.82448   0.23671
H    -1.56527   2.85115  -1.45901
H    -3.42345   0.76754   0.93444
H    -5.41594  -0.53870   0.22903
H    -5.36365  -1.86160  -1.88768
H    -3.31120  -1.83764  -3.30827
H    -1.33124  -0.51620  -2.61444
H    -0.86306  -1.76130   0.15817
H    -0.17705  -2.09953  -1.44625
H     0.69155  -2.59657   0.01596
H     2.21421   1.72493  -1.06790
H     4.64169   1.89584  -1.46574
H     6.09444  -0.13531  -1.32800
H     5.05435  -2.34731  -0.80350
H     2.63851  -2.53072  -0.41163
H     1.65874   1.73887   1.52402
H     2.81421   0.42766   1.85163
H     1.96270   1.21244   3.19447
H     1.50492  -1.55233   3.51561
H     0.34936  -2.28663   2.38003
H     2.02972  -1.91494   1.86822
H    -1.33894  -0.61034   2.24936
H    -0.29361   2.31986   2.26146
