44
Generated by autodE on: 2022-06-05. E = -3810.897593 Ha
C    -2.57740   3.49036   2.08079
N    -2.42202   2.12981   1.60755
C    -2.32166   1.82447   0.31154
O    -2.44030   2.63017  -0.61717
C    -1.99773   0.34910   0.00829
C    -2.81530  -0.00385  -1.25468
O    -2.37963  -0.06629  -2.38210
O    -4.08402  -0.24366  -0.92980
C    -4.96223  -0.65533  -1.98987
N    -2.27852  -0.52664   1.13830
C    -1.45601  -1.73318   1.02093
C    -1.34071  -2.46730   2.35718
C    -2.05870  -2.66357   0.02543
N    -2.57349  -3.35052  -0.75616
C    -0.12247  -1.20692   0.41524
C     0.94184  -0.73166   1.45393
O     0.47391   0.56567   1.81871
C     0.46682   1.11687   0.49385
C     1.87884   0.78742   0.00616
C     2.60410   1.50192  -1.05066
O     3.76341   1.31721  -1.36474
O     1.80278   2.40089  -1.64523
C     2.37335   3.16510  -2.71598
C     2.16936  -0.37672   0.61818
Br    3.61046  -1.53862   0.40229
C    -0.48609   0.14906  -0.26781
H    -3.26056   4.03992   1.41924
H    -1.61271   4.02502   2.10208
H    -2.99445   3.47691   3.09587
H    -2.21506   1.37665   2.25960
H    -5.00096   0.11300  -2.77472
H    -4.61166  -1.60601  -2.41666
H    -5.94890  -0.78446  -1.53123
H    -3.27203  -0.73408   1.23905
H    -2.33008  -2.82932   2.67261
H    -0.66205  -3.32791   2.27014
H    -0.96218  -1.77816   3.12317
H     0.30524  -1.94838  -0.26803
H     1.10988  -1.37198   2.32373
H     0.19864   2.17660   0.49393
H     3.22596   3.75742  -2.35320
H     2.70874   2.50133  -3.52609
H     1.57569   3.82644  -3.07307
H    -0.29635   0.17954  -1.34375
