25
Generated by autodE on: 2022-06-05. E = -701.723826 Ha
C     3.84718  -1.50229   0.62130
N     2.69382  -0.62796   0.58701
C     1.49738  -1.05503   0.15611
O     1.29726  -2.22862  -0.22573
C     0.37209  -0.09142   0.13749
N    -0.77110  -0.70378  -0.26812
C    -2.06416  -0.42303  -0.20762
C    -2.66334   0.73675   0.51192
C    -2.92639  -1.38217  -0.80760
N    -3.66406  -2.14689  -1.28876
C     0.55897   1.34007   0.27556
O     1.52474   1.86046   0.83358
O    -0.38001   2.06609  -0.34797
C    -0.29681   3.48951  -0.21472
H     3.65122  -2.39878   1.23087
H     4.69150  -0.95660   1.05988
H     4.13230  -1.83902  -0.38889
H     2.75968   0.34482   0.88178
H    -0.51727  -1.65433  -0.60106
H    -2.71647   1.63741  -0.11799
H    -2.05674   0.98355   1.39675
H    -3.68194   0.47386   0.82959
H    -1.15653   3.89421  -0.76132
H     0.63970   3.86549  -0.65100
H    -0.34950   3.78265   0.84405
