25
Generated by autodE on: 2022-07-27. E = -701.724148 Ha
C     0.57944   4.21152  -0.16492
N     0.14497   2.84771  -0.38130
C     0.61679   1.83262   0.35720
O     1.44487   1.99983   1.28065
C     0.13288   0.46488   0.06549
N     0.68386  -0.42479   0.93678
C     0.57864  -1.69070   1.29300
C     1.49465  -2.23115   2.35246
C    -0.40935  -2.58727   0.80247
N    -1.18386  -3.42548   0.56332
C    -0.66856   0.12888  -1.08788
O    -1.25222   0.94667  -1.80023
O    -0.67986  -1.18392  -1.35074
C    -1.50956  -1.64451  -2.42065
H     0.36755   4.54187   0.86466
H     0.04340   4.86789  -0.86130
H     1.66220   4.32476  -0.33739
H    -0.52503   2.61436  -1.11270
H     1.36067   0.11994   1.51064
H     0.91550  -2.64971   3.19093
H     2.15517  -1.43830   2.73150
H     2.11850  -3.04228   1.94251
H    -1.15485  -1.24772  -3.38295
H    -1.43332  -2.73799  -2.40992
H    -2.55333  -1.33753  -2.26065
