44
Generated by autodE on: 2022-06-05. E = -3810.812639 Ha. Imaginary frequency = -313.1 cm-1
C    -2.49100   4.12271   0.34984
N    -2.71920   2.71847   0.07635
C    -2.44402   1.77302   0.98726
O    -2.04981   2.03395   2.13772
C    -2.57600   0.34742   0.56476
C    -3.42718  -0.01186  -0.57626
O    -3.50198   0.64088  -1.61070
O    -4.14007  -1.11610  -0.36079
C    -4.87825  -1.65568  -1.46502
N    -2.30807  -0.50795   1.59248
C    -1.84270  -1.76956   1.56117
C    -1.24470  -2.32212   2.82486
C    -2.27890  -2.74438   0.61291
N    -2.53774  -3.63969  -0.08697
C    -0.06710  -1.22839   0.00026
C     1.03665  -0.84918   1.00548
O     0.52912   0.39169   1.50756
C     0.38350   1.02253   0.22220
C     1.81616   0.86566  -0.33408
C     2.37392   1.79922  -1.31112
O     1.71867   2.70618  -1.80230
O     3.65375   1.56553  -1.60869
C     4.25969   2.43366  -2.57515
C     2.22080  -0.32038   0.16263
Br    3.75290  -1.33296  -0.14204
C    -0.49512  -0.01666  -0.50684
H    -2.88798   4.71472  -0.48384
H    -1.41627   4.34542   0.46052
H    -2.99821   4.42980   1.27656
H    -2.97655   2.40666  -0.85820
H    -4.19865  -1.89913  -2.29426
H    -5.35710  -2.56662  -1.08930
H    -5.63678  -0.93747  -1.80644
H    -1.97115   0.03656   2.39801
H    -2.02031  -2.77272   3.46687
H    -0.74111  -1.52140   3.38475
H    -0.51229  -3.10448   2.58311
H    -0.10439  -2.19155  -0.50391
H     1.28659  -1.55715   1.80127
H     0.02576   2.05184   0.30026
H     5.29382   2.08718  -2.68493
H     3.73259   2.36726  -3.53820
H     4.24329   3.47553  -2.22318
H    -0.93827   0.16889  -1.48311
