37
Generated by autodE on: 2022-05-29. E = -1005.227879 Ha
C     3.78170  -0.87582  -2.12740
N     2.60919  -1.06030  -1.29728
C     2.42432  -0.39139  -0.15456
O     3.25606   0.37192   0.34785
C     1.05445  -0.60037   0.52756
C     1.29275  -0.85132   2.02350
N     0.29410  -1.66479  -0.12464
C    -1.14006  -1.45964   0.01486
C    -1.91897  -2.22204  -1.06262
C    -1.63470  -1.96132   1.32802
N    -1.99956  -2.42942   2.32507
C    -1.29305   0.11105  -0.04894
C    -2.33696   0.59748   0.84073
N    -3.18348   0.99551   1.52649
C    -1.50284   0.67299  -1.52329
C    -1.66930   2.17770  -1.40151
C    -0.44085   2.64691  -1.15526
C     0.45445   1.42013  -1.12444
O    -0.18488   0.53984  -2.04042
C     0.16643   0.67620   0.26000
C     0.23419   1.62199   1.36339
N     0.29515   2.39743   2.22376
H     3.88037  -1.72834  -2.81154
H     3.71507   0.04976  -2.72439
H     4.68062  -0.81402  -1.49906
H     1.79680  -1.55750  -1.65515
H     0.35096  -0.84083   2.58748
H     1.76522  -1.83759   2.14517
H     1.96313  -0.09152   2.44273
H     0.57808  -2.59201   0.19245
H    -1.53498  -1.95727  -2.05515
H    -2.99289  -1.99541  -1.00090
H    -1.77718  -3.30161  -0.91091
H    -2.24240   0.12414  -2.10984
H    -2.62058   2.70679  -1.43169
H    -0.11982   3.66293  -0.93079
H     1.51546   1.55959  -1.34546
