22
Generated by autodE on: 2022-05-29. E = -513.073682 Ha
C    -3.79103   1.35880   0.67335
N    -2.72105   0.39681   0.50649
C    -1.44398   0.79198   0.31817
O    -1.13438   2.00575   0.30291
C    -0.41165  -0.23887   0.13293
C    -0.60465  -1.71360   0.20241
N     0.78068   0.30715  -0.10696
C     2.01450  -0.15248  -0.37965
C     3.14312   0.83154  -0.53073
C     2.29607  -1.52123  -0.55309
N     2.64639  -2.62459  -0.73694
H    -3.93996   1.96827  -0.23390
H    -3.57771   2.04568   1.50685
H    -4.72146   0.82002   0.89051
H    -2.96079  -0.58411   0.43206
H    -1.58393  -1.97452   0.62316
H    -0.52192  -2.19390  -0.78810
H     0.15739  -2.17408   0.85193
H     0.69998   1.33673  -0.06602
H     3.91826   0.68240   0.24002
H     3.63317   0.73734  -1.51397
H     2.76458   1.86019  -0.43414
