22
Generated by autodE on: 2022-07-26. E = -513.066161 Ha
C     2.95203   0.48855  -2.38216
N     1.72136   0.39298  -1.62034
C     1.75410   0.05013  -0.29805
O     2.82938  -0.19792   0.27407
C     0.47138  -0.04867   0.41511
C     0.44402  -0.08871   1.90146
N    -0.64733  -0.17993  -0.30470
C    -1.96144  -0.23123   0.00993
C    -2.94183  -0.63930  -1.05518
C    -2.44786   0.08823   1.28980
N    -2.96648   0.36913   2.30307
H     2.70426   0.65892  -3.43766
H     3.59597   1.31443  -2.03285
H     3.52743  -0.44452  -2.30098
H     0.93359   0.93003  -1.96705
H     1.46995  -0.18589   2.27551
H    -0.14806  -0.94792   2.26037
H     0.00003   0.81924   2.34351
H    -0.49263  -0.31590  -1.30822
H    -3.84854  -0.01645  -1.01807
H    -2.48962  -0.52800  -2.05320
H    -3.25614  -1.69249  -0.94613
