15
Generated by autodE on: 2022-05-29. E = -492.081476 Ha
N     2.46930  -1.93140  -0.90455
C     1.56473  -1.32546  -0.49100
C     0.45528  -0.62094   0.01944
C     0.26126   0.71341   0.12424
C     1.11361   1.77264  -0.24817
N     1.79916   2.66629  -0.54458
C    -1.18765   0.85216   0.69077
C    -2.13723   0.40063  -0.43559
C    -1.94578  -0.91714  -0.53928
C    -0.88244  -1.24879   0.52547
O    -1.20305  -0.29638   1.54376
H    -1.40653   1.78396   1.21994
H    -2.76098   1.06876  -1.02733
H    -2.36788  -1.63565  -1.24015
H    -0.81680  -2.27413   0.90018
