37
Generated by autodE on: 2022-05-29. E = -1005.163326 Ha. Imaginary frequency = -168.4 cm-1
C     3.69997  -0.45966  -2.18286
N     2.48731  -0.78826  -1.45519
C     2.48495  -0.77547  -0.09896
O     3.51264  -0.57769   0.55865
C     1.18281  -1.01293   0.60018
C     1.19622  -0.98078   2.09182
N     0.22936  -1.66282  -0.08562
C    -1.08925  -1.82654   0.18683
C    -1.95726  -2.45059  -0.87031
C    -1.57406  -1.93102   1.51914
N    -2.09998  -2.04955   2.55287
C    -1.35816   0.63872  -0.03748
C    -2.46582   0.73935   0.83000
N    -3.39279   0.81414   1.53402
C    -1.49723   0.73753  -1.58877
C    -1.63614   2.23240  -1.90856
C    -0.43013   2.75528  -1.66123
C     0.43342   1.57422  -1.19957
O    -0.13128   0.49944  -1.96846
C    -0.07789   1.15505   0.21029
C     0.33832   1.80109   1.39152
N     0.70709   2.33576   2.36069
H     3.52019  -0.60703  -3.25494
H     4.00735   0.58631  -2.01260
H     4.52572  -1.11248  -1.86698
H     1.61024  -0.64128  -1.95096
H     0.24690  -0.64834   2.52362
H     1.41111  -1.99211   2.48007
H     1.99064  -0.30914   2.43249
H     0.42750  -1.82426  -1.07329
H    -1.55215  -2.24450  -1.87132
H    -2.97521  -2.03976  -0.80718
H    -2.02470  -3.54320  -0.73564
H    -2.19240   0.04092  -2.06352
H    -2.56434   2.72210  -2.19983
H    -0.09682   3.79142  -1.69781
H     1.51650   1.65792  -1.32223
