49
Generated by autodE on: 2022-05-31. E = -1112.245520 Ha
C     1.31106   3.32403   2.18107
N     0.67790   2.28504   1.39262
C     1.39630   1.27169   0.88226
O     2.62092   1.21426   1.05209
C     0.65457   0.26547  -0.07069
C     1.65571  -0.83775  -0.44351
C     2.23697  -1.63457   0.55672
C     3.10572  -2.67819   0.23290
C     3.43062  -2.93648  -1.10310
C     2.87497  -2.13874  -2.10519
C     1.99425  -1.10293  -1.77582
N     0.18429   0.99978  -1.24994
C     1.06663   1.99033  -1.83432
C    -1.18294   1.46766  -1.07561
C    -1.86240   0.50567  -0.08967
C    -2.63310   1.26012   0.99814
C    -3.93721   0.72393   1.50861
O    -2.17664   2.29993   1.45983
C    -2.73159  -0.63312  -0.75010
C    -2.03498  -1.13425  -1.99961
C    -1.00067  -1.85630  -1.55473
C    -1.07903  -1.78513  -0.03976
O    -2.50118  -1.71706   0.16546
C    -0.66676  -0.35411   0.52720
C    -0.66497  -0.48732   2.05440
H     1.80683   2.90881   3.07382
H     0.54207   4.03746   2.50425
H     2.07220   3.86360   1.59458
H    -0.33909   2.32291   1.29651
H     2.02103  -1.43674   1.60626
H     3.53702  -3.28803   1.03054
H     4.11384  -3.75018  -1.35807
H     3.11960  -2.32406  -3.15403
H     1.54434  -0.50888  -2.56877
H     0.72952   2.23170  -2.85525
H     1.09249   2.93935  -1.25975
H     2.09348   1.60708  -1.89772
H    -1.70493   1.48119  -2.04730
H    -1.21612   2.50258  -0.68810
H    -4.21588   1.25225   2.42888
H    -3.88679  -0.35974   1.67623
H    -4.71542   0.89682   0.74629
H    -3.79732  -0.40551  -0.84293
H    -2.30526  -0.87989  -3.02373
H    -0.22712  -2.36378  -2.12404
H    -0.63448  -2.61158   0.52429
H    -1.58898  -0.97698   2.38779
H     0.17681  -1.11355   2.37828
H    -0.58488   0.47360   2.57260
