28
Generated by autodE on: 2022-05-31. E = -612.583037 Ha
C    -1.95704   1.58920   2.01885
N    -0.81910   1.26605   1.43401
C     0.37815   2.00213   1.90459
C    -0.60703   0.34014   0.42505
C    -1.71412  -0.32433  -0.21786
O    -2.92746  -0.10493   0.03195
N    -1.39640  -1.27673  -1.15943
C    -2.41909  -1.84809  -2.00614
C     0.79261   0.03743   0.01089
C     1.29438   0.50928  -1.21722
C     2.59209   0.19915  -1.63279
C     3.41933  -0.58382  -0.82141
C     2.93685  -1.06267   0.40103
C     1.63428  -0.76208   0.80672
H    -2.86413   1.07442   1.72422
H    -1.93586   2.37287   2.77292
H     0.05867   2.79775   2.58399
H     1.05463   1.31826   2.42905
H     0.90426   2.43351   1.04551
H    -0.43498  -1.34314  -1.47020
H    -3.21708  -2.31102  -1.40578
H    -2.89606  -1.10149  -2.66789
H    -1.96635  -2.62576  -2.63551
H     0.65269   1.12946  -1.84789
H     2.96137   0.57704  -2.58933
H     4.43616  -0.82303  -1.14205
H     3.57491  -1.68116   1.03712
H     1.25589  -1.15184   1.75492
