28
Generated by autodE on: 2022-07-27. E = -612.583009 Ha
C    -2.17815   2.23022  -0.85095
N    -1.34423   1.22111  -1.01932
C    -1.26217   0.67547  -2.39493
C    -0.52585   0.61976  -0.07668
C    -0.42087   1.14823   1.26104
O    -1.00882   2.18102   1.67366
N     0.37264   0.44520   2.13927
C     0.70900   0.99547   3.43289
C     0.25367  -0.58982  -0.46720
C     1.64170  -0.50562  -0.68759
C     2.38967  -1.63977  -1.01509
C     1.76049  -2.88277  -1.13657
C     0.38266  -2.98538  -0.91861
C    -0.35960  -1.85159  -0.57886
H    -2.28704   2.66113   0.13757
H    -2.71852   2.59388  -1.72196
H    -1.67062  -0.34092  -2.41786
H    -1.83870   1.31910  -3.06575
H    -0.21496   0.64487  -2.71601
H     0.96624  -0.28688   1.76912
H    -0.19813   1.23841   4.00685
H     1.31197   1.91993   3.36394
H     1.28517   0.25059   3.99779
H     2.13314   0.46655  -0.60104
H     3.46576  -1.55132  -1.18357
H     2.34269  -3.76993  -1.39726
H    -0.11469  -3.95460  -1.00508
H    -1.43313  -1.93856  -0.39395
