21
Generated by autodE on: 2022-05-31. E = -499.581890 Ha
C    -2.65376  -0.90746   0.62956
C    -1.80447   0.32411   0.43608
O    -2.23422   1.44401   0.72070
C    -0.45768   0.10995  -0.09654
C     0.59138   0.96601  -0.15313
C     0.75799   2.37963   0.24902
C     1.76744   0.10075  -0.66744
C     2.13271  -0.87087   0.47587
C     1.10621  -1.72497   0.53420
C     0.13071  -1.24897  -0.56488
O     1.06389  -0.78215  -1.55725
H    -2.86071  -1.37645  -0.34678
H    -3.60063  -0.64064   1.11671
H    -2.11572  -1.65587   1.23437
H    -0.16118   2.79973   0.67190
H     1.57834   2.45871   0.98473
H     1.06808   2.98603  -0.62009
H     2.58499   0.63585  -1.16307
H     3.01715  -0.79339   1.10701
H     0.92064  -2.54635   1.22557
H    -0.56851  -1.98481  -0.97371
