17
Generated by autodE on: 2022-05-26. E = -456.190934 Ha
N     4.53582  -0.43771  -1.43365
C     3.82729  -0.21091  -0.52548
C     3.00753   0.06245   0.57294
N     1.68046   0.06278   0.44203
C     0.51469   0.06643   0.34137
C    -0.89245   0.07148   0.22121
C    -1.69333   0.38489   1.34275
C    -3.07950   0.38617   1.21101
C    -3.67866   0.08273  -0.01722
C    -2.88191  -0.22640  -1.12588
C    -1.49354  -0.23639  -1.02012
H     3.42064   0.28132   1.55853
H    -1.22069   0.62160   2.29712
H    -3.69845   0.62787   2.07775
H    -4.76662   0.08721  -0.11052
H    -3.34665  -0.46357  -2.08534
H    -0.86785  -0.47773  -1.88060
