46
Generated by autodE on: 2022-05-31. E = -1118.065542 Ha
C    -3.81692   2.52464   0.08825
O    -2.77677   1.55295   0.26227
C    -2.61184   0.66925  -0.71900
O    -3.30038   0.67272  -1.72334
C    -1.56502  -0.39291  -0.45000
C    -0.99437  -0.90080  -1.79908
N     0.44239  -1.07703  -1.58089
C     0.89113  -0.05389  -0.63540
C     0.93272   1.25489  -1.47178
C     2.22802   1.59364  -2.15798
O    -0.08387   1.90020  -1.67438
C     2.22419  -0.36516   0.01510
C     2.92380  -1.54440  -0.26102
C     4.14303  -1.81090   0.37233
C     4.67302  -0.90167   1.29059
C     3.97667   0.27959   1.57305
C     2.76287   0.54586   0.93852
C    -0.28003  -0.00083   0.38791
F    -0.27175   1.27061   0.95286
C    -0.27225  -1.05059   1.51888
C    -1.40269  -0.67599   2.50889
C    -2.69809  -1.08383   1.74679
C    -2.15748  -1.57711   0.39119
C    -0.86960  -2.29458   0.83976
H    -3.79630   3.15177   0.98699
H    -3.62507   3.13498  -0.80586
H    -4.79429   2.03049  -0.00941
H    -1.21575  -0.16984  -2.59078
H    -1.45002  -1.85727  -2.09577
H     0.97936  -1.06588  -2.44749
H     2.91096   2.06069  -1.43063
H     2.73259   0.68937  -2.52970
H     2.03803   2.29664  -2.97967
H     2.50969  -2.25887  -0.97247
H     4.67918  -2.73558   0.14503
H     5.62465  -1.11012   1.78534
H     4.38171   0.99648   2.29130
H     2.22047   1.46573   1.16627
H     0.71156  -1.16584   1.98732
H    -1.38087   0.38793   2.77406
H    -1.28208  -1.25489   3.43557
H    -3.42202  -0.26488   1.65797
H    -3.20676  -1.91952   2.24975
H    -2.87495  -2.16564  -0.19555
H    -0.26116  -2.69015   0.02024
H    -1.07564  -3.09800   1.56250
