23
Generated by autodE on: 2022-05-31. E = -517.879589 Ha
C     0.11335   2.84607   0.48450
N     0.96691   1.88414   0.28857
C     0.84604   0.53616   0.03790
C     2.12169  -0.07994  -0.16273
C     2.22305  -1.56911  -0.39610
O     3.17900   0.60473  -0.13092
C    -0.47414  -0.11511   0.00586
C    -1.40547   0.07108   1.04921
C    -2.64963  -0.56090   1.02294
C    -2.99390  -1.40000  -0.04258
C    -2.08186  -1.59583  -1.08411
C    -0.84136  -0.95450  -1.06487
H     0.50331   3.85108   0.64347
H    -0.95804   2.64771   0.47350
H     1.97503   2.12004   0.28522
H     3.16710  -1.92637   0.04087
H     1.38077  -2.13277   0.02550
H     2.26160  -1.77536  -1.47899
H    -1.14516   0.70366   1.90076
H    -3.35165  -0.40523   1.84592
H    -3.96707  -1.89621  -0.06096
H    -2.34144  -2.24380  -1.92499
H    -0.14711  -1.09650  -1.89503
