23
Generated by autodE on: 2022-05-31. E = -600.129011 Ha
C    -3.52092   1.07446   0.17790
O    -2.18645   0.69248   0.52922
C    -1.47876   0.03788  -0.41215
O    -1.93590  -0.22913  -1.51309
C    -0.13684  -0.29340   0.05341
C     0.90065  -0.70640  -0.70824
F     0.90008  -0.93276  -2.01455
C     2.16661  -0.69994   0.09904
C     2.49124   0.81660   0.33869
C     1.33114   1.28547   1.26405
C     0.47342  -0.00803   1.42468
C     1.58000  -1.08466   1.47505
H    -4.12764   0.18912  -0.06327
H    -3.51568   1.75464  -0.68669
H    -3.93191   1.58529   1.05667
H     2.99026  -1.29516  -0.31232
H     2.54525   1.37326  -0.60735
H     3.46729   0.90059   0.83775
H     1.70957   1.61639   2.24243
H     0.74117   2.10613   0.83253
H    -0.24476   0.01349   2.25183
H     2.29431  -0.93544   2.29817
H     1.18360  -2.10989   1.50207
