20
Generated by autodE on: 2022-10-26. E = -420.518102 Ha
C    -3.48850  -1.58099   0.64434
C    -2.65785  -1.58120  -0.58059
N    -1.53093  -0.91852  -0.63723
N    -1.04620  -0.15013   0.32940
C     0.25584   0.26882   0.14636
C     0.71528   1.31329   0.99022
C     2.00996   1.81119   0.88798
C     2.90664   1.29073  -0.05762
C     2.47706   0.24903  -0.88573
C     1.18279  -0.26717  -0.78621
H    -3.86441  -0.56496   0.86785
H    -4.34562  -2.25821   0.53563
H    -2.89075  -1.88374   1.52265
H    -2.94004  -2.10502  -1.49431
H    -1.01834  -0.98409  -1.52772
H     0.01552   1.72527   1.72129
H     2.32612   2.62059   1.55187
H     3.92254   1.68347  -0.13783
H     3.16570  -0.18669  -1.61513
H     0.91301  -1.11445  -1.42144
