20
Generated by autodE on: 2022-10-20. E = -420.518084 Ha
C     3.87150   0.28830  -0.20956
C     2.83015   0.90085  -1.06433
N     1.56067   0.64437  -0.87560
N     1.08074  -0.19103   0.03528
C    -0.29289  -0.19790   0.16927
C    -1.20124   0.73313  -0.40031
C    -2.57678   0.61089  -0.19072
C    -3.10172  -0.41791   0.59792
C    -2.21473  -1.33353   1.18363
C    -0.84343  -1.22766   0.97620
H     3.86011  -0.81373  -0.30202
H     3.68126   0.50473   0.85725
H     4.86874   0.65722  -0.48236
H     3.05474   1.57270  -1.89300
H     0.91007   1.11723  -1.51687
H    -0.84679   1.57827  -0.99526
H    -3.24756   1.34596  -0.64439
H    -4.17839  -0.50138   0.76087
H    -2.60022  -2.14338   1.80927
H    -0.15450  -1.94537   1.42795
