17
Generated by autodE on: 2022-10-20. E = -881.716875 Ha
C     2.70791  -0.89154  -0.26723
O     1.52101  -1.40560   0.34467
C     0.44106  -0.62189   0.38753
C     0.10505   0.61816  -0.01613
Cl    0.94370   1.83679  -0.91696
C    -1.40962   0.72505   0.28055
C    -2.14724  -0.23453  -0.68460
C    -1.80745  -1.45934  -0.27218
C    -0.87696  -1.21773   0.93914
O    -1.47574  -0.03743   1.50106
H     3.46752  -1.67753  -0.17236
H     2.53440  -0.67057  -1.33099
H     3.04997   0.01790   0.24953
H    -1.80533   1.74014   0.39470
H    -2.75174   0.07381  -1.53695
H    -2.05185  -2.43452  -0.69145
H    -0.75838  -2.02702   1.66810
