16
Generated by autodE on: 2022-07-27. E = -434.388325 Ha
C     1.14986  -1.43552   2.69137
N    -0.04140  -1.29245   1.87623
C    -0.24093  -0.38921   0.88282
O    -1.31077  -0.35505   0.24319
C     0.82928   0.57254   0.65639
N     0.87195   1.39902  -0.38930
C     0.26070   1.49002  -1.58359
C    -0.51747   0.50227  -2.20195
N    -1.12267  -0.26028  -2.85258
H     2.05541  -1.50013   2.06987
H     1.06818  -2.36545   3.26817
H     1.27739  -0.60311   3.40422
H    -0.84708  -1.87255   2.09116
H     1.57476   0.77843   1.42084
H     1.55460   2.15109  -0.26353
H     0.52952   2.36419  -2.17646
