23
Generated by autodE on: 2022-06-08. E = -8370.094204 Ha
F    -2.12669  -0.63761   2.59592
C    -2.45676   0.50926   1.97948
F    -3.79051   0.59661   1.97098
F    -1.97753   1.51373   2.72064
C    -1.87680   0.51598   0.55382
Br   -2.36103   2.28958  -0.25511
C    -0.43704   0.38829   0.53581
C     0.64115   0.01091   0.13051
C     1.56213  -0.72207  -0.69194
Br    2.18393  -2.32333   0.32595
Br    3.15357   0.37243  -1.15234
C     0.83004  -1.15633  -1.97582
C    -0.55985  -1.79321  -1.76587
C    -1.79505  -0.85315  -1.67921
C    -2.45981  -0.62855  -0.30746
H     0.72641  -0.25419  -2.59947
H     1.49175  -1.84870  -2.51593
H    -0.53481  -2.47349  -0.89895
H    -0.71122  -2.44231  -2.64086
H    -1.56610   0.11882  -2.14591
H    -2.57882  -1.29935  -2.30838
H    -2.37289  -1.54627   0.29687
H    -3.53312  -0.42828  -0.43476
