36
Generated by autodE on: 2022-06-19. E = -1099.459720 Ha
C     4.93907   0.93917   1.08842
N     3.69194   0.65718   0.40149
C     2.59429   0.28665   1.07029
O     2.53206   0.16642   2.29402
C     1.37171   0.04407   0.20523
O     1.71425  -0.26170  -1.15610
C     0.39884  -0.51048  -1.58456
C     0.34521  -1.05812  -2.93851
N     0.27863  -1.46487  -4.01989
O    -0.08312  -1.50093  -0.64523
C     0.50059  -1.16704   0.54887
O     0.26842  -1.72582   1.57954
C    -0.32678   0.83292  -1.34046
C    -1.85313   0.74794  -1.34675
C    -2.42066   0.36375  -0.00614
C    -3.70705  -0.34378   0.02779
N    -4.10563  -0.89335   1.20508
O    -4.41667  -0.43232  -0.99170
C    -1.78811   0.80076   1.11412
N    -0.58446   1.45523   1.10061
C    -0.04544   1.95015   2.36255
C     0.33931   1.25224   0.00889
H     5.35814   0.02940   1.54718
H     4.78329   1.68254   1.88417
H     5.65949   1.33597   0.36368
H     3.66059   0.68767  -0.61265
H     0.01765   1.50787  -2.13309
H    -2.24598   1.73475  -1.64667
H    -2.18169   0.04363  -2.12472
H    -4.98069  -1.40638   1.21573
H    -3.46058  -1.03682   1.97212
H    -2.23304   0.69113   2.10605
H     0.35803   1.13845   2.98659
H     0.76497   2.66238   2.15655
H    -0.83473   2.47561   2.91706
H     0.95125   2.15248  -0.12503
