23
Generated by autodE on: 2022-06-19. E = -351.521386 Ha
C     3.44467   0.50864  -1.47466
C     2.21638  -0.03596  -1.33148
C     1.74369  -1.14962  -2.23067
C     1.31772   0.45433  -0.28834
C     0.06489  -0.00534  -0.04372
C    -0.78621   0.51564   1.00648
C    -2.04536   0.11239   1.31237
C    -2.78825  -0.97440   0.58828
C    -2.80545   0.75295   2.43922
H     4.13713   0.16087  -2.24632
H     3.78488   1.31729  -0.82040
H     1.48783  -2.04984  -1.64748
H     0.83074  -0.85923  -2.77675
H     2.51402  -1.42175  -2.96591
H     1.70954   1.26350   0.33973
H    -0.33230  -0.81188  -0.66585
H    -0.35259   1.32151   1.61100
H    -2.21949  -1.42667  -0.23429
H    -3.07227  -1.77693   1.29186
H    -3.73437  -0.58094   0.17634
H    -3.74911   1.19594   2.07303
H    -2.22287   1.54017   2.93982
H    -3.09546  -0.00040   3.19369
