19
Generated by autodE on: 2022-06-19. E = -568.917756 Ha
C     3.88768   0.64070   0.12925
N     2.53375   0.12946   0.08620
C     1.44613   0.92285   0.06305
O     1.45766   2.16166   0.08133
C     0.15919   0.21972   0.01178
N    -1.02260   0.81219  -0.02512
C    -2.03840  -0.10686  -0.07195
C    -3.48431   0.22500  -0.12161
C    -1.43011  -1.38056  -0.06385
O    -1.82136  -2.54124  -0.08959
O    -0.01307  -1.10017  -0.00920
H     3.85204   1.73591   0.15456
H     4.45656   0.32362  -0.75890
H     4.41521   0.28059   1.02625
H     2.39239  -0.87639   0.06340
H    -1.12782   1.82797  -0.01740
H    -3.80327   0.81408   0.75465
H    -3.74667   0.80032  -1.02556
H    -4.06220  -0.70956  -0.13314
