9
Generated by autodE on: 2022-07-26. E = -317.437559 Ha
C     2.43496  -0.86771   0.52319
N     1.16723  -1.14519  -0.08956
O     0.40002  -0.16138   0.07705
N    -0.84381  -0.26888  -0.44529
C    -1.49339   0.85762  -0.16888
N    -2.18616   1.78787  -0.00065
H     2.47367   0.12014   1.00061
H     3.20883  -0.96225  -0.25783
H     2.63338  -1.67041   1.25368
