24
Generated by autodE on: 2022-06-09. E = -593.135205 Ha
C     3.59322  -0.59559  -0.91499
O     2.16358  -0.53582  -1.02120
C     1.52212   0.19881  -0.10580
O     2.08535   0.81043   0.78478
C     0.06258   0.17151  -0.30917
C    -0.86370   0.61396   0.58184
C    -0.64026   1.18896   1.85844
N    -0.52992   1.67333   2.91213
C    -2.23416   0.20983   0.05239
C    -2.29182  -1.34473   0.21791
C    -1.23255  -1.84541  -0.80224
C    -0.69078  -0.51635  -1.42806
C    -1.97802   0.33439  -1.46378
H     3.93066  -1.23772  -1.73643
H     4.02685   0.41012  -1.01334
H     3.88802  -1.02665   0.05278
H    -3.08092   0.75374   0.48520
H    -3.30032  -1.69820  -0.04062
H    -2.07882  -1.65100   1.25133
H    -1.69058  -2.45996  -1.59051
H    -0.42566  -2.43022  -0.33960
H    -0.13036  -0.64275  -2.35994
H    -1.80138   1.37045  -1.78717
H    -2.77692  -0.11735  -2.06959
