33
Generated by autodE on: 2022-06-09. E = -910.576642 Ha. Imaginary frequency = -164.3 cm-1
C     2.81976   0.58063  -2.12979
O     1.63358   0.39896  -1.34179
C     1.50045  -0.76479  -0.70365
O     2.32593  -1.65937  -0.73940
C     0.24857  -0.84518   0.07842
C    -0.13509  -2.08661   0.86347
C    -0.73883  -3.06957  -0.18853
C    -2.07303  -2.37847  -0.58960
C    -2.07919  -1.08539   0.29065
C    -1.40988  -1.60052   1.57776
C    -0.95955  -0.23325  -0.28623
C    -1.16642   0.62691  -1.39664
N    -1.41468   1.33397  -2.28812
N    -0.86341   1.61535   1.24621
C    -1.26671   2.74162   0.66292
N    -1.75990   3.68129   0.16937
O     0.49520   1.62085   1.29005
N     0.96360   0.49244   1.72351
C     2.40713   0.58742   1.73360
H     2.86602  -0.17389  -2.92794
H     3.71397   0.50212  -1.49548
H     2.74309   1.58588  -2.55879
H     0.67241  -2.50214   1.47638
H    -0.05989  -3.22532  -1.03780
H    -0.91848  -4.04488   0.28582
H    -2.94579  -2.99284  -0.32584
H    -2.13501  -2.14408  -1.66168
H    -3.04805  -0.58017   0.36824
H    -1.97562  -2.42256   2.03815
H    -1.22329  -0.81155   2.31374
H     2.80882  -0.43027   1.65756
H     2.79745   1.23035   0.93117
H     2.71040   0.99835   2.71313
