16
Generated by autodE on: 2022-06-02. E = -446.128257 Ha
C    -2.46470   0.30939   0.29847
C    -1.04704  -0.02918   0.01461
C    -0.13564   0.51914  -0.79005
F    -0.25117   1.56092  -1.61919
C     1.21427  -0.15973  -0.50650
C     1.64701   0.27168   0.91821
C     0.75776  -0.30711   1.73045
C    -0.20091  -1.07615   0.78860
O     0.73402  -1.48944  -0.23579
H    -2.58161   0.63496   1.34765
H    -3.12422  -0.56449   0.16196
H    -2.82013   1.12014  -0.35441
H     1.96555  -0.12801  -1.30358
H     2.47214   0.94519   1.14700
H     0.65411  -0.23841   2.81291
H    -0.75126  -1.92453   1.21132
