24
Generated by autodE on: 2022-06-02. E = -721.580534 Ha
C    -1.35229  -3.94370   0.01878
N    -1.42021  -2.49757   0.03016
C    -0.30659  -1.74531   0.00089
O     0.83714  -2.22473  -0.04103
C    -0.50351  -0.27017   0.02049
N     0.60699   0.43359  -0.01013
C     1.66584   0.93703  -0.03888
C     2.97289   1.53630  -0.10028
C     4.10065   0.54375  -0.13469
O     3.10135   2.75318  -0.11493
C    -1.78474   0.42839   0.06840
O    -2.87506  -0.13066   0.10257
O    -1.64532   1.76052   0.07075
C    -2.85186   2.53494   0.11306
H    -0.80005  -4.32844   0.89151
H    -2.37246  -4.34572   0.04340
H    -0.84775  -4.31603  -0.88741
H    -2.31567  -2.01298   0.06714
H     4.73754   0.76671  -1.00502
H     3.73948  -0.49281  -0.18693
H     4.70726   0.67734   0.77586
H    -3.41991   2.31516   1.02865
H    -2.53498   3.58413   0.10683
H    -3.47797   2.32205  -0.76552
