40
Generated by autodE on: 2022-06-02. E = -1167.705540 Ha. Imaginary frequency = -321.8 cm-1
C    -2.42999  -2.60795  -1.99127
N    -1.89073  -1.35588  -1.49926
C    -2.50259  -0.69548  -0.48864
O    -3.58167  -1.05349  -0.00600
C    -1.76407   0.50878  -0.00524
C    -2.04480   1.11934   1.30302
O    -2.72522   0.61549   2.18014
O    -1.43264   2.30880   1.44068
C    -1.54698   2.94191   2.71942
N    -0.95599   1.15123  -0.82931
C     0.16149   1.52874  -1.06179
C     0.91123   2.50652  -1.86492
C     0.98025   2.22083  -3.33261
O     1.46368   3.43026  -1.29233
C     1.43334   0.44107   0.43562
C     2.08331  -0.55978  -0.55471
O     0.94145  -1.40882  -0.82425
C     0.69020  -1.74060   0.55811
C     2.09032  -2.25311   0.92493
F     2.28740  -3.18308   1.86219
C     2.98516  -1.52648   0.25105
C     4.46820  -1.47266   0.29910
C     0.56816  -0.32865   1.16651
H    -2.35132  -3.41514  -1.24211
H    -3.49137  -2.49190  -2.25231
H    -1.87558  -2.90743  -2.88988
H    -0.88765  -1.19907  -1.61457
H    -2.60065   3.14359   2.96121
H    -0.99116   3.88347   2.63983
H    -1.10805   2.30952   3.50537
H     1.44107   1.23126  -3.48875
H    -0.03731   2.17699  -3.75297
H     1.57281   2.99887  -3.83171
H     1.88410   1.38901   0.73159
H     2.51278  -0.15059  -1.47592
H    -0.14774  -2.43460   0.68299
H     4.87373  -2.23798   0.97684
H     4.80747  -0.48276   0.65266
H     4.90869  -1.62093  -0.70142
H     0.12116  -0.11728   2.13533
