36
Generated by autodE on: 2022-10-20. E = -1322.162822 Ha
C    -1.19487  -2.76491   0.87023
O    -0.31592  -2.00528   0.05019
C    -0.43242  -0.61329  -0.03521
C    -0.90896   0.05938   1.30837
C    -0.77367   1.57130   1.22170
C    -1.76073   1.97725   0.41544
C    -2.48742   0.70346   0.00595
O    -2.33542  -0.11367   1.17183
C    -1.56148  -0.05282  -0.99824
Cl   -2.47470  -1.34324  -1.85697
N    -0.90073   0.78740  -1.99247
O     0.38793   1.07756  -1.44999
C     0.86105  -0.07019  -0.70958
C     1.46681  -1.08299  -1.68678
C     1.90620   0.40814   0.28054
C     2.30617  -0.44487   1.32076
C     3.27316  -0.03438   2.24064
C     3.85939   1.23077   2.12718
C     3.47221   2.07923   1.08639
C     2.50145   1.67088   0.16630
H    -1.03050  -2.56831   1.94183
H    -0.95139  -3.81756   0.66955
H    -2.25086  -2.58528   0.62966
H    -0.52843  -0.42539   2.21167
H     0.02092   2.15613   1.68042
H    -1.97476   2.97628   0.03859
H    -3.53293   0.78116  -0.30954
H    -0.73427   0.22172  -2.82952
H     1.89958  -1.93870  -1.15484
H     0.71223  -1.46485  -2.39013
H     2.26341  -0.57878  -2.25296
H     1.85022  -1.43238   1.41454
H     3.56897  -0.70558   3.05044
H     4.61552   1.55287   2.84702
H     3.92600   3.06844   0.98843
H     2.19625   2.34114  -0.63701
