17
Generated by autodE on: 2022-10-20. E = -881.716876 Ha
C     2.80316  -0.23490   0.53080
O     1.72896  -1.15205   0.30133
C     0.54315  -0.65795  -0.06214
C     0.00829   0.55726  -0.28747
Cl    0.62105   2.16834  -0.11897
C    -1.49473   0.28056  -0.52797
C    -2.10589  -0.19475   0.81261
C    -1.56951  -1.40052   1.02263
C    -0.64979  -1.63501  -0.19841
O    -1.40463  -0.97480  -1.22881
H     3.67734  -0.84452   0.79141
H     3.01701   0.34922  -0.37712
H     2.56465   0.44539   1.36185
H    -2.03794   1.04378  -1.09585
H    -2.77690   0.39117   1.43983
H    -1.67416  -2.07831   1.86885
H    -0.38569  -2.66698  -0.45468
