25
Generated by autodE on: 2022-06-21. E = -611.140498 Ha
N    -0.20314  -2.59559  -1.89042
N    -0.13141  -1.67425  -1.21974
C    -0.04952  -0.61853  -0.45162
C     1.30387  -0.21927  -0.01371
C     1.60490   1.13151   0.25153
C     2.88940   1.50735   0.64759
C     3.90275   0.55182   0.77617
C     3.61682  -0.78998   0.50355
C     2.33213  -1.17373   0.11796
C    -1.31799   0.05495  -0.10715
C    -2.43630  -0.02428  -0.96123
C    -3.64063   0.59089  -0.61868
C    -3.75544   1.30607   0.57798
C    -2.65220   1.38904   1.43374
C    -1.44752   0.76729   1.10184
H     0.83392   1.89399   0.13465
H     3.10104   2.56057   0.84762
H     4.90715   0.85047   1.08461
H     4.39771  -1.54811   0.60072
H     2.12197  -2.22794  -0.07658
H    -2.36086  -0.56731  -1.90611
H    -4.49338   0.51771  -1.29800
H    -4.69681   1.79327   0.84179
H    -2.73020   1.93572   2.37668
H    -0.60526   0.82439   1.79228
