45
Generated by autodE on: 2022-06-21. E = -1068.823282 Ha. Imaginary frequency = -447.9 cm-1
C     3.79434  -1.61899  -1.94583
N     3.18062  -0.86118  -0.86667
C     3.39993   0.51711  -0.82063
C     2.79230   1.30540   0.08198
C     1.91363   0.70724   1.14838
C     1.30876  -0.60969   0.69694
C     0.53403  -1.41302   1.65571
N     0.05466  -0.76268   2.74645
O     0.32892  -2.63419   1.51109
C     1.94865  -1.32176  -0.35599
N     0.86622  -1.09423  -1.90715
N    -0.07923  -0.43068  -1.67190
C    -0.67885   0.09672  -0.55491
C    -1.86600  -0.68336  -0.10921
C    -3.00233  -0.07083   0.45585
C    -4.09483  -0.83338   0.87107
C    -4.09030  -2.22207   0.71398
C    -2.98393  -2.84059   0.12391
C    -1.88780  -2.08299  -0.28391
C    -0.60111   1.56706  -0.44810
C    -0.08146   2.34236  -1.50351
C     0.06788   3.72299  -1.37344
C    -0.29138   4.36474  -0.18443
C    -0.79724   3.60700   0.87589
C    -0.94895   2.22554   0.75075
H     3.34975  -1.40260  -2.93254
H     4.86902  -1.39147  -1.99190
H     3.68166  -2.69392  -1.74658
H     4.10126   0.90612  -1.56289
H     2.98866   2.37853   0.08584
H     2.50662   0.52879   2.07144
H     1.14130   1.43126   1.44661
H    -0.55249  -1.27127   3.37970
H     0.11024   0.24386   2.83736
H     1.86445  -2.40896  -0.32763
H    -3.05106   1.01131   0.55589
H    -4.96175  -0.33255   1.30814
H    -4.94816  -2.81674   1.03617
H    -2.97171  -3.92323  -0.02094
H    -1.04078  -2.58727  -0.74570
H     0.19428   1.86052  -2.44234
H     0.46458   4.30096  -2.21133
H    -0.17685   5.44638  -0.08430
H    -1.06906   4.09151   1.81647
H    -1.30710   1.65249   1.60465
