37
Generated by autodE on: 2022-05-29. E = -934.072442 Ha
C     3.50414  -1.76273  -2.65347
O     2.54717  -0.88565  -2.03950
C     1.90372  -1.37505  -0.98168
O     2.07354  -2.48577  -0.51308
N     0.99403  -0.47526  -0.45627
N     0.78791   0.72850  -1.01617
C    -0.16010   1.34723  -0.39997
C    -0.61390   2.69523  -0.79815
C     0.06509   3.35658  -1.96238
O    -1.52412   3.22210  -0.16794
C    -0.77475   0.54869   0.73934
C    -0.72059   1.30884   1.98421
N    -0.67595   1.90154   2.98101
C    -2.20650   0.00016   0.41462
C    -2.71330  -0.79535   1.63394
C    -1.84463  -2.08846   1.60077
C    -0.91881  -1.86452   0.38759
C    -1.86449  -1.12486  -0.57607
C     0.12384  -0.76856   0.72895
C     0.97897  -0.99444   1.96623
H     3.01237  -2.67839  -3.01165
H     3.92149  -1.20175  -3.49740
H     4.29924  -2.02460  -1.94093
H    -0.03715   2.73348  -2.86442
H     1.14304   3.46009  -1.76293
H    -0.38183   4.34372  -2.13449
H    -2.87648   0.79443   0.06653
H    -2.61287  -0.23406   2.57355
H    -3.78024  -1.02458   1.50307
H    -1.29681  -2.26321   2.53529
H    -2.46609  -2.97603   1.41614
H    -0.44125  -2.77587   0.01031
H    -2.74826  -1.72328  -0.83893
H    -1.38767  -0.77926  -1.50358
H     1.50864  -1.95267   1.89502
H     0.35892  -1.00445   2.87134
H     1.71807  -0.18723   2.07092
