21
Generated by autodE on: 2022-05-29. E = -404.490445 Ha
C     2.26310  -0.84861  -0.34717
C     0.86917  -0.56520   0.07345
C     0.25979   0.63237   0.28405
C     0.84332   1.91038   0.12022
N     1.30956   2.97380  -0.00032
C    -1.22795   0.36953   0.52338
C    -1.80619  -0.08244  -0.85276
C    -1.09931  -1.44802  -1.08867
C    -0.21655  -1.61726   0.19449
C    -1.13368  -0.98183   1.25997
H     2.74891  -1.53583   0.36617
H     2.26377  -1.36376  -1.32367
H     2.86773   0.06588  -0.43123
H    -1.77689   1.18262   1.01305
H    -2.89762  -0.20224  -0.78324
H    -1.59631   0.65363  -1.64157
H    -1.82430  -2.27300  -1.14797
H    -0.49170  -1.46795  -2.00468
H     0.14385  -2.63923   0.36612
H    -0.65619  -0.90168   2.24756
H    -2.10462  -1.49149   1.35428
