16
Generated by autodE on: 2022-05-29. E = -529.485822 Ha
C     4.02420  -0.56599  -0.52744
O     3.01889   0.10477   0.24271
C     1.75299  -0.13850  -0.10367
O     1.40967  -0.87703  -1.00907
N     0.90945   0.58841   0.73729
N    -0.31154   0.41766   0.48160
C    -1.45763   0.30403   0.29589
C    -2.91050   0.21268   0.15133
C    -3.39144  -0.68651  -0.94096
O    -3.61320   0.85728   0.90786
H     4.98601  -0.25245  -0.10516
H     3.91157  -1.65689  -0.44388
H     3.96112  -0.27181  -1.58536
H    -2.99574  -1.70360  -0.78590
H    -3.00312  -0.32905  -1.90900
H    -4.48909  -0.69826  -0.95100
