37
Generated by autodE on: 2022-05-29. E = -933.969481 Ha. Imaginary frequency = -277.3 cm-1
C     4.18166  -1.01754  -2.32270
O     2.87492  -0.54003  -1.97392
C     2.05432  -1.42530  -1.39023
O     2.35369  -2.57971  -1.14044
N     0.80947  -0.91978  -1.06117
N     0.57760   0.31178  -1.25311
C    -0.07397   1.23475  -0.84790
C    -0.59936   2.57486  -1.14075
C     0.21012   3.35340  -2.13810
O    -1.59993   2.98791  -0.58535
C    -0.90409   0.31505   1.18078
C    -0.40283   1.42605   1.91451
N    -0.00387   2.34261   2.51495
C    -2.39963   0.09617   0.90163
C    -2.97685  -0.56223   2.18850
C    -2.29570  -1.96063   2.19319
C    -1.40807  -1.93237   0.89944
C    -2.31494  -1.11719  -0.04182
C    -0.31177  -0.94495   1.22243
C     0.96543  -1.30555   1.89408
H     4.11030  -1.85267  -3.03459
H     4.69723  -0.16861  -2.78671
H     4.72414  -1.34590  -1.42431
H     0.25710   2.80259  -3.09087
H     1.24278   3.46334  -1.76981
H    -0.25046   4.33881  -2.28518
H    -2.93548   0.98191   0.54613
H    -2.74586   0.03182   3.08449
H    -4.07088  -0.64720   2.11226
H    -1.69842  -2.14958   3.09618
H    -3.03435  -2.77025   2.10276
H    -1.06154  -2.91624   0.56227
H    -3.29268  -1.59336  -0.20501
H    -1.84866  -0.89382  -1.01052
H     1.43710  -2.17745   1.42070
H     0.75652  -1.57110   2.94646
H     1.67393  -0.46477   1.89604
