57
Generated by autodE on: 2022-06-07. E = -1544.893468 Ha
C    -0.17655   4.96663  -0.29287
N    -0.32538   3.57753   0.09173
C     0.56346   2.64607  -0.34158
O     1.65191   2.93990  -0.85516
N     0.19527   1.33352  -0.12415
N    -1.03791   1.03165   0.47732
C    -0.92077   0.90059   1.94054
C    -1.49461  -0.12833  -0.28922
C    -2.26909   0.33566  -1.58445
C    -2.41106   1.79498  -1.88173
O    -2.83671  -0.51724  -2.23943
C    -2.58834  -0.95361   0.40058
O    -2.63830  -2.16215   0.38786
O    -3.53428  -0.16941   0.90169
C    -4.67510  -0.82036   1.49122
C    -0.18243  -0.96230  -0.64264
C    -0.02773  -2.15555   0.29074
O     0.04362  -2.08277   1.49902
O     0.04259  -3.30491  -0.37527
C     0.17696  -4.49864   0.40997
C    -0.09113  -1.30677  -2.17437
C     1.23554  -1.96629  -2.50757
C     2.14690  -0.99001  -2.44147
C     1.37216   0.25244  -2.04785
O     0.10636   0.02055  -2.68587
C     0.96577   0.14516  -0.51567
C     2.12677  -0.13241   0.44437
C     2.52698   0.84335   1.37066
C     3.60182   0.62474   2.23701
C     4.30160  -0.58256   2.20563
C     3.90453  -1.57161   1.30248
C     2.83229  -1.34961   0.43627
H    -0.39647   5.13387  -1.36216
H    -0.86516   5.57790   0.30498
H     0.85001   5.30625  -0.09871
H    -1.24866   3.23262   0.33709
H    -0.48948   1.83533   2.32005
H    -0.29307   0.05367   2.24976
H    -1.92244   0.79203   2.37181
H    -2.92898   2.28613  -1.04467
H    -1.43419   2.27699  -2.00407
H    -3.00015   1.90557  -2.80082
H    -4.35571  -1.45702   2.32783
H    -5.32604  -0.01499   1.84807
H    -5.19173  -1.42856   0.73576
H     0.22917  -5.32590  -0.30662
H    -0.69559  -4.61474   1.06849
H     1.09377  -4.45569   1.01460
H    -0.99262  -1.77121  -2.57596
H     1.37530  -3.02749  -2.70156
H     3.22729  -1.04859  -2.56201
H     1.78537   1.22693  -2.30884
H     1.99777   1.79033   1.43654
H     3.88675   1.40812   2.94323
H     5.14035  -0.75550   2.88388
H     4.42490  -2.53175   1.27284
H     2.54460  -2.15254  -0.23708
