28
Generated by autodE on: 2022-06-07. E = -778.168614 Ha
C     3.81437   1.43218   0.89637
N     3.06788   0.20162   0.74980
C     1.92599   0.13973   0.03797
O     1.41392   1.12650  -0.50957
N     1.46945  -1.17775  -0.08385
N     0.24598  -1.39496  -0.47286
C     0.10277  -2.73529  -1.09377
C    -0.81964  -0.58879  -0.30625
C    -2.09243  -0.84163  -1.01991
C    -3.36628  -0.28143  -0.43515
O    -2.12401  -1.49288  -2.06047
C    -0.73482   0.49656   0.71158
O    -0.20638   0.36441   1.79991
O    -1.36646   1.60049   0.32512
C    -1.40398   2.68467   1.26504
H     4.39190   1.67918  -0.01122
H     4.51244   1.33092   1.73689
H     3.12935   2.26720   1.10072
H     3.47191  -0.67314   1.06881
H     0.20538  -2.63592  -2.18046
H    -0.86605  -3.17524  -0.84561
H     0.92371  -3.33695  -0.69369
H    -3.35573  -0.26153   0.66373
H    -4.20250  -0.89533  -0.79591
H    -3.51397   0.75019  -0.78947
H    -0.38217   3.02059   1.49186
H    -1.96950   3.48599   0.77654
H    -1.90538   2.37319   2.19242
