29
Generated by autodE on: 2022-06-07. E = -766.672117 Ha
C    -3.53696   2.49028   0.16512
O    -2.86384   1.25580  -0.10393
C    -1.52389   1.31397  -0.25210
O    -0.90677   2.36431  -0.16357
C    -0.98573  -0.01757  -0.51465
C     0.24972  -0.55747  -0.32732
C     1.54268  -0.04482   0.10690
C     2.45480  -0.93239   0.72124
C     3.69724  -0.48411   1.16704
C     4.06718   0.85274   0.98779
C     3.18195   1.73859   0.36351
C     1.93171   1.30039  -0.06976
C     0.01272  -2.08428  -0.55378
C    -0.81517  -2.59040   0.64510
C    -2.02587  -2.05264   0.46870
C    -1.90465  -1.22719  -0.82973
O    -0.98658  -2.03741  -1.57819
H    -4.60229   2.24360   0.24386
H    -3.37313   3.20719  -0.65299
H    -3.17961   2.92977   1.10802
H     2.18425  -1.97928   0.86839
H     4.38254  -1.18329   1.65143
H     5.04474   1.20191   1.32842
H     3.46929   2.78165   0.21161
H     1.24352   1.99292  -0.54895
H     0.88607  -2.66965  -0.85625
H    -0.42669  -3.19481   1.46382
H    -2.91062  -2.09564   1.10280
H    -2.82160  -1.01090  -1.38518
