57
Generated by autodE on: 2022-06-07. E = -1544.827313 Ha. Imaginary frequency = -215.0 cm-1
C    -0.03284   4.94739   0.78981
N    -0.44729   3.56949   0.60395
C     0.37005   2.68124  -0.01750
O     1.51431   2.98082  -0.37527
N    -0.15441   1.43127  -0.34196
N    -1.15746   0.89742   0.34188
C    -1.15302   0.91790   1.82492
C    -1.84277  -0.01131  -0.39379
C    -2.21944   0.33788  -1.81370
C    -2.20543   1.78254  -2.25601
O    -2.66015  -0.52615  -2.55595
C    -2.72999  -1.05169   0.22407
O    -2.92813  -2.13261  -0.29017
O    -3.31549  -0.65578   1.35022
C    -4.12909  -1.62695   2.03125
C     0.20904  -1.24735  -0.88686
C    -0.08247  -2.36718   0.00749
O    -0.22305  -2.34104   1.22245
O    -0.22826  -3.50684  -0.69609
C    -0.62203  -4.67267   0.03564
C     0.17219  -1.48061  -2.41672
C     1.53947  -2.06705  -2.81337
C     2.40052  -1.05169  -2.68113
C     1.53825   0.13098  -2.19776
O     0.31130  -0.13211  -2.87656
C     1.15052  -0.19389  -0.72071
C     2.17220  -0.00782   0.33376
C     3.42358   0.53886  -0.02017
C     4.42868   0.71932   0.93075
C     4.20655   0.37271   2.26572
C     2.96836  -0.16269   2.63453
C     1.96576  -0.35306   1.68377
H     0.10897   5.46856  -0.17205
H    -0.80709   5.47161   1.36390
H     0.91424   4.99720   1.34693
H    -1.42700   3.34146   0.73293
H    -0.27350   1.47491   2.15388
H    -1.10036  -0.10493   2.20672
H    -2.06709   1.39889   2.19084
H    -2.29356   2.49440  -1.42721
H    -1.27130   1.98774  -2.79561
H    -3.04423   1.91217  -2.95466
H    -3.52062  -2.50197   2.30004
H    -4.49937  -1.12567   2.93226
H    -4.96682  -1.93856   1.39219
H    -0.68161  -5.48424  -0.69911
H    -1.60354  -4.51456   0.50551
H     0.11963  -4.91629   0.80983
H    -0.72914  -1.95900  -2.80563
H     1.72479  -3.10857  -3.07251
H     3.48254  -1.03547  -2.80397
H     1.89655   1.14704  -2.37958
H     3.62466   0.83640  -1.04830
H     5.38854   1.14147   0.62415
H     4.98990   0.52073   3.01273
H     2.77868  -0.43785   3.67487
H     1.01738  -0.78480   1.98558
