21
Generated by autodE on: 2022-06-02. E = -797.432684 Ha
C     2.93145  -1.55054  -0.31697
C     2.05490  -0.36818  -0.02037
O     2.45067   0.61377   0.59423
C     0.66116  -0.44404  -0.51433
C    -0.41735   0.26460  -0.13647
C    -0.55744   1.34203   0.89071
F    -1.85910   1.61542   1.11148
F     0.02543   2.49154   0.50917
F    -0.02671   0.99821   2.07697
C    -1.60854  -0.36708  -0.89652
C    -1.83016  -1.76811  -0.27958
C    -0.76672  -2.47952  -0.66124
C     0.08580  -1.50017  -1.49960
O    -0.94482  -0.71461  -2.11958
H     2.42969  -2.48493  -0.01538
H     3.89426  -1.44900   0.19961
H     3.09946  -1.61679  -1.40517
H    -2.48544   0.26759  -1.05525
H    -2.66466  -2.03839   0.36576
H    -0.48324  -3.50301  -0.41996
H     0.78206  -1.92531  -2.22830
