24
Generated by autodE on: 2022-06-02. E = -610.171502 Ha
C     4.76053   0.37146   0.26725
C     3.30735   0.73955   0.13660
O     2.93054   1.91642   0.00048
C     2.34831  -0.33942   0.17626
N     1.06628   0.01089   0.06227
C    -0.06688  -0.70638   0.05397
C     0.06127  -2.11303   0.17334
N     0.18022  -3.26935   0.27338
C    -1.38485  -0.08259  -0.07240
C    -2.53699  -0.89363  -0.14886
C    -3.80309  -0.32398  -0.27489
C    -3.95287   1.06532  -0.32804
C    -2.81745   1.87973  -0.24957
C    -1.54861   1.31801  -0.12095
H     5.38365   1.27416   0.22517
H     4.93517  -0.15656   1.21903
H     5.05161  -0.31913  -0.54115
H     2.61723  -1.38815   0.29213
H     0.97076   1.03338  -0.03895
H    -2.43785  -1.98047  -0.11237
H    -4.67956  -0.97333  -0.33321
H    -4.94487   1.51098  -0.42790
H    -2.91877   2.96678  -0.28576
H    -0.69015   1.98922  -0.05386
