59
Generated by autodE on: 2022-06-11. E = -3937.090223 Ha
C    -4.92444   0.53670   0.44861
O    -3.59514   0.63487  -0.06514
C    -2.59820   0.37590   0.80185
O    -2.79411   0.22237   1.98260
C    -1.24112   0.48068   0.08561
C    -1.27334   1.77387  -0.81545
C    -1.69518   2.99190   0.03680
C    -0.43156   3.26959   0.89052
C     0.53828   2.14920   0.46007
C     0.21390   2.06984  -1.04029
C     0.05737   0.76056   0.97550
Br   -0.07555   0.91003   2.96665
C     1.05220  -0.42476   0.67677
C     0.84428  -1.64676   1.64071
C     2.01316  -2.48125   2.08828
O    -0.29420  -2.00481   1.88441
C     2.48996   0.09398   0.64005
C     3.10982   0.45988  -0.56397
C     4.38541   1.02954  -0.57352
C     5.06604   1.25563   0.62529
C     4.45458   0.90787   1.83272
C     3.18159   0.33345   1.83811
N     0.58746  -0.92573  -0.61748
C     1.33135  -2.01767  -1.23411
C    -0.85954  -0.82706  -0.75725
C    -1.69703  -2.08829  -0.33296
C    -1.24258  -3.46484  -0.73969
O    -2.77467  -1.95528   0.21356
C    -1.20408  -0.61562  -2.28280
C    -2.61596  -0.84383  -2.73760
O    -0.32580  -0.30597  -3.06105
H    -5.11216  -0.47728   0.83162
H    -5.08558   1.26674   1.25530
H    -5.59260   0.75203  -0.39364
H    -1.89045   1.64863  -1.71007
H    -2.59215   2.81764   0.64498
H    -1.92387   3.83338  -0.63290
H     0.02235   4.23717   0.63200
H    -0.63127   3.27454   1.96761
H     1.57674   2.35258   0.73357
H     0.74084   1.28580  -1.58423
H     0.37212   3.03484  -1.54415
H     1.66551  -3.51260   2.23793
H     2.85102  -2.44916   1.38085
H     2.38338  -2.10200   3.05453
H     2.58673   0.31677  -1.50727
H     4.84454   1.30280  -1.52651
H     6.06304   1.70234   0.61937
H     4.96798   1.08585   2.78056
H     2.71944   0.09501   2.79441
H     0.92759  -2.22199  -2.23098
H     1.32454  -2.95836  -0.66047
H     2.38076  -1.72687  -1.36116
H    -0.86422  -3.48909  -1.76967
H    -0.43736  -3.80664  -0.07494
H    -2.09722  -4.14589  -0.63725
H    -2.74725  -0.40532  -3.73503
H    -3.34164  -0.43507  -2.02475
H    -2.79371  -1.93026  -2.80703
