36
Generated by autodE on: 2022-07-27. E = -862.644069 Ha
C    -1.67515  -0.81525   1.94248
C    -0.68163   0.26226   1.59420
O    -0.58302   1.27156   2.27017
C     0.31941   0.06595   0.47181
C     1.61875   0.74340   0.62648
C     2.10817   1.57119  -0.39972
C     3.32439   2.23456  -0.24268
C     4.06770   2.07002   0.93095
C     3.58281   1.25270   1.95754
C     2.35763   0.60219   1.81497
N     0.05095  -0.70657  -0.55860
C     1.10281  -1.13726  -1.49672
C    -1.29532  -0.87441  -0.98008
C    -1.80730  -2.19010  -1.27063
C    -1.01949  -3.40791  -0.81224
O    -2.90574  -2.38834  -1.81897
C    -2.02868   0.36862  -1.11550
C    -3.35215   0.38049  -1.84190
O    -1.59062   1.44095  -0.65587
H    -1.38185  -1.80665   1.57769
H    -1.76548  -0.82480   3.03857
H    -2.66300  -0.56660   1.52713
H     1.51780   1.71482  -1.30558
H     3.69125   2.88648  -1.03839
H     5.02315   2.58619   1.04921
H     4.15920   1.12567   2.87636
H     1.97833  -0.03138   2.61882
H     2.05687  -1.25036  -0.97053
H     1.19954  -0.40457  -2.30860
H     0.80420  -2.09498  -1.93366
H    -0.18703  -3.19063  -0.13160
H    -0.63074  -3.94367  -1.69352
H    -1.72582  -4.08559  -0.30960
H    -3.68286   1.42337  -1.93727
H    -4.09715  -0.19131  -1.26746
H    -3.28534  -0.09601  -2.82874
