36
Generated by autodE on: 2022-06-11. E = -862.643915 Ha
C     0.81608  -2.25461  -1.51938
C     0.10652  -0.93701  -1.40943
O    -0.64961  -0.51699  -2.26545
C     0.46793  -0.03558  -0.23452
C     1.88096   0.00788   0.17580
C     2.88099   0.20233  -0.79368
C     4.22404   0.21405  -0.41716
C     4.57997   0.00392   0.91904
C     3.58899  -0.21454   1.88237
C     2.24351  -0.20810   1.51764
N    -0.45152   0.73115   0.29767
C    -0.10200   1.80144   1.24900
C    -1.83479   0.38161   0.22295
C    -2.80641   1.35591  -0.19466
C    -2.31733   2.62379  -0.87810
O    -4.03541   1.18574  -0.08891
C    -2.10954  -0.99618   0.52327
C    -3.52604  -1.44469   0.78867
O    -1.19385  -1.84974   0.56141
H     1.15087  -2.63068  -0.54580
H     0.14634  -2.97715  -2.00546
H     1.70040  -2.12256  -2.16508
H     2.60317   0.36133  -1.83799
H     4.99585   0.38232  -1.17109
H     5.63287   0.00378   1.20974
H     3.86558  -0.39358   2.92356
H     1.47020  -0.39442   2.26415
H    -0.09744   1.39977   2.27092
H     0.87816   2.22353   1.00266
H    -0.86569   2.58219   1.19009
H    -2.39581   3.47815  -0.18572
H    -2.99484   2.82816  -1.72015
H    -1.28663   2.56058  -1.25042
H    -4.03256  -0.80688   1.52456
H    -4.11383  -1.38188  -0.14067
H    -3.50019  -2.48768   1.13224
