23
Generated by autodE on: 2022-06-11. E = -3074.434075 Ha
C     3.61179  -0.01306  -1.96442
O     2.22918   0.32666  -1.81529
C     1.70411   0.18635  -0.58097
O     2.35475  -0.20311   0.37159
C     0.28647   0.56220  -0.56478
C    -0.65404   0.24796   0.35737
Br   -0.47806  -0.76370   1.93068
C    -2.01087   0.66073  -0.17071
C    -2.31944  -0.33844  -1.33605
C    -1.26414   0.04207  -2.41250
C    -0.47389   1.20052  -1.72685
C    -1.60675   1.91902  -0.96698
H     4.23942   0.62513  -1.32486
H     3.78337  -1.06733  -1.70117
H     3.85419   0.15607  -3.02019
H    -2.80235   0.75224   0.58161
H    -2.24558  -1.38347  -1.00348
H    -3.34480  -0.16998  -1.69572
H    -0.60071  -0.79140  -2.68217
H    -1.74387   0.40628  -3.33288
H     0.14399   1.80073  -2.40351
H    -2.40949   2.28322  -1.62539
H    -1.24646   2.73600  -0.32518
