59
Generated by autodE on: 2022-06-11. E = -3937.024042 Ha. Imaginary frequency = -280.0 cm-1
C    -4.25540   0.09200   1.99868
O    -2.89902   0.29699   1.60037
C    -2.69628   0.82863   0.40159
O    -3.61489   1.18641  -0.32673
C    -1.27964   1.03500   0.02730
C    -1.02294   1.97751  -1.14743
C    -1.21037   3.41353  -0.56024
C     0.03302   3.57807   0.35546
C     0.76035   2.20824   0.20375
C     0.50665   1.92651  -1.28408
C    -0.13954   1.15774   0.85907
Br   -0.19489   1.30336   2.77725
C     0.95783  -0.86777   0.52746
C     0.32651  -1.74566   1.63140
C     1.16924  -2.93074   2.06835
O    -0.80138  -1.60724   2.04520
C     2.34250  -0.42636   0.77754
C     3.21600   0.09236  -0.20704
C     4.45963   0.61996   0.13532
C     4.87261   0.66772   1.46912
C     4.01288   0.19399   2.46332
C     2.77198  -0.33854   2.12417
N     0.49136  -1.21496  -0.72734
C     1.43783  -1.67146  -1.77657
C    -0.88033  -1.21595  -1.02747
C    -1.80100  -2.18448  -0.35925
C    -1.27483  -3.58951  -0.15562
O    -2.98653  -1.95183  -0.16672
C    -1.27434  -0.81023  -2.39008
C    -2.72594  -0.92046  -2.79947
O    -0.46254  -0.34005  -3.19389
H    -4.76404  -0.58603   1.29906
H    -4.21061  -0.35980   2.99669
H    -4.79836   1.04784   2.03989
H    -1.61942   1.78205  -2.04261
H    -1.20847   4.14329  -1.38369
H    -2.16318   3.51919  -0.02346
H     0.69647   4.37851  -0.00350
H    -0.22263   3.79552   1.40083
H     1.79642   2.20303   0.55790
H     0.87792   0.96746  -1.64216
H     0.89565   2.72390  -1.93369
H     2.00701  -3.13997   1.39176
H     1.57229  -2.73274   3.07342
H     0.50999  -3.80540   2.14708
H     2.93161   0.11871  -1.25262
H     5.10704   1.00730  -0.65433
H     5.84840   1.08198   1.73214
H     4.30443   0.24339   3.51459
H     2.12175  -0.66217   2.93338
H     2.29413  -2.14114  -1.27973
H     1.78123  -0.87553  -2.44280
H     0.92595  -2.42903  -2.37897
H    -0.18331  -3.67238  -0.18452
H    -1.67419  -4.18498  -0.99438
H    -1.67172  -4.01051   0.77834
H    -2.80670  -0.55727  -3.83212
H    -3.36967  -0.31757  -2.14487
H    -3.08464  -1.95913  -2.74692
