38
Generated by autodE on: 2022-06-08. E = -1157.854464 Ha
C     2.64339  -4.55344   0.31194
N     2.47641  -3.15730  -0.03860
C     1.32320  -2.49825   0.12728
O     0.30379  -2.99088   0.61708
C     1.34206  -0.99661  -0.26423
C     2.12238  -0.76345  -1.58324
O     3.32976  -1.03489  -1.62363
N     1.43371  -0.28096  -2.62276
C     2.02501  -0.00346  -3.91768
C    -0.01243  -0.46144  -0.30267
C    -0.92963   0.32170  -0.21007
C    -1.62305   1.52991   0.23746
C    -2.35460   2.16972  -0.87105
N    -2.91445   2.69736  -1.75907
C    -2.66592   1.18269   1.33357
F    -3.28795   2.28677   1.76445
F    -3.59870   0.34799   0.85586
F    -2.09072   0.59411   2.38553
C    -0.52448   2.52527   0.77178
C     0.61671   1.91502   1.60833
C     1.85064   1.33278   0.86336
C     2.05512  -0.19455   0.88694
H     3.67305  -4.72688   0.65345
H     1.94888  -4.81577   1.12011
H     2.44394  -5.21765  -0.54578
H     3.22389  -2.65837  -0.52177
H     0.45319  -0.05339  -2.48439
H     1.45557  -0.50660  -4.71313
H     3.05649  -0.37349  -3.92591
H     2.03178   1.07833  -4.12351
H    -1.05231   3.29635   1.35152
H    -0.10223   3.02552  -0.11165
H     0.21894   1.17294   2.31560
H     0.97603   2.74764   2.23193
H     1.87604   1.70047  -0.17606
H     2.74532   1.75762   1.34318
H     1.69664  -0.60344   1.84393
H     3.12543  -0.42912   0.80874
