29
Generated by autodE on: 2022-05-26. E = -1222.537348 Ha
C    -3.51841   1.74156  -0.31829
C    -2.61600   1.26923   0.77931
O    -2.73463   1.59296   1.94539
C    -1.41352   0.46200   0.36132
C    -0.10586   0.86343   0.22361
Cl    0.47890   2.45334   0.55149
C     0.63456  -0.29628  -0.20354
C     2.07348  -0.43860  -0.47566
C     2.83437   0.63099  -0.97974
C     4.19539   0.46407  -1.24409
C     4.81352  -0.76767  -1.01085
C     4.06149  -1.83860  -0.51490
C     2.70229  -1.67725  -0.24895
N    -0.19057  -1.32948  -0.30554
N    -1.42215  -0.87444   0.02800
C    -2.55297  -1.72169   0.08064
C    -2.33577  -3.13847  -0.33751
O    -3.60659  -1.24835   0.45716
H    -2.99042   2.55863  -0.84206
H    -4.45819   2.12724   0.09914
H    -3.70772   0.94848  -1.05460
H     2.36088   1.59126  -1.18261
H     4.77398   1.30183  -1.63989
H     5.87918  -0.89416  -1.21551
H     4.53860  -2.80365  -0.32913
H     2.11707  -2.50893   0.14616
H    -1.94871  -3.17680  -1.36637
H    -3.29042  -3.67270  -0.26829
H    -1.58635  -3.61368   0.31274
