29
Generated by autodE on: 2022-05-26. E = -1222.376319 Ha. Imaginary frequency = -372.2 cm-1
C    -3.48807   2.15477   0.10899
C    -2.82053   1.17124   1.02905
O    -3.43851   0.50685   1.85436
C    -1.37947   1.05887   0.93294
C    -0.14147   1.06439   1.01897
Cl    1.26233   1.64013   1.73134
C     0.58578  -0.40707  -0.52571
C     2.01018  -0.46804  -0.68070
C     2.59937  -0.01969  -1.88056
C     3.98364  -0.07164  -2.02468
C     4.78068  -0.56469  -0.98461
C     4.19600  -1.00630   0.20762
C     2.81350  -0.95146   0.37015
N    -0.48631  -0.71717  -0.97676
N    -1.72014  -0.40582  -0.99081
C    -2.65452  -1.42633  -0.76733
C    -2.15535  -2.83813  -0.62639
O    -3.83428  -1.11510  -0.68805
H    -3.23211   3.17683   0.43624
H    -4.57694   2.01932   0.15226
H    -3.12394   2.03410  -0.92036
H     1.96604   0.36126  -2.68335
H     4.44426   0.27177  -2.95324
H     5.86568  -0.60369  -1.10448
H     4.82157  -1.39080   1.01563
H     2.34640  -1.28608   1.29732
H    -1.58370  -3.13659  -1.51860
H    -3.00642  -3.51414  -0.48133
H    -1.47426  -2.90548   0.23762
