36
Generated by autodE on: 2022-05-29. E = -1102.454729 Ha
C     3.04706   1.17976  -1.63129
C     2.19616   1.04113  -0.40131
O     2.31308   1.78810   0.55409
C     1.21691  -0.15272  -0.34292
C     2.03892  -1.27048   0.34710
N     0.81666  -0.56314  -1.69774
C    -0.48863  -1.19202  -1.66676
C    -0.41271  -2.65193  -1.42972
N    -0.29557  -3.79937  -1.29566
C    -1.27249  -0.44577  -0.56068
C    -2.32291  -1.33015   0.11425
C    -2.01530   0.85031  -1.07831
C    -1.12592   1.69116  -1.97441
C    -0.25154   2.28319  -1.15303
C    -0.59746   1.76075   0.23127
O    -2.01697   1.61376   0.13432
C    -0.15264   0.22119   0.33978
C    -0.21214  -0.15138   1.82440
F    -1.34664   0.26886   2.41473
F    -0.14045  -1.47784   2.05563
F     0.79609   0.41192   2.51903
H     2.40800   1.44617  -2.48639
H     3.53303   0.22372  -1.88154
H     3.80376   1.95835  -1.47136
H     2.39044  -0.97324   1.34256
H     2.92003  -1.48170  -0.27688
H     1.45486  -2.19384   0.43344
H     1.52460  -1.13936  -2.14869
H    -1.00393  -1.07868  -2.63626
H    -2.91918  -0.74426   0.82336
H    -1.88171  -2.17882   0.64889
H    -2.99963  -1.72678  -0.65802
H    -3.03314   0.64787  -1.42965
H    -1.17927   1.73108  -3.06172
H     0.57961   2.94074  -1.39875
H    -0.31181   2.37405   1.08994
