17
Generated by autodE on: 2022-05-29. E = -418.344197 Ha
C     3.09778  -0.49928   0.75024
C     1.68452  -0.72522   0.28567
O     1.30789  -1.83897  -0.11489
C     0.75067   0.39515   0.31407
C     1.03139   1.78548   0.75733
N    -0.47099   0.07339  -0.11500
C    -1.57059   0.82785  -0.22612
C    -2.76292   0.26975  -0.70949
N    -3.76893  -0.17529  -1.11073
H     3.11193  -0.15372   1.79645
H     3.66324  -1.43597   0.66562
H     3.58622   0.28157   0.14536
H     0.37712   2.06954   1.60180
H     0.82927   2.50608  -0.05610
H     2.07283   1.90811   1.07401
H    -0.52841  -0.91939  -0.39257
H    -1.53620   1.87805   0.06033
