19
Generated by autodE on: 2022-05-29. E = -684.055144 Ha
C     2.26485  -0.91558  -0.87265
C     0.91585  -0.91010  -0.25786
C     0.10679   0.05119   0.21181
C     0.24088   1.52131   0.24663
F     0.03876   2.02186   1.48786
F     1.44368   1.96624  -0.15981
F    -0.68720   2.11388  -0.54543
C    -1.22177  -0.66259   0.57564
C    -1.86296  -1.11598  -0.75474
C    -1.05863  -2.08264  -1.20777
C     0.05153  -2.19941  -0.14164
O    -0.69426  -1.91042   1.05311
H     2.19484  -1.31661  -1.89940
H     2.93349  -1.59623  -0.31914
H     2.71818   0.08173  -0.91101
H    -1.86417  -0.16769   1.31174
H    -2.74355  -0.66608  -1.21175
H    -1.09495  -2.64448  -2.14030
H     0.60119  -3.14465  -0.07576
