45
Generated by autodE on: 2022-07-06. E = -1035.611540 Ha
C     3.91841   2.58690   2.60266
N     3.18470   1.54920   1.91091
C     1.88911   1.71632   1.54792
O     1.27499   2.77570   1.83431
C     1.22863   0.66110   0.78484
N    -0.01904   1.04807   0.40078
C    -1.07102   0.47248  -0.18821
C    -1.13540  -0.98543  -0.37833
C    -1.49429  -1.53001  -1.62580
C    -1.49467  -2.91074  -1.82653
C    -1.14451  -3.77388  -0.78265
C    -0.81022  -3.24524   0.46919
C    -0.80630  -1.86588   0.67049
C    -2.16073   1.35282  -0.61643
C    -3.47363   0.85134  -0.77094
C    -4.52213   1.68972  -1.14480
C    -4.29756   3.05307  -1.37043
C    -3.00400   3.56547  -1.22532
C    -1.94767   2.72937  -0.86458
C     1.85700  -0.58824   0.34448
C     1.79126  -0.99302  -1.00622
C     2.32905  -2.21089  -1.41640
C     2.96195  -3.05198  -0.49283
C     3.05849  -2.65470   0.84396
C     2.50798  -1.44054   1.25980
H     3.36860   2.93066   3.49204
H     4.88724   2.18374   2.92401
H     4.10186   3.46741   1.96227
H     3.68393   0.72895   1.58765
H    -0.14896   2.03119   0.68646
H    -1.74733  -0.86028  -2.45000
H    -1.75871  -3.31509  -2.80659
H    -1.13580  -4.85450  -0.94265
H    -0.54506  -3.91218   1.29272
H    -0.53832  -1.46251   1.64789
H    -3.67225  -0.20332  -0.57628
H    -5.52811   1.27641  -1.25127
H    -5.12147   3.70771  -1.66316
H    -2.80980   4.62418  -1.41357
H    -0.94099   3.14919  -0.80534
H     1.30285  -0.34641  -1.73654
H     2.25394  -2.50799  -2.46516
H     3.37750  -4.00951  -0.81498
H     3.54675  -3.30375   1.57497
H     2.54873  -1.16425   2.31511
