32
Generated by autodE on: 2022-07-06. E = -3440.975474 Ha
C    -0.98687  -3.02343   3.13157
O    -0.52727  -2.07214   2.15274
C     0.57273  -2.38353   1.48668
O     1.21805  -3.39651   1.64827
C     0.95151  -1.34563   0.41493
C     2.48006  -1.17906   0.50190
O     3.25828  -1.49750  -0.36535
O     2.82210  -0.64024   1.66791
C     4.22669  -0.44127   1.90858
C     0.25513  -0.07704   0.56218
C    -0.54708   0.81172   0.37570
C    -1.64876   1.43111  -0.32959
F    -2.50558   2.10806   0.49398
Br   -0.89469   2.81426  -1.59007
C    -2.41538   0.36434  -1.11261
C    -1.57945  -0.60732  -1.96507
C    -0.98240  -1.87418  -1.28906
C     0.52949  -1.89756  -0.98684
H    -0.22004  -3.16867   3.90503
H    -1.89364  -2.58888   3.56615
H    -1.21349  -3.98299   2.64637
H     4.75514  -1.40462   1.87969
H     4.29962   0.00515   2.90639
H     4.64859   0.23631   1.15309
H    -3.15074   0.88942  -1.74061
H    -2.98245  -0.19615  -0.34967
H    -0.78534  -0.04905  -2.48818
H    -2.25848  -0.95655  -2.75674
H    -1.55553  -2.12377  -0.38104
H    -1.15514  -2.71136  -1.98149
H     1.07600  -1.31194  -1.74005
H     0.91138  -2.92726  -1.04297
