49
Generated by autodE on: 2022-05-31. E = -1112.168722 Ha. Imaginary frequency = -245.5 cm-1
C    -3.74892   2.72122   0.27492
N    -3.26868   1.36859   0.10116
C    -2.17248   1.09762  -0.66174
O    -1.63720   2.02676  -1.30526
C    -1.67850  -0.28578  -0.65282
C    -2.26989  -1.29093   0.26998
C    -2.36173  -1.06447   1.65836
C    -2.98365  -1.98567   2.50533
C    -3.51918  -3.16955   1.99237
C    -3.43553  -3.41412   0.61624
C    -2.82735  -2.48819  -0.23004
C     0.65533   0.02973   0.65852
C     1.11056   1.41746   0.18508
O     1.44860   1.15133  -1.18422
C     2.34453   0.06487  -0.89863
C     3.31335   0.77399   0.08119
C     4.70863   0.36696   0.20203
C     5.64253   1.12708   1.11032
O     5.11511  -0.60533  -0.44318
C     2.52436   1.62566   0.78517
C     2.73106   2.52010   1.94726
C     1.43063  -0.84635  -0.05528
C    -0.10571  -1.78431  -1.57736
N    -0.93227  -0.74681  -1.72040
C    -0.82379   0.00660  -2.98435
H    -4.59385   2.70972   0.97537
H    -4.09050   3.16187  -0.67660
H    -2.96545   3.38207   0.68194
H    -3.72678   0.62058   0.60610
H    -1.94487  -0.15034   2.08244
H    -3.03860  -1.77729   3.57673
H    -3.99787  -3.89415   2.65510
H    -3.85906  -4.32995   0.19611
H    -2.78275  -2.69483  -1.30139
H     0.11254  -0.15202   1.58153
H     0.41027   2.25344   0.28093
H     2.79013  -0.35405  -1.80595
H     5.58378   2.21035   0.92821
H     5.36405   0.95364   2.16252
H     6.67042   0.77474   0.95156
H     2.44787   3.55303   1.67966
H     3.75548   2.52129   2.33428
H     2.04510   2.21846   2.75917
H     1.70721  -1.86014   0.22932
H     0.42822  -2.13334  -2.46066
H    -0.27408  -2.48048  -0.76360
H    -1.80721   0.39451  -3.26912
H    -0.47168  -0.68756  -3.75599
H    -0.11891   0.83432  -2.87474
