42
Generated by autodE on: 2022-05-29. E = -937.443842 Ha
C     2.04217   2.32733   1.97323
N     1.84975   1.12237   1.19349
C     1.38944   1.13721  -0.05745
O     1.26328   2.13404  -0.76968
C     0.97976  -0.25451  -0.62387
C     1.68946  -0.36164  -1.91318
N     2.30900  -0.43800  -2.89116
N     1.29220  -1.35354   0.29871
C     2.46922  -2.16240   0.02149
O     0.13991  -2.21490   0.39592
C    -0.81745  -1.87290  -0.62844
C    -0.51466  -2.69451  -1.88705
C    -2.19702  -2.25767  -0.10766
C    -0.60493  -0.32531  -0.80522
C    -1.03836   0.16538  -2.18611
C    -1.27058   0.49402   0.31806
C    -1.06391   0.18481   1.67701
C    -1.62779   0.95890   2.69182
C    -2.42049   2.06751   2.37949
C    -2.64144   2.38447   1.03919
C    -2.07124   1.60864   0.02416
H     2.82638   2.16260   2.72392
H     2.34442   3.14981   1.31257
H     1.11064   2.61496   2.49024
H     1.79395   0.21657   1.65717
H     2.41196  -2.70719  -0.93677
H     2.59373  -2.88433   0.83984
H     3.34663  -1.50023   0.01167
H    -1.30344  -2.56920  -2.64167
H     0.44777  -2.44118  -2.34841
H    -0.48190  -3.75481  -1.59793
H    -2.27778  -3.35303  -0.04580
H    -2.96550  -1.89667  -0.80677
H    -2.40002  -1.83566   0.88278
H    -0.76650   1.21863  -2.32804
H    -2.12696   0.06464  -2.29746
H    -0.56316  -0.40827  -2.98798
H    -0.45819  -0.67635   1.94888
H    -1.44486   0.68998   3.73487
H    -2.86092   2.67535   3.17330
H    -3.25865   3.24548   0.77171
H    -2.26137   1.89731  -1.00754
