17
Generated by autodE on: 2022-07-26. E = -509.623774 Ha
C    -0.47370   0.80043   3.15617
N    -0.25561   0.14248   1.88469
C    -0.10988   0.80735   0.73026
O    -0.13213   2.03879   0.60705
C     0.10012  -0.01166  -0.50825
C     0.32962   0.72560  -1.70144
N     0.52263   1.31920  -2.66437
N     0.05047  -1.34276  -0.58813
C     0.20767  -2.01405  -1.90363
O    -0.11871  -2.09187   0.40241
H    -1.44881   0.51560   3.58174
H     0.31184   0.52168   3.87536
H    -0.45356   1.88646   3.01079
H    -0.21432  -0.87522   1.82819
H     0.09298  -3.08455  -1.71342
H     1.20507  -1.79081  -2.30347
H    -0.56507  -1.64917  -2.59163
