42
Generated by autodE on: 2022-05-29. E = -937.391016 Ha. Imaginary frequency = -377.0 cm-1
C     1.49374   0.67452   3.08790
N     1.52402  -0.00986   1.81108
C     1.53909   0.66695   0.65517
O     1.64797   1.89749   0.58699
C     1.43554  -0.14014  -0.61821
C     1.73740   0.62300  -1.79164
N     1.92257   1.22549  -2.76901
N     1.82013  -1.46045  -0.64303
C     2.25768  -2.13040  -1.86748
O     1.16285  -2.18870   0.22642
C    -0.71238  -1.89005  -0.00485
C    -1.03559  -2.09084   1.45709
C    -1.03308  -3.11702  -0.83079
C    -0.80034  -0.58771  -0.65497
C    -1.04039  -0.57330  -2.15667
C    -1.46574   0.58750   0.00863
C    -2.53205   0.44514   0.91862
C    -3.19426   1.55698   1.44705
C    -2.82223   2.84876   1.07004
C    -1.79544   3.01188   0.13539
C    -1.13936   1.90024  -0.39177
H     0.56220   1.25171   3.21094
H     1.55609  -0.07110   3.88993
H     2.34040   1.37083   3.18330
H     1.36502  -1.01357   1.75404
H     2.57172  -3.14117  -1.58239
H     3.11355  -1.59169  -2.29301
H     1.45505  -2.19285  -2.61606
H    -0.84288  -1.20681   2.07441
H    -2.09160  -2.37846   1.58055
H    -0.43237  -2.92716   1.84136
H    -0.76793  -4.03147  -0.28197
H    -0.52235  -3.13538  -1.79955
H    -2.11979  -3.14363  -1.02747
H    -0.89023   0.42859  -2.57752
H    -2.08926  -0.85558  -2.35947
H    -0.39888  -1.26923  -2.70861
H    -2.88436  -0.54298   1.20183
H    -4.01687   1.40464   2.15012
H    -3.33623   3.71817   1.48670
H    -1.50048   4.01284  -0.18880
H    -0.35190   2.06230  -1.12553
