43
Generated by autodE on: 2022-06-19. E = -917.589008 Ha
C    -4.23440  -0.58333  -0.48213
N    -3.02339  -0.54665   0.32328
C    -3.01724   0.24705   1.46150
C    -1.90096   0.69711   2.06903
C    -0.55018   0.38430   1.49259
C    -0.66270   0.28031  -0.04271
C    -0.98200   1.64279  -0.66807
N    -0.26387   2.69495  -0.23893
O    -1.86234   1.76882  -1.52708
C    -1.78153  -0.72819  -0.39441
N    -1.17107  -2.03855  -0.14165
N     0.22998  -1.88275  -0.43252
C     0.70005  -2.85741  -1.39505
C     0.56854  -0.45333  -0.70356
C     0.64178  -0.14503  -2.21371
C     1.89961  -0.09199  -0.02990
C     2.44557  -0.90894   0.97149
C     3.63698  -0.56544   1.61675
C     4.31305   0.60787   1.27212
C     3.78668   1.42770   0.26979
C     2.59756   1.07860  -0.37686
H    -5.11613  -0.61482   0.17390
H    -4.24395  -1.48932  -1.10523
H    -4.32448   0.29747  -1.14522
H    -4.01098   0.46730   1.86075
H    -1.98707   1.27517   2.99043
H    -0.16082  -0.57248   1.88116
H     0.19789   1.13254   1.78793
H    -0.42929   3.60506  -0.65750
H     0.48728   2.59735   0.43300
H    -1.99660  -0.64051  -1.46487
H    -1.24439  -2.19592   0.86670
H     0.56406  -3.86962  -0.98449
H     1.77768  -2.71252  -1.56393
H     0.18377  -2.81749  -2.37460
H    -0.26786  -0.47188  -2.73425
H     0.76212   0.92935  -2.40065
H     1.50125  -0.65359  -2.67035
H     1.92095  -1.82645   1.23454
H     4.03896  -1.22204   2.39266
H     5.24438   0.87858   1.77542
H     4.30580   2.34563  -0.01701
H     2.21397   1.73707  -1.15550
