23
Generated by autodE on: 2022-06-19. E = -459.837656 Ha
C     1.55526   0.90836   1.67763
C     1.05677   0.15964   0.47014
C    -0.38130   0.15645   0.15737
C    -1.16083   1.30405   0.42635
C    -2.53572   1.31878   0.18950
C    -3.18043   0.18428  -0.31375
C    -2.42910  -0.96689  -0.57336
C    -1.05245  -0.98196  -0.34811
N     1.94081  -0.45651  -0.32713
C     3.35708  -0.46954   0.08930
N     1.75629  -1.05858  -1.48745
H     2.18165   0.27911   2.33036
H     2.15685   1.79744   1.41598
H     0.70722   1.24915   2.28358
H    -0.67811   2.20261   0.81519
H    -3.10728   2.22676   0.39756
H    -4.25676   0.19601  -0.50009
H    -2.91973  -1.86740  -0.95126
H    -0.49645  -1.90020  -0.54290
H     3.90719  -1.02897  -0.67141
H     3.74216   0.55632   0.15268
H     3.46392  -0.95459   1.06754
H     0.77139  -0.92449  -1.73313
