43
Generated by autodE on: 2022-06-19. E = -917.545179 Ha. Imaginary frequency = -349.0 cm-1
C    -3.60483  -1.71669   0.81422
N    -2.78732  -0.51870   0.90394
C    -2.29288  -0.16366   2.16084
C    -1.31505   0.74107   2.34487
C    -0.69521   1.50068   1.20220
C    -1.14552   0.96208  -0.13976
C    -0.77916   1.61803  -1.35707
N     0.00118   2.75891  -1.24236
O    -1.16308   1.27920  -2.51446
C    -1.95839  -0.21156  -0.19959
N    -0.83081  -1.66205  -0.20574
N     0.02337  -1.50717  -1.24144
C    -0.54649  -1.98026  -2.51090
C     1.11453  -0.73357  -1.23703
C     1.69804  -0.35058  -2.56046
C     1.81610  -0.36436   0.00048
C     1.84074  -1.19478   1.14306
C     2.54925  -0.82329   2.28586
C     3.25681   0.38203   2.32361
C     3.25617   1.20856   1.19566
C     2.55334   0.83988   0.04935
H    -4.39473  -1.68299   1.57848
H    -3.02236  -2.64474   0.94971
H    -4.08597  -1.75830  -0.17346
H    -2.77336  -0.66862   3.00252
H    -1.00136   0.97619   3.36448
H     0.40937   1.48593   1.29864
H    -0.95789   2.57582   1.29379
H     0.44456   3.05472  -2.10657
H     0.57516   2.87280  -0.41393
H    -2.45561  -0.38661  -1.15571
H    -0.33187  -1.41424   0.64828
H    -1.36348  -2.66313  -2.26163
H     0.21256  -2.51672  -3.09317
H    -0.92932  -1.13345  -3.09342
H     1.88227  -1.23291  -3.19257
H     0.99210   0.30269  -3.10469
H     2.65103   0.17310  -2.43666
H     1.34025  -2.16399   1.13305
H     2.55623  -1.49122   3.15030
H     3.80735   0.67136   3.22141
H     3.80538   2.15284   1.20687
H     2.55216   1.50915  -0.81048
