35
Generated by autodE on: 2022-06-18. E = -878.678700 Ha
C    -0.29079   2.60904  -0.86968
N    -0.71521   1.20340  -0.82028
N    -1.69836   0.82517  -1.46354
O    -1.75957   0.93486   1.75977
C    -0.52919   0.91723   1.57199
O     0.38790   1.37772   2.26562
C    -0.10545   0.25176   0.14724
C     1.38422   0.09031  -0.06569
C     2.00189   0.42117  -1.27991
C     3.36619   0.18057  -1.47137
C     4.12342  -0.41194  -0.45909
C     3.50582  -0.76877   0.74460
C     2.14730  -0.51990   0.94218
C    -0.89353  -1.03048  -0.19600
C    -1.29909  -1.89450   0.96865
O    -0.75647  -1.87706   2.05229
C    -2.01756  -0.58022  -1.17733
C    -3.43615  -0.59304  -0.59201
C    -1.97462  -1.34076  -2.50478
H    -0.25580   2.93081  -1.91656
H    -1.04146   3.19300  -0.31934
H     0.68553   2.70503  -0.38780
H     1.42817   0.86118  -2.09764
H     3.83229   0.45269  -2.42109
H     5.18865  -0.60267  -0.60863
H     4.08624  -1.24535   1.53804
H     1.67006  -0.80776   1.87736
H    -0.22000  -1.69969  -0.75944
H    -2.09027  -2.64345   0.74085
H    -3.45660  -0.08520   0.37949
H    -3.76261  -1.63526  -0.47017
H    -4.13162  -0.09421  -1.28157
H    -0.98166  -1.26138  -2.97080
H    -2.73498  -0.95900  -3.20080
H    -2.18335  -2.40110  -2.29964
