35
Generated by autodE on: 2022-06-18. E = -878.564455 Ha. Imaginary frequency = -218.4 cm-1
C     0.01468   2.90515  -1.15952
N    -0.75154   1.64678  -0.80576
N    -1.86349   1.43047  -1.22254
O    -1.29602   0.16872   2.23429
C    -0.69059   1.03623   1.60137
O    -0.44365   2.23408   1.88247
C    -0.05831   0.81479   0.24133
C     1.27593   0.37926   0.07188
C     1.92061   0.39934  -1.19862
C     3.20614  -0.09326  -1.32902
C     3.87873  -0.61137  -0.20756
C     3.25794  -0.65163   1.04566
C     1.96407  -0.17069   1.19031
C    -0.92449  -1.56353  -0.55112
C    -0.76632  -2.15296   0.76772
O     0.30897  -2.58533   1.17976
C    -2.13228  -1.20613  -1.10868
C    -3.40866  -1.15780  -0.32727
C    -2.24077  -1.06331  -2.59133
H     0.28157   2.84310  -2.22194
H    -0.67446   3.73981  -0.98806
H     0.90966   3.01446  -0.53926
H     1.39689   0.78000  -2.07505
H     3.69864  -0.08221  -2.30266
H     4.89653  -0.99180  -0.31924
H     3.78529  -1.06497   1.90680
H     1.47120  -0.20786   2.16153
H    -0.04760  -1.63057  -1.19856
H    -1.67763  -2.24871   1.39047
H    -3.25429  -0.83050   0.70791
H    -3.85520  -2.16855  -0.30593
H    -4.13359  -0.48972  -0.81134
H    -1.25852  -0.94990  -3.07092
H    -2.89451  -0.22647  -2.87392
H    -2.71016  -1.98376  -2.98788
