21
Generated by autodE on: 2022-06-30. E = -777.398003 Ha
C     4.75220   0.31361  -0.10873
N     3.34644   0.63175   0.04115
C     2.39081  -0.29536  -0.18338
O     2.63502  -1.46125  -0.51963
C     1.01935   0.17683   0.00275
O    -0.01254  -0.71648  -0.20752
C    -1.12990  -0.11103   0.01209
C    -2.42209  -0.83928  -0.13652
O    -2.46289  -2.00208  -0.46322
O    -3.43739  -0.04248   0.13375
C    -4.75478  -0.62082   0.03009
O    -0.98797   1.12239   0.35741
C     0.48463   1.41467   0.37792
O     0.87754   2.51597   0.67422
H     5.04840  -0.51288   0.55654
H     4.99039   0.01630  -1.14281
H     5.34331   1.20110   0.14708
H     3.07395   1.57360   0.30809
H    -5.45221   0.18328   0.28635
H    -4.85101  -1.45845   0.73481
H    -4.92774  -0.97328  -0.99622
