54
Generated by autodE on: 2022-06-30. E = -1547.250414 Ha. Imaginary frequency = -294.5 cm-1
C     1.45148   3.17646  -2.91480
N     1.25902   2.78235  -1.53417
C     2.25949   2.30243  -0.76650
O     3.45090   2.27635  -1.10542
C     1.85842   1.75449   0.52994
O     0.59474   1.94694   1.01340
C     0.52398   1.19827   2.12169
C    -0.61517   1.34403   3.07145
O    -0.63687   0.76331   4.13521
O    -1.57286   2.10370   2.57389
C    -2.80287   2.17315   3.32014
O     1.74938   1.03804   2.63847
C     2.68198   1.26014   1.58726
O     3.85808   1.01731   1.72854
C     0.10930  -0.68410   1.12095
C    -1.34449  -0.49397   0.88843
C    -2.26750  -1.24945   1.63592
C    -3.64418  -1.05493   1.48903
C    -4.12934  -0.09178   0.60318
C    -3.22287   0.67603  -0.13706
C    -1.85130   0.47946   0.00415
C     0.58139  -1.74078   2.17441
C     0.51048  -3.11340   1.46898
C     1.51863  -3.09832   0.58975
C     2.18646  -1.71842   0.78695
O     1.98965  -1.51622   2.18056
C     1.16264  -0.73606   0.15993
C     1.18738  -0.63288  -1.30752
C     0.04480  -0.80493  -2.11423
C     0.14280  -0.77497  -3.50566
C     1.38024  -0.57826  -4.12602
C     2.52911  -0.44075  -3.34007
C     2.43598  -0.48330  -1.95136
H     2.50887   3.41582  -3.07810
H     0.84388   4.06370  -3.14250
H     1.16466   2.36566  -3.60512
H     0.30785   2.68956  -1.19179
H    -2.63250   2.68508   4.27742
H    -3.49651   2.74509   2.69507
H    -3.18927   1.16070   3.49778
H    -1.92062  -1.99878   2.34750
H    -4.33720  -1.65893   2.07913
H    -5.20461   0.06532   0.49237
H    -3.58734   1.43942  -0.82828
H    -1.16444   1.09891  -0.56830
H     0.15128  -1.64841   3.17575
H    -0.24909  -3.87403   1.64359
H     1.80259  -3.83094  -0.16420
H     3.23474  -1.60660   0.49591
H    -0.92358  -0.99353  -1.65831
H    -0.75714  -0.91480  -4.10896
H     1.45092  -0.54371  -5.21552
H     3.50385  -0.29639  -3.81116
H     3.33575  -0.35575  -1.35084
