25
Generated by autodE on: 2022-10-06. E = -909.348863 Ha
C    -1.85155  -2.16369   1.08480
C    -1.26273  -1.41896  -0.07567
O    -1.27862  -1.84467  -1.21351
C    -0.71984   0.00845   0.19038
C    -1.89085   0.94579  -0.17776
C    -2.61839   1.64582   0.92939
O    -2.23687   1.00294  -1.34432
N    -0.32711   0.14609   1.61694
N     0.90210   0.20697   1.75505
C     1.62395   0.06107   0.47859
C     2.19446  -1.39258   0.43227
O     1.33846  -2.30804   0.53042
O     3.42909  -1.51864   0.28413
C     0.56208   0.30492  -0.61006
C     0.66068   1.76733  -1.09306
O     1.31970   1.97634  -2.13964
O     0.11192   2.64005  -0.36581
H    -2.25005  -3.12752   0.74232
H    -1.08385  -2.32238   1.85461
H    -2.65450  -1.56210   1.54063
H    -1.91265   2.22859   1.53631
H    -3.39460   2.29676   0.50606
H    -3.07972   0.89720   1.59375
H     2.46040   0.76929   0.45779
H     0.67509  -0.37850  -1.45750
