15
Generated by autodE on: 2022-10-06. E = -454.270451 Ha
C    -2.17303  -0.96137  -0.53104
C    -1.41101   0.21347   0.01077
O    -1.97212   1.22800   0.41185
C     0.06749   0.12454   0.05432
N     0.64040   1.21397   0.54936
N     1.07772   2.15818   0.97476
C     0.94932  -0.98054  -0.36271
C     2.43406  -0.78420  -0.18574
O     0.48301  -2.01171  -0.83193
H    -3.24522  -0.73001  -0.48389
H    -1.95070  -1.86828   0.05038
H    -1.87218  -1.17042  -1.56837
H     2.95804  -1.68483  -0.52875
H     2.78112   0.08632  -0.76572
H     2.67725  -0.59643   0.87250
