10
Generated by autodE on: 2022-10-06. E = -455.051706 Ha
O     2.60834   0.01540   1.42106
C     1.94231   0.06381   0.34918
O     2.41962   0.17326  -0.81380
C     0.43771  -0.02113   0.50674
C    -0.43770   0.02095  -0.50674
C    -1.94232  -0.06381  -0.34919
O    -2.60835  -0.01484  -1.42103
O    -2.41960  -0.17366   0.81377
H     0.06377  -0.12265   1.53116
H    -0.06375   0.12250  -1.53115
