46
Generated by autodE on: 2022-10-21. E = -2008.469712 Ha
C     1.78917  -0.05034   4.69774
N     1.79276  -0.68023   3.39009
C     1.62404   0.02085   2.26555
O     1.60019   1.25723   2.21948
C     1.42770  -0.81312   0.98685
O     2.10977  -0.17477  -0.08470
C     1.22134   0.18668  -1.13151
C     1.60977  -0.59529  -2.33198
N     1.96788  -1.27568  -3.19936
C     1.41807   1.70899  -1.43697
O     1.64837   2.10335  -2.57829
N     1.33732   2.48685  -0.35510
C     1.56974   3.91591  -0.44551
C    -0.16722  -0.23215  -0.61789
C    -0.02034  -0.82945   0.57587
C    -1.05753  -1.40590   1.50731
O    -0.50622  -2.47725   2.25926
C    -0.39885  -3.68648   1.52732
C    -1.60783  -0.36816   2.49349
C    -1.99945   0.96677   1.85999
C    -2.96604   0.87209   0.66233
C    -2.37062   1.10487  -0.73117
C    -1.46556   0.03169  -1.35054
Cl   -2.40592  -1.53432  -1.54093
Cl   -1.12500   0.58735  -3.05444
H     0.77015   0.24794   4.99769
H     2.18538  -0.75627   5.43790
H     2.42196   0.84684   4.68291
H     1.63187  -1.68318   3.33657
H     1.82638  -1.82907   1.13187
H     1.33650   2.04179   0.57447
H     2.61980   4.14363  -0.69514
H     0.93126   4.36264  -1.22179
H     1.32871   4.37517   0.52128
H    -1.89154  -1.78528   0.89985
H     0.05830  -4.43361   2.19088
H    -1.39245  -4.04620   1.20472
H     0.23558  -3.57324   0.62940
H    -2.48146  -0.83127   2.97962
H    -0.86176  -0.19736   3.28374
H    -1.09094   1.51375   1.56379
H    -2.46853   1.57297   2.64976
H    -3.73343   1.65371   0.76827
H    -3.51893  -0.08120   0.67809
H    -3.19284   1.25608  -1.44540
H    -1.77470   2.03131  -0.72496
