22
Generated by autodE on: 2022-10-26. E = -662.346621 Ha
C    -0.49652  -1.19962   4.64671
N    -0.32473  -1.48793   3.23882
C    -0.23735  -0.53201   2.29047
O    -0.28862   0.68620   2.50040
C    -0.06960  -1.06903   0.92710
O     0.00920  -0.18288   0.00690
C     0.15677  -0.26601  -1.31137
C     0.25780  -1.51898  -1.93721
N     0.33807  -2.58054  -2.41981
C     0.20328   0.99330  -2.06379
O     0.34065   0.96122  -3.29718
N     0.09000   2.12412  -1.33405
C     0.11523   3.44940  -1.91539
H    -1.44790  -1.61124   5.01945
H     0.32402  -1.63615   5.23718
H    -0.49955  -0.11291   4.78858
H    -0.27862  -2.46137   2.94905
H    -0.01347  -2.13153   0.66905
H    -0.02233   2.03696  -0.32829
H     0.94573   4.04591  -1.50563
H     0.24882   3.35862  -2.99971
H    -0.82602   3.98719  -1.71895
