24
Generated by autodE on: 2022-10-21. E = -1345.975699 Ha
C    -0.89881  -3.81318   1.09677
O    -1.70199  -2.78604   0.54609
C    -1.13885  -2.17475  -0.60121
C     0.03967  -1.36029  -0.26368
C     0.69705  -0.37281  -0.00920
C     0.89277   1.04735   0.17257
Cl    1.97782   1.40295   1.59323
Cl    1.69785   1.73234  -1.32452
C    -0.47267   1.72264   0.38522
C    -1.56628   1.34595  -0.63440
C    -2.43366   0.08525  -0.35730
C    -2.16937  -1.18943  -1.18750
H    -1.43470  -4.22273   1.96444
H    -0.72259  -4.62317   0.36478
H     0.08183  -3.42809   1.43323
H    -0.89003  -2.94762  -1.35152
H    -0.80027   1.45010   1.40071
H    -0.29831   2.80872   0.37799
H    -1.12504   1.29267  -1.64340
H    -2.24676   2.21037  -0.65916
H    -2.40084  -0.16708   0.71570
H    -3.47778   0.36898  -0.55846
H    -3.10413  -1.76291  -1.29313
H    -1.84178  -0.91895  -2.20369
