29
Generated by autodE on: 2022-06-17. E = -895.157009 Ha. Imaginary frequency = -473.0 cm-1
C     3.42829   0.59726  -0.20489
C     2.61586  -0.58243  -0.63532
O     2.94226  -1.34886  -1.53470
C     1.32426  -0.79806   0.04130
N     0.53233  -1.86552  -0.23975
C    -0.69836  -1.62074   0.32292
C    -1.72012  -2.68785   0.48039
O    -0.44712  -0.82275   1.43288
C     0.78624  -0.19698   1.25509
O     1.19097   0.65173   2.01477
C    -1.33865  -0.24268  -0.95540
C    -2.50543   0.33919  -0.22987
O    -3.60615  -0.20231  -0.24391
C    -2.28786   1.59074   0.53306
C    -1.17006   2.32269   0.37945
C    -0.09652   1.91519  -0.56093
O     0.83955   2.68261  -0.80488
C    -0.20638   0.59007  -1.17166
H     2.84841   1.51724  -0.39201
H     4.37029   0.62329  -0.76693
H     3.62177   0.55718   0.87803
H     0.64041  -2.39567  -1.10515
H    -1.79459  -3.25954  -0.45453
H    -2.69951  -2.25302   0.71400
H    -1.42164  -3.36276   1.29748
H    -1.62607  -0.93243  -1.75377
H    -3.09941   1.89747   1.19738
H    -1.01211   3.26245   0.91402
H     0.44714   0.41077  -2.02613
