24
Generated by autodE on: 2022-10-06. E = -1000.424868 Ha
C     4.37584  -1.13159   0.14223
O     3.09936  -0.68037  -0.34626
C     2.15230  -0.46950   0.55250
O     2.28869  -0.61296   1.74603
C     0.82718   0.02060  -0.06630
C     0.88996  -0.06955  -1.53627
N     0.99866  -0.06679  -2.69063
N     0.65759   1.45940   0.27690
C    -0.53610   1.59817   0.73045
C    -1.01139   2.90050   1.12518
N    -1.42815   3.93356   1.45242
C    -1.42958   0.39491   0.77773
C    -2.49484   0.51872  -0.37074
O    -2.04176   0.43619  -1.53612
O    -3.67411   0.73369  -0.01692
C    -0.38200  -0.70939   0.58312
C    -0.78968  -2.02317  -0.09670
O    -1.98631  -2.38058   0.00439
O     0.15094  -2.65504  -0.64808
H     4.80892  -0.38025   0.81726
H     5.00614  -1.26017  -0.74451
H     4.25894  -2.08641   0.67358
H    -1.96063   0.32589   1.73496
H    -0.03171  -0.99152   1.58779
