14
Generated by autodE on: 2022-10-06. E = -545.274683 Ha
C    -3.65545  -0.38521  -0.11088
O    -2.43932   0.37155  -0.00024
C    -1.29891  -0.31799  -0.05873
O    -1.21434  -1.52254  -0.19837
C    -0.13216   0.57504   0.06788
C    -0.24103   1.97629   0.23439
N    -0.34164   3.12960   0.37076
N     1.05834   0.01455   0.01961
C     2.07862  -0.56171  -0.03251
C     3.26903  -1.21223  -0.09129
N     4.29513  -1.77223  -0.14157
H    -3.73009  -1.11078   0.71180
H    -4.46908   0.34612  -0.04811
H    -3.69069  -0.91416  -1.07397
