10
Generated by autodE on: 2022-10-06. E = -455.046477 Ha
O     2.04805  -0.00330  -1.16832
C     1.56009   0.18471  -0.02325
O     1.94202  -0.34571   1.05152
C     0.47743   1.24265   0.07804
C    -0.85289   1.05628   0.09086
C    -1.55506  -0.27905   0.01511
O    -0.86389  -1.31098  -0.21590
O    -2.80676  -0.25918   0.19143
H     0.86119   2.27025   0.14470
H    -1.51731   1.92333   0.18230
