24
Generated by autodE on: 2022-10-06. E = -1000.321412 Ha. Imaginary frequency = -290.1 cm-1
C     3.93412  -1.48408   1.03010
O     3.14704  -0.88468  -0.00962
C     2.24004   0.02148   0.37478
O     2.06118   0.37099   1.52742
C     1.50116   0.55976  -0.78233
C     1.89433   0.28233  -2.11347
N     2.21692   0.03570  -3.20630
N     0.54296   1.44262  -0.53817
C    -0.42429   1.63966   0.16694
C    -1.09348   2.71722   0.73748
N    -1.71654   3.56129   1.24717
C    -1.10023  -0.29537   1.15164
C    -2.57071   0.10422   1.04566
O    -3.14567  -0.04431  -0.06240
O    -3.07607   0.56754   2.10031
C    -0.53041  -1.26868   0.37265
C    -1.14372  -1.88594  -0.86434
O    -1.74703  -2.96948  -0.65885
O    -0.95319  -1.32299  -1.96884
H     4.51114  -0.71735   1.56683
H     4.60987  -2.18551   0.52766
H     3.28677  -2.02076   1.73861
H    -0.61509  -0.04405   2.09999
H     0.40373  -1.73459   0.70411
