66
Generated by autodE on: 2022-06-29. E = -1348.041476 Ha
C    -0.29480  -3.17343   1.51135
C     0.07060  -2.34651   0.52011
C     0.55678  -2.88499  -0.80087
C     0.04183  -0.84288   0.72934
C     1.17542  -0.08721   0.02200
C     2.53860  -0.42012   0.53480
C     3.64052  -0.63966  -0.20671
C     4.95181  -0.98286   0.44684
C     3.69163  -0.56125  -1.70833
C     0.69943   1.41220   0.14877
C     1.17191   2.04016   1.48610
C     0.13459   2.41180   2.50216
O     2.36115   2.22417   1.71156
C     1.31349   2.14610  -1.08067
O     0.68027   2.26244  -2.13605
N     2.58329   2.55425  -0.96412
C     3.32397   3.06169  -2.10049
N    -0.72920   1.27777   0.05184
C    -1.59957   2.40118  -0.18242
C    -1.25386  -0.07878   0.27225
C    -1.81310  -0.70886  -1.01752
C    -1.45535  -0.21152  -2.27586
C    -1.88569  -0.84973  -3.44537
C    -2.67782  -1.99788  -3.37277
C    -3.04696  -2.49744  -2.11830
C    -2.62387  -1.85415  -0.95423
C    -2.36535  -0.04759   1.34673
C    -3.65268   0.37664   0.96954
C    -4.68461   0.50076   1.90096
C    -4.45851   0.19299   3.24610
C    -3.18912  -0.23343   3.63914
C    -2.15665  -0.34811   2.70073
H    -0.28612  -4.25901   1.37305
H    -0.61619  -2.79930   2.48661
H     0.04890  -2.41401  -1.65434
H     1.63378  -2.68485  -0.92594
H     0.40369  -3.97208  -0.86111
H     0.16816  -0.65415   1.80165
H     1.11779  -0.30423  -1.05088
H     2.62866  -0.49855   1.62332
H     5.33120  -1.95278   0.07966
H     5.72180  -0.23354   0.19114
H     4.86747  -1.03390   1.54237
H     2.72859  -0.31443  -2.17288
H     4.42439   0.20117  -2.02347
H     4.04281  -1.52015  -2.12781
H    -0.47553   3.24292   2.11447
H    -0.55495   1.57905   2.69078
H     0.62991   2.72515   3.43006
H     3.04419   2.39906  -0.06967
H     3.29764   2.34874  -2.93965
H     4.36749   3.22010  -1.80168
H     2.91019   4.01837  -2.45833
H    -2.26603   2.23381  -1.04772
H    -2.24084   2.64347   0.68465
H    -0.99758   3.29101  -0.40694
H    -0.82119   0.67293  -2.33381
H    -1.59497  -0.44578  -4.41863
H    -3.01059  -2.49920  -4.28499
H    -3.66865  -3.39352  -2.04689
H    -2.91619  -2.25639   0.01628
H    -3.85519   0.60842  -0.07668
H    -5.67104   0.83706   1.57223
H    -5.26457   0.28247   3.97821
H    -2.99216  -0.48338   4.68447
H    -1.18309  -0.68024   3.05587
