23
Generated by autodE on: 2022-06-29. E = -351.521387 Ha
C    -3.59400  -0.09398   1.17192
C    -2.56849  -0.03430   0.29412
C    -2.81242   0.04605  -1.19131
C    -1.19015  -0.04800   0.77990
C    -0.07827   0.00111   0.00403
C     1.26888  -0.01671   0.53630
C     2.42641   0.02642  -0.17082
C     3.75645  -0.00019   0.52787
C     2.50270   0.10305  -1.66936
H    -4.63464  -0.08594   0.83601
H    -3.41328  -0.15222   2.24972
H    -2.36604   0.95945  -1.61845
H    -3.88777   0.04838  -1.41864
H    -2.34928  -0.80555  -1.71692
H    -1.06640  -0.10430   1.86814
H    -0.19448   0.05657  -1.08166
H     1.34546  -0.07183   1.62901
H     4.35891  -0.86256   0.19000
H     3.65132  -0.05614   1.62130
H     4.34698   0.90000   0.27924
H     3.05943   1.00574  -1.97742
H     1.52172   0.12203  -2.16123
H     3.07058  -0.75656  -2.06716
