43
Generated by autodE on: 2022-07-28. E = -996.500267 Ha
C     4.83665   1.67239  -0.19989
N     3.41961   1.91384  -0.06219
C     2.50257   1.10982  -0.64925
O     2.85011   0.17929  -1.41892
C     1.10194   1.35780  -0.32345
C     0.63458   2.29426   0.63070
C    -0.85535   2.46829   0.86591
O     1.41173   3.02845   1.30862
N     0.15749   0.53813  -1.02899
C     0.03537   0.81376  -2.46781
C    -0.59480  -0.34156  -0.40181
C    -1.82964  -0.87897  -1.00057
C    -2.10544  -2.25540  -0.88892
C    -3.28194  -2.77993  -1.42105
C    -4.21077  -1.93435  -2.03709
C    -3.95628  -0.56166  -2.12747
C    -2.76933  -0.03423  -1.62181
C    -0.21739  -0.83515   0.93858
C    -1.19607  -0.96967   1.93722
C    -0.85250  -1.48089   3.19075
C     0.45896  -1.89030   3.44333
C     1.43136  -1.78705   2.43916
C     1.10235  -1.25428   1.19613
H     5.38716   2.46579   0.32244
H     5.14149   0.70022   0.22744
H     5.14556   1.67562  -1.25752
H     3.03781   2.56604   0.62974
H    -1.03229   3.51363   1.15589
H    -1.47851   2.22582  -0.00456
H    -1.18030   1.83154   1.70523
H    -0.45874  -0.01500  -2.98580
H    -0.52277   1.74729  -2.62180
H     1.05244   0.93456  -2.85694
H    -1.38542  -2.91187  -0.39811
H    -3.47930  -3.85140  -1.34770
H    -5.13861  -2.34503  -2.44164
H    -4.68749   0.10283  -2.59237
H    -2.58385   1.03813  -1.68448
H    -2.22195  -0.65860   1.73390
H    -1.61457  -1.56590   3.96831
H     0.72520  -2.30021   4.42029
H     2.45204  -2.12699   2.62752
H     1.85332  -1.18369   0.40869
