32
Generated by autodE on: 2022-06-16. E = -577.861971 Ha
C    -3.22471   1.98198  -0.26324
C    -2.52661   0.65223  -0.01938
C    -1.98081   0.46416   1.40044
N    -0.94847  -0.57092   1.28544
C    -1.47909  -1.93325   1.34038
N    -0.35400  -0.31619   0.01222
C     1.02371  -0.17865  -0.04440
C     1.65907   0.40367  -1.16731
C     3.05062   0.50509  -1.22364
C     3.85473   0.03773  -0.17962
C     3.23211  -0.54087   0.93321
C     1.84475  -0.65363   1.00615
C    -1.26153   0.44106  -0.87720
C    -1.54280  -0.26440  -2.19931
H    -2.55565   2.82708  -0.03033
H    -3.54177   2.08025  -1.31377
H    -4.12373   2.07757   0.36653
H    -3.23190  -0.16719  -0.23628
H    -1.51614   1.40246   1.75045
H    -2.74455   0.16423   2.13060
H    -2.26220  -2.13989   0.58601
H    -1.90215  -2.11138   2.34038
H    -0.65641  -2.64654   1.18799
H     1.06966   0.77611  -2.00382
H     3.50949   0.96243  -2.10452
H     4.94251   0.11944  -0.23215
H     3.83702  -0.91448   1.76417
H     1.37469  -1.10511   1.87803
H    -0.80496   1.42675  -1.08168
H    -2.23798   0.33626  -2.80779
H    -0.62616  -0.41555  -2.78859
H    -2.00110  -1.24943  -2.01964
