12
Generated by autodE on: 2022-06-16. E = -157.300301 Ha
C     1.96251   0.04996  -0.06333
C     0.50764   0.17499  -0.40048
C    -0.50764  -0.17506   0.40045
C    -1.96251  -0.04992   0.06335
H     2.48679  -0.59896  -0.78732
H     2.46954   1.03027  -0.10746
H     2.11370  -0.36893   0.94401
H     0.27332   0.58909  -1.39123
H    -0.27332  -0.58918   1.39119
H    -2.48656   0.59965   0.78694
H    -2.11369   0.36834  -0.94425
H    -2.46978  -1.03006   0.10822
