20
Generated by autodE on: 2022-06-16. E = -420.495856 Ha
C    -2.17860   0.03474  -1.37220
N    -2.11206  -0.07067  -0.06337
C    -3.37517  -0.01353   0.69883
N    -1.08007  -0.27241   0.74229
C     0.21913  -0.10579   0.28515
C     1.20885  -0.84463   0.98193
C     2.56407  -0.69701   0.70077
C     2.99295   0.20513  -0.28194
C     2.03367   0.95713  -0.96727
C     0.67030   0.80599  -0.70337
H    -3.15880   0.14751  -1.82877
H    -1.27958  -0.04757  -1.97567
H    -3.35216   0.87538   1.34234
H    -4.22885   0.02949   0.01470
H    -3.43307  -0.90998   1.32778
H     0.87457  -1.53674   1.75829
H     3.29538  -1.29168   1.25487
H     4.05552   0.32026  -0.50711
H     2.34780   1.67785  -1.72734
H    -0.03715   1.42750  -1.25151
