42
Generated by autodE on: 2022-06-18. E = -920.469947 Ha
C     0.62712   2.85850   0.13823
C     0.61284   1.85800   1.02918
C     1.17905   2.01667   2.41492
C     0.06983   0.47420   0.72842
C    -1.08751   0.36455  -0.30938
C    -2.41647  -0.00176   0.27663
C    -3.61917   0.46839  -0.10340
C    -4.88065  -0.01186   0.56261
C    -3.83227   1.47384  -1.20233
C    -0.51032  -0.67940  -1.33258
C    -1.20975  -0.76743  -2.66156
N     0.91151  -0.26622  -1.33901
C     1.11821  -0.47822   0.06841
C     2.53969  -0.39756   0.59518
O     2.89406  -1.06624   1.56806
N     3.31976   0.48275  -0.04755
C     4.63805   0.83840   0.44087
O     0.60347  -1.84306   0.32216
C    -0.42795  -1.98952  -0.54571
O    -1.11676  -2.97921  -0.59482
H     1.05735   3.82989   0.39913
H     0.22554   2.75475  -0.87194
H     1.92427   1.23454   2.63545
H     0.38077   1.89752   3.16829
H     1.65069   2.99955   2.55605
H    -0.21976   0.00425   1.67812
H    -1.16116   1.29747  -0.87691
H    -2.38888  -0.74901   1.07868
H    -4.67851  -0.76187   1.34141
H    -5.56843  -0.45520  -0.17887
H    -5.42519   0.83173   1.02244
H    -4.45269   2.31225  -0.84178
H    -4.39005   1.01163  -2.03550
H    -2.89902   1.88383  -1.60969
H    -1.21323   0.21377  -3.15719
H    -0.71666  -1.49931  -3.31911
H    -2.25092  -1.08655  -2.51005
H     1.47886  -0.92019  -1.88633
H     2.88837   1.05520  -0.76740
H     4.57619   1.49998   1.32154
H     5.19159  -0.06603   0.72742
H     5.18818   1.35754  -0.35365
