19
Generated by autodE on: 2022-06-18. E = -568.918591 Ha
C    -3.86648  -0.50718  -0.53696
N    -2.53700  -0.05849  -0.17380
C    -1.44207  -0.74913  -0.53701
O    -1.46304  -1.80591  -1.18422
C    -0.15799  -0.17984  -0.11567
N     1.02603  -0.70498  -0.38427
C     2.03800   0.05601   0.14058
C     3.48514  -0.25024   0.01685
C     1.42464   1.14821   0.79152
O     1.81115   2.12566   1.42121
O     0.00973   0.93708   0.58926
H    -4.04544  -1.53411  -0.18290
H    -4.01026  -0.49516  -1.62955
H    -4.60322   0.16107  -0.07602
H    -2.42459   0.80816   0.34302
H     1.13445  -1.56930  -0.91735
H     3.73980  -1.22884   0.45737
H     4.05732   0.52275   0.54838
H     3.81795  -0.25955  -1.03484
