42
Generated by autodE on: 2022-06-18. E = -920.426164 Ha. Imaginary frequency = -424.0 cm-1
C     1.10093   2.83610  -0.81313
C     1.07783   2.21989   0.38348
C     1.98296   2.64660   1.50900
C     0.17174   1.07559   0.69212
C    -1.12253   1.00010   0.10576
C    -2.22429   0.38621   0.79805
C    -3.49202   0.21970   0.33514
C    -4.53214  -0.47422   1.16500
C    -3.94758   0.66857  -1.02260
C    -0.26918  -0.51913  -1.81717
C    -0.85511  -0.15724  -3.12887
N     1.00706  -0.23931  -1.42833
C     1.08530  -0.50853  -0.07917
C     2.43225  -0.62762   0.55087
O     3.38831   0.00132   0.08195
N     2.49514  -1.39117   1.65080
C     3.71690  -1.51793   2.42159
O     0.16525  -1.50558   0.16925
C    -0.79732  -1.44098  -0.86038
O    -1.81540  -2.11624  -0.82269
H     1.79335   3.66066  -1.00434
H     0.43117   2.55700  -1.63120
H     2.60088   1.80756   1.86607
H     1.38508   2.98545   2.37280
H     2.65190   3.46505   1.20617
H     0.21647   0.74861   1.73682
H    -1.33904   1.63211  -0.75530
H    -1.98989  -0.03617   1.78199
H    -5.40248   0.18356   1.34138
H    -4.92201  -1.36209   0.63544
H    -4.13703  -0.79783   2.13919
H    -3.18981   1.24141  -1.57197
H    -4.86127   1.28332  -0.94450
H    -4.21747  -0.20951  -1.63575
H    -0.84463   0.93300  -3.28550
H    -0.29018  -0.61913  -3.95660
H    -1.89295  -0.51113  -3.17755
H     1.57325   0.50597  -1.83113
H     1.65525  -1.87196   1.95700
H     3.97601  -0.57069   2.92246
H     3.57662  -2.29326   3.18406
H     4.55957  -1.80276   1.77409
