38
Generated by autodE on: 2022-06-17. E = -825.999549 Ha
C     2.86880   1.34987  -2.19123
O     2.46992   0.52598  -1.08474
C     1.44443   0.95453  -0.34763
O     0.86646   2.00398  -0.55983
C     1.11523   0.00075   0.80526
C     2.27361   0.09604   1.80985
N    -0.13798   0.39898   1.46000
C    -1.25489  -0.39480   0.91643
C    -2.43855  -0.40795   1.87850
C    -1.65458   0.22220  -0.43496
O    -1.27799  -0.13999  -1.53391
O    -2.40916   1.31700  -0.26901
C    -2.67948   2.09941  -1.44023
C    -0.57920  -1.77229   0.76957
C    -1.33809  -2.83393  -0.01517
C     0.83361  -1.44482   0.24631
C     1.87265  -2.50568   0.58447
H     3.17631   2.34475  -1.83871
H     2.04020   1.45377  -2.90645
H     3.71434   0.83563  -2.66213
H     3.23344  -0.18165   1.35444
H     2.07855  -0.56301   2.66634
H     2.35492   1.12913   2.18252
H    -0.29883   1.40109   1.36162
H    -2.12856  -0.86572   2.82910
H    -3.27623  -0.98869   1.46281
H    -2.79747   0.61032   2.08137
H    -1.73845   2.46809  -1.87374
H    -3.21990   1.50368  -2.18966
H    -3.29866   2.94029  -1.10662
H    -0.46673  -2.13184   1.80649
H    -0.80631  -3.79684   0.03095
H    -2.34244  -2.99436   0.40783
H    -1.45162  -2.55808  -1.07265
H     0.77435  -1.37409  -0.84767
H     1.96623  -2.66077   1.66998
H     1.58450  -3.46803   0.13334
H     2.86375  -2.23919   0.18774
