12
Generated by autodE on: 2022-06-17. E = -157.300302 Ha
C    -1.86964  -0.23464   0.55403
C    -0.48091  -0.46457   0.03973
C     0.48092   0.46456  -0.03969
C     1.86963   0.23465  -0.55406
H    -2.01839   0.80812   0.87591
H    -2.62562  -0.46688  -0.21714
H    -2.09372  -0.89410   1.41129
H    -0.25126  -1.48519  -0.29725
H     0.25128   1.48517   0.29732
H     2.01856  -0.80824  -0.87544
H     2.09343   0.89371  -1.41171
H     2.62569   0.46747   0.21686
