26
Generated by autodE on: 2022-06-17. E = -668.643942 Ha
C    -4.40832   0.37928  -1.38067
O    -3.49240   0.01928  -0.34222
C    -2.18405   0.17151  -0.61421
O    -1.77851   0.59061  -1.69970
C    -1.31558  -0.20527   0.49212
C    -1.82937  -0.70410   1.80359
N    -0.02268  -0.07016   0.17806
C     1.15453  -0.29777   0.77042
C     1.32748  -0.87012   2.13975
C     2.27148   0.10377  -0.07286
O     2.14857   0.57477  -1.20496
O     3.47158  -0.08842   0.50288
C     4.61863   0.27635  -0.27039
H    -4.23485  -0.22796  -2.28144
H    -5.41082   0.18304  -0.98221
H    -4.30699   1.44410  -1.63832
H    -2.87684  -0.40372   1.92430
H    -1.79060  -1.80477   1.87529
H    -1.25912  -0.29240   2.64681
H     0.09970   0.31146  -0.77573
H     1.17967  -0.11347   2.92954
H     0.62620  -1.69367   2.32848
H     2.34614  -1.26130   2.24620
H     4.66226  -0.30645  -1.20250
H     5.49040   0.05031   0.35506
H     4.59835   1.34862  -0.51561
