38
Generated by autodE on: 2022-06-17. E = -825.911367 Ha. Imaginary frequency = -371.5 cm-1
C     2.57316   1.24509  -2.43498
O     2.41563   1.04346  -1.03050
C     1.15626   0.76276  -0.60094
O     0.21154   0.75977  -1.38215
C     1.15338   0.46376   0.82643
C     2.35570   0.82666   1.64765
N     0.01487   0.20086   1.52569
C    -1.12714  -0.39317   1.05719
C    -1.94099  -1.14265   2.08582
C    -1.97562   0.34269   0.09018
O    -2.86941  -0.16686  -0.56870
O    -1.78540   1.67304   0.12831
C    -2.52132   2.44849  -0.82100
C    -0.09911  -2.11796  -0.06948
C    -0.71121  -2.24328  -1.44012
C     1.25627  -1.84485   0.10190
C     1.99334  -2.31594   1.32371
H     1.94501   2.07614  -2.78867
H     2.31132   0.33402  -2.99467
H     3.63239   1.48448  -2.59011
H     3.27404   0.43261   1.19482
H     2.26470   0.41552   2.66386
H     2.47501   1.92083   1.73216
H     0.22396  -0.03806   2.49524
H    -2.50575  -0.45380   2.73976
H    -2.66988  -1.78825   1.57723
H    -1.29783  -1.77532   2.71467
H    -2.28291   2.12985  -1.84642
H    -3.60416   2.35178  -0.65294
H    -2.21013   3.48934  -0.67048
H    -0.56382  -2.74042   0.70146
H    -1.79189  -2.04954  -1.43220
H    -0.24594  -1.54803  -2.15244
H    -0.56338  -3.26875  -1.82622
H     1.85853  -1.63584  -0.78785
H     2.15486  -3.40968   1.28904
H     1.41677  -2.11342   2.24247
H     2.98259  -1.84821   1.42900
