20
Generated by autodE on: 2022-06-22. E = -457.715339 Ha
C     3.11116   0.52402  -0.36826
N     1.83004  -0.07265  -0.02721
C     1.78921  -1.16223   0.85194
C     0.63895  -1.69086   1.29857
C    -0.71882  -1.16610   0.90153
C    -0.57507   0.03123  -0.02367
C    -1.75501   0.73986  -0.54527
N    -2.96018   0.27612  -0.12873
O    -1.68559   1.71038  -1.32659
C     0.64882   0.48808  -0.41180
H     3.81262  -0.24748  -0.72063
H     3.56475   1.03473   0.49844
H     2.96877   1.25772  -1.17165
H     2.76564  -1.55248   1.14466
H     0.68885  -2.54640   1.97603
H    -1.31145  -1.96977   0.41786
H    -1.30266  -0.90084   1.80658
H    -3.79915   0.74067  -0.45840
H    -3.05628  -0.50059   0.51264
H     0.72234   1.35166  -1.07480
