25
Generated by autodE on: 2022-06-22. E = -796.891580 Ha
C     4.84774   0.54104   0.26610
N     3.47971   0.23296  -0.09876
C     2.42173   0.60168   0.64373
O     2.48233   1.26323   1.68492
C     1.12094   0.13286   0.07692
O     1.11771  -0.60706  -1.02857
C    -0.23971  -0.93767  -1.37551
O    -0.46240  -1.61728  -2.36900
C    -1.00409  -0.31652  -0.35271
C    -2.45114  -0.36589  -0.29199
O    -3.13580  -0.91709  -1.15378
O    -2.98146   0.23551   0.78790
C    -4.41111   0.24259   0.88387
N    -0.10934   0.32712   0.51415
C    -0.48700   1.11705   1.69211
H     5.36153   1.04420  -0.56657
H     4.84588   1.20366   1.13875
H     5.40310  -0.37690   0.51529
H     3.31552  -0.34315  -0.91952
H    -4.65070   0.86688   1.75259
H    -4.86111   0.66699  -0.02478
H    -4.79244  -0.77804   1.03610
H     0.42707   1.47104   2.17056
H    -1.10883   1.95847   1.36545
H    -1.06464   0.48231   2.37190
