23
Generated by autodE on: 2022-06-17. E = -351.521381 Ha
C     3.46836   1.48369   0.26288
C     2.52205   0.51945   0.23914
C     2.87981  -0.93415   0.41625
C     1.11921   0.87836   0.04041
C     0.07808   0.00916   0.00318
C    -1.29736   0.41849  -0.19483
C    -2.39058  -0.38452  -0.23690
C    -3.76098   0.19331  -0.45116
C    -2.35375  -1.87826  -0.07976
H     3.20519   2.53816   0.13425
H     4.52492   1.24356   0.41095
H     2.36246  -1.36736   1.28841
H     2.57100  -1.52895  -0.45944
H     3.96211  -1.06371   0.55746
H     0.91180   1.94786  -0.08597
H     0.27695  -1.05849   0.12912
H    -1.45694   1.49611  -0.32201
H    -3.73853   1.28743  -0.56142
H    -4.23173  -0.23919  -1.35238
H    -4.42865  -0.05942   0.39217
H    -1.34500  -2.28225   0.07502
H    -2.78685  -2.36666  -0.97059
H    -2.98257  -2.18769   0.77380
