15
Generated by autodE on: 2022-06-17. E = -433.372091 Ha
C    -2.99459  -0.51840   0.26658
O    -1.84764  -0.18423  -0.51774
C    -0.67856  -0.08378   0.15132
O    -0.59991  -0.27816   1.35653
N     0.28654   0.28985  -0.75291
N     1.54941   0.30954  -0.38715
C     2.06744  -0.24312   0.89241
N     2.43675   0.78218  -1.15188
H    -3.84037  -0.54765  -0.43118
H    -3.17449   0.24097   1.04250
H    -2.87018  -1.50082   0.74646
H     1.69090  -1.26346   1.01669
H     3.15739  -0.22174   0.81810
H     1.70757   0.37997   1.71661
H     1.93873   1.12635  -1.98790
