38
Generated by autodE on: 2022-06-17. E = -784.864719 Ha. Imaginary frequency = -381.8 cm-1
C     5.64543  -0.62528  -1.16903
C     4.57793   0.13746  -0.84517
C     4.75045   1.51334  -0.25392
C     3.22391  -0.36634  -1.06504
C     2.07958   0.30575  -0.78854
C     0.74747  -0.23279  -1.00742
N     0.46492  -1.16328   0.92631
N    -0.83671  -1.14313   0.95857
C    -1.47597  -2.36325   0.44927
N    -1.37065   0.05726   0.68432
C    -2.68015   0.33322   0.94092
O    -3.29224   1.24803   0.40060
O    -3.23189  -0.44273   1.90063
C    -4.59157  -0.15263   2.24464
C    -0.41603   0.59042  -1.09214
C    -0.30172   2.07354  -0.83907
C    -1.47585   0.19749  -2.09393
H     5.51784  -1.62377  -1.59860
H     6.66847  -0.27211  -1.01247
H     4.26739   1.58437   0.73481
H     5.81368   1.76688  -0.13840
H     4.27828   2.28085  -0.88957
H     3.14983  -1.37332  -1.49292
H     2.14738   1.30799  -0.35786
H     0.70432  -1.18224  -1.54852
H     0.78034  -0.26609   1.30964
H    -2.55515  -2.31827   0.62072
H    -1.26723  -2.45781  -0.62789
H    -1.04951  -3.22075   0.98201
H    -4.86078  -0.86730   3.03167
H    -5.25138  -0.28449   1.37463
H    -4.68732   0.87605   2.62173
H    -1.29688   2.52187  -0.72280
H     0.28338   2.29619   0.06322
H     0.19469   2.56062  -1.69630
H    -1.53217  -0.89140  -2.22959
H    -1.21932   0.64531  -3.07128
H    -2.46820   0.57691  -1.81317
