14
Generated by autodE on: 2022-06-17. E = -270.683214 Ha
C    -1.19702  -0.73688   0.73760
C    -0.70508   0.51065   0.06137
C    -1.67787   1.64408  -0.02226
C     0.54701   0.63786  -0.45747
C     1.58241  -0.38423  -0.44060
O     1.49387  -1.51120   0.04164
H    -0.56284  -0.99264   1.60120
H    -1.14058  -1.60138   0.05717
H    -2.23483  -0.61985   1.07963
H    -2.58743   1.31887  -0.55745
H    -2.00935   1.92926   0.99178
H    -1.25961   2.52644  -0.52588
H     0.82771   1.58070  -0.93592
H     2.53892  -0.07108  -0.92542
