20
Generated by autodE on: 2022-07-27. E = -603.159835 Ha
C     1.66750   3.02504  -0.28439
N     0.98007   1.75359  -0.18732
C     1.00629   0.83537  -1.16329
O     1.60403   0.94460  -2.24079
C     0.24103  -0.42934  -0.91402
C     0.27761  -1.40543  -1.94921
N     0.30184  -2.20948  -2.78945
N    -0.45593  -0.72638   0.16793
N    -0.61971   0.01436   1.22576
C    -1.41895  -0.64392   2.17172
C    -1.65418   0.15135   3.41498
O    -1.86979  -1.76821   1.97070
H     2.17110   3.09130  -1.25541
H     0.95388   3.85846  -0.19309
H     2.41788   3.12300   0.51550
H     0.43943   1.52348   0.65050
H    -0.93933  -1.65161   0.21051
H    -2.15175   1.10010   3.15763
H    -0.68877   0.40863   3.87892
H    -2.27190  -0.41860   4.11914
