17
Generated by autodE on: 2022-10-21. E = -2995.673361 Ha
C     2.29596  -0.77298   1.47757
O     1.01854  -1.41150   1.55317
C     0.05328  -1.02062   0.72002
C    -0.10735  -0.10767  -0.25758
Br    0.98167   1.26339  -0.95078
C    -1.60684  -0.20979  -0.63356
C    -2.42945   0.32167   0.56464
C    -2.26193  -0.59267   1.52469
C    -1.34717  -1.66234   0.88616
O    -1.80641  -1.62709  -0.47544
H     2.92963  -1.26620   2.22513
H     2.73776  -0.90170   0.47797
H     2.21320   0.29831   1.71371
H    -1.87826   0.14212  -1.63492
H    -2.96226   1.27169   0.58918
H    -2.61421  -0.60189   2.55530
H    -1.35235  -2.67055   1.31486
