35
Generated by autodE on: 2022-10-21. E = -3617.612129 Ha. Imaginary frequency = -90.1 cm-1
C    -3.60934  -3.71120  -0.32728
N    -2.40950  -2.90318  -0.40128
C    -2.46196  -1.58383  -0.66407
O    -3.49705  -0.95153  -0.85059
N    -1.14016  -1.06946  -0.86188
O    -0.99991   0.21590  -0.85675
N    -1.77200   0.95508  -0.07277
C    -1.49171   2.31710  -0.25539
O    -1.80007   3.11011   0.61391
O    -0.97283   2.63311  -1.43845
C    -0.70997   4.02805  -1.66153
C    -0.80577   0.05113   2.10745
C     0.54607   0.76081   2.34670
O     1.29072  -0.32098   2.94030
C     1.07938  -1.23276   1.83928
C     1.62468  -0.38384   0.67793
Br    2.41689  -1.17759  -0.82536
C     1.27813   0.88190   0.99380
O     1.37159   2.08374   0.43066
C     2.05768   2.20575  -0.82179
C    -0.46305  -1.21587   1.77010
H    -4.02983  -3.91351  -1.32705
H    -3.36597  -4.66703   0.15264
H    -4.37737  -3.19668   0.26828
H    -1.49671  -3.34634  -0.35192
H    -1.65494   4.59000  -1.68191
H    -0.21056   4.08696  -2.63486
H    -0.06097   4.42733  -0.87041
H    -1.77924   0.46498   2.34902
H     0.53837   1.66743   2.95996
H     1.55978  -2.20311   2.00064
H     2.07069   3.27518  -1.05991
H     1.52601   1.65604  -1.60964
H     3.08953   1.83723  -0.72856
H    -1.09554  -2.09001   1.65131
