12
Generated by autodE on: 2022-05-25. E = -248.511874 Ha
C    -1.37865  -0.63676   0.25354
C     0.07612  -0.44495   0.11468
C     1.08967  -1.50482   0.34163
O     0.51909   0.70644  -0.22220
N    -0.34548   1.75973  -0.45295
H    -1.77454   0.07753   0.99978
H    -1.62609  -1.66654   0.53836
H    -1.87712  -0.36507  -0.69592
H     1.01339  -1.89408   1.37212
H     0.90917  -2.35990  -0.33314
H     2.10367  -1.11715   0.17414
H     0.34909   2.47909  -0.69243
