16
Generated by autodE on: 2022-05-25. E = -446.128259 Ha
C     2.34531   0.85617  -0.15598
C     0.99902   0.29253   0.11733
C     0.39035  -0.82036  -0.29470
F     0.84699  -1.79473  -1.08730
C    -1.07314  -0.75855   0.17168
C    -1.75633   0.37670  -0.63327
C    -1.17562   1.49748  -0.19492
C    -0.14820   1.02637   0.86348
O    -0.87000  -0.09196   1.43131
H     2.88433   1.08766   0.77844
H     2.26053   1.80395  -0.71720
H     2.95705   0.15983  -0.74827
H    -1.60581  -1.71094   0.27054
H    -2.50364   0.23216  -1.41267
H    -1.31754   2.52845  -0.51762
H     0.15832   1.75015   1.62733
