28
Generated by autodE on: 2022-05-25. E = -694.642044 Ha. Imaginary frequency = -194.9 cm-1
C    -2.59515   1.08852   0.50282
C    -2.14541  -0.10434  -0.25807
C    -2.54236  -0.35007  -1.66887
O    -1.69295  -1.13258   0.37240
N    -1.25599  -0.97978   1.66193
C     0.70000   0.34995   0.78855
F     0.76012   1.11968   1.88637
C     1.60931  -0.87576   0.62328
C     2.91409  -0.37282  -0.04635
C     2.54826  -0.02172  -1.28486
C     1.02634  -0.30756  -1.34629
O     0.95875  -1.47844  -0.50469
C     0.34224   0.75598  -0.45527
C     0.03382   2.13176  -0.93932
H    -3.47323   0.79142   1.10974
H    -1.83411   1.44021   1.20944
H    -2.89303   1.89669  -0.17577
H    -3.64315  -0.35392  -1.76801
H    -2.14615  -1.31206  -2.02079
H    -2.16697   0.45977  -2.31483
H    -0.81892  -1.89930   1.80014
H     1.70232  -1.55700   1.47556
H     3.88356  -0.29012   0.44422
H     3.14106   0.42519  -2.08273
H     0.58532  -0.48887  -2.33362
H    -0.73513   2.14162  -1.72890
H     0.94534   2.58443  -1.37439
H    -0.30140   2.78388  -0.12089
