32
Generated by autodE on: 2022-05-26. E = -1228.147919 Ha
C     4.43767   0.32962  -0.84873
O     3.00768   0.50459  -0.78140
C     2.42632   0.19159   0.35981
O     2.97289  -0.22310   1.35646
C     0.93147   0.39108   0.32599
O     0.38359   0.83101  -0.91465
C    -0.93874   0.99088  -0.47786
C    -1.84799   1.60544  -1.54266
C    -2.94027   2.49772  -1.06281
O    -1.64592   1.28716  -2.69483
O    -0.81123   1.82966   0.70034
C     0.38510   1.49896   1.26083
O     0.83561   1.98948   2.25091
C    -1.31126  -0.42593   0.04935
F    -2.31989  -0.35525   0.96737
C    -1.52832  -1.56165  -0.99673
C    -1.83893  -2.80299  -0.16927
C    -0.67051  -3.17741   0.36886
C     0.35082  -2.16532  -0.13315
O    -0.17930  -1.79962  -1.41026
C     0.06511  -0.86024   0.66704
F     0.00885  -1.05805   2.01851
H     4.72600   0.62852  -1.86208
H     4.92954   0.96820  -0.10213
H     4.69529  -0.72309  -0.66805
H    -3.50665   1.98679  -0.26665
H    -3.59813   2.77195  -1.89644
H    -2.49924   3.39984  -0.60790
H    -2.17916  -1.31482  -1.84106
H    -2.83275  -3.21899  -0.00971
H    -0.46621  -3.97713   1.07933
H     1.40280  -2.46335  -0.19201
