19
Generated by autodE on: 2022-05-26. E = -721.999876 Ha
C     3.81362  -1.16492  -0.69721
O     2.40970  -0.93051  -0.51554
C     2.06381   0.27288  -0.03992
O     2.85546   1.15895   0.23969
C     0.63380   0.41869   0.11276
O    -0.23230  -0.61217  -0.21888
C    -1.44052  -0.22259   0.01470
C    -2.60997  -1.13458  -0.25402
C    -3.95617  -0.57788   0.05891
O    -2.36894  -2.23687  -0.69824
O    -1.51817   0.97295   0.47667
C    -0.09686   1.51827   0.58409
O     0.07284   2.62997   0.99648
H     4.34654  -1.07878   0.26081
H     3.89941  -2.18548  -1.08746
H     4.23538  -0.44697  -1.41546
H    -4.72658  -1.32363  -0.17031
H    -4.12279   0.34063  -0.52797
H    -4.00121  -0.29161   1.12273
