32
Generated by autodE on: 2022-05-26. E = -1228.060007 Ha. Imaginary frequency = -264.7 cm-1
C     4.18773  -0.52243  -0.98479
O     2.88163   0.06796  -0.89954
C     2.51425   0.52828   0.29867
O     3.20842   0.49788   1.29957
C     1.15353   1.03653   0.29815
O     0.41783   1.11437  -0.84815
C    -0.81153   1.40918  -0.48659
C    -1.86752   1.64979  -1.51410
C    -3.14548   2.24152  -1.02104
O    -1.63215   1.31561  -2.66078
O    -0.84968   1.91623   0.74068
C     0.42611   1.64888   1.36150
O     0.62816   1.92330   2.51503
C    -1.41264  -0.75416   0.18222
F    -2.58195  -0.44765   0.75962
C    -1.32548  -1.63533  -1.07645
C    -1.51219  -3.09831  -0.60650
C    -0.40265  -3.39270   0.07951
C     0.45910  -2.10769   0.02239
O     0.09620  -1.59304  -1.26754
C    -0.28051  -1.08929   0.89163
F    -0.15902  -1.04621   2.20835
H     4.30013  -0.85084  -2.02407
H     4.96099   0.21715  -0.73249
H     4.26419  -1.38127  -0.30268
H    -3.56995   1.59358  -0.23718
H    -3.85096   2.34502  -1.85415
H    -2.94898   3.22137  -0.55643
H    -1.87660  -1.30113  -1.96110
H    -2.39423  -3.70669  -0.80102
H    -0.12806  -4.30251   0.61112
H     1.54095  -2.20462   0.15575
