31
Generated by autodE on: 2022-10-22. E = -1025.532773 Ha
C    -1.58759  -1.51462   2.18671
C    -2.20796  -1.12450   0.88507
O    -3.39690  -1.11383   0.65534
C    -1.22855  -0.81917  -0.29853
C    -1.82134  -1.37820  -1.53094
N    -2.25338  -1.83036  -2.50667
O     0.02049  -1.47138  -0.08235
C     1.13259  -0.60788  -0.35435
C     2.07337  -1.30234  -1.24208
N     2.83073  -1.84358  -1.93231
C     1.74637  -0.34449   1.06219
C     2.57673  -1.43399   1.64943
O     1.44528   0.68147   1.63033
C     0.53404   0.65173  -1.02987
C     1.35434   1.91789  -0.83351
O     2.51321   1.95590  -1.21055
C     0.69906   3.07784  -0.19519
C    -0.44178   2.94624   0.50569
C    -1.13288   1.64125   0.63582
O    -1.89031   1.40786   1.55961
C    -0.91383   0.68621  -0.52309
H    -1.20945  -2.54633   2.08770
H    -0.73313  -0.87449   2.44044
H    -2.35041  -1.48149   2.97491
H     2.09733  -2.41073   1.48037
H     2.73352  -1.25347   2.71984
H     3.54960  -1.45657   1.12941
H     0.52254   0.46766  -2.11373
H     1.24425   4.02379  -0.23986
H    -0.86937   3.77507   1.07553
H    -1.56707   1.08470  -1.31494
