12
Generated by autodE on: 2022-10-22. E = -381.636109 Ha
O    -0.91068   2.49273   0.25839
C    -0.49177   1.34579   0.13883
C     0.96281   1.05919   0.11203
C     1.42215  -0.19766  -0.01784
C     0.49177  -1.34582  -0.13853
O     0.91068  -2.49271  -0.25854
C    -0.96281  -1.05919  -0.11206
C    -1.42215   0.19766   0.01780
H     1.62828   1.92086   0.20183
H     2.48850  -0.43367  -0.04142
H    -1.62828  -1.92083  -0.20205
H    -2.48850   0.43369   0.04121
