31
Generated by autodE on: 2022-10-22. E = -1025.446384 Ha. Imaginary frequency = -269.7 cm-1
C    -1.43536  -1.89345   2.22284
C    -1.52682  -0.68565   1.33420
O    -2.03911   0.36109   1.66088
C    -1.21867  -0.96559  -0.15045
C    -2.39063  -1.25306  -0.91906
N    -3.37325  -1.42519  -1.51759
O    -0.15538  -1.61933  -0.58286
C     1.12538  -1.40329  -0.31066
C     1.99850  -2.03876  -1.23633
N     2.73154  -2.53814  -1.99003
C     1.62671  -0.80922   0.93924
C     3.11221  -0.76971   1.11995
O     0.83823  -0.36520   1.76847
C     0.80830   0.98990  -1.24026
C     1.51898   1.86767  -0.28025
O     2.74292   1.96541  -0.28967
C     0.69742   2.64924   0.67105
C    -0.64262   2.70387   0.56687
C    -1.36218   1.97028  -0.49981
O    -2.53632   2.19114  -0.76279
C    -0.57097   0.98924  -1.29573
H    -0.66095  -2.60088   1.90200
H    -1.26134  -1.56491   3.25659
H    -2.41342  -2.40334   2.17088
H     3.48229  -1.79936   1.26060
H     3.35215  -0.16590   2.00328
H     3.60837  -0.35518   0.23074
H     1.40951   0.55740  -2.04031
H     1.24536   3.20820   1.43288
H    -1.25596   3.31015   1.23687
H    -1.07660   0.57681  -2.16972
