25
Generated by autodE on: 2022-05-29. E = -464.923985 Ha
C     2.58256  -0.99726  -0.76874
C     1.82209   0.24261  -0.36141
O     2.34334   1.35643  -0.47160
C     0.46837   0.04325   0.16792
C    -0.51597   0.97868   0.30868
C    -0.52803   2.43368   0.00821
C    -1.77724   0.23247   0.70007
C    -2.21990  -0.53616  -0.59085
C    -1.11619  -1.62041  -0.74800
C    -0.16898  -1.31745   0.45434
C    -1.19181  -0.92159   1.53658
H     2.78849  -1.61765   0.11919
H     1.98502  -1.61588  -1.45702
H     3.53159  -0.71456  -1.24309
H    -0.75137   3.00433   0.92719
H     0.42342   2.78664  -0.40358
H    -1.34644   2.66140  -0.69710
H    -2.56461   0.85261   1.14792
H    -3.21044  -0.98735  -0.43102
H    -2.29408   0.13629  -1.45774
H    -0.58519  -1.55778  -1.70857
H    -1.53537  -2.63417  -0.66015
H     0.52633  -2.12850   0.69984
H    -1.92472  -1.71301   1.75754
H    -0.72013  -0.58007   2.47012
