15
Generated by autodE on: 2022-05-29. E = -342.110001 Ha
C     3.18334   0.07564   0.34024
C     1.98068   0.07394  -0.51993
N     0.78480   0.02445  -0.04069
N    -0.36150   0.01928  -0.76207
C    -1.42427  -0.04262   0.07226
C    -2.76620  -0.05251  -0.61198
O    -1.34612  -0.08938   1.32314
H     3.78162   0.98164   0.14408
H     2.92314   0.03474   1.40775
H     3.82490  -0.78566   0.08742
H     2.06705   0.11515  -1.61033
H     0.63481  -0.01734   0.98610
H    -3.31906  -0.95884  -0.31685
H    -3.35665   0.81211  -0.26796
H    -2.67165  -0.01946  -1.70507
