40
Generated by autodE on: 2022-05-29. E = -807.015573 Ha. Imaginary frequency = -273.7 cm-1
C     3.58224  -1.63067   0.72806
C     2.08818  -1.87120   0.69061
O     1.62663  -3.01491   0.57015
N     1.24337  -0.80934   0.80668
N     1.76647   0.43489   0.75425
C     1.01383   1.44212   1.15686
C     1.44005   2.84339   0.91796
C    -0.80394   0.68230  -0.29756
C    -0.46555   1.75158  -1.20696
C    -1.33243   2.99509  -1.17021
O     0.49890   1.70676  -1.99669
C    -2.07257   0.64931   0.56270
C    -3.20759   0.08552  -0.34292
C    -2.76167  -1.39113  -0.56244
C    -1.45437  -1.49742   0.28274
C    -1.80179  -0.57366   1.46086
C    -0.40066  -0.68020  -0.45576
C     0.24677  -1.23983  -1.69024
H     4.10244  -2.59641   0.72511
H     3.87333  -1.05087   1.61675
H     3.89542  -1.05452  -0.15990
H     2.47249   0.64115   0.03611
H     0.28845   1.21596   1.93632
H     0.57696   3.51952   0.96899
H     2.14707   3.15403   1.70747
H     1.93251   2.95504  -0.05877
H    -1.45971   3.37160  -0.14445
H    -2.34035   2.76085  -1.55066
H    -0.88397   3.77596  -1.79913
H    -2.32199   1.58927   1.07112
H    -3.29933   0.64734  -1.28334
H    -4.17855   0.13696   0.17432
H    -3.50824  -2.09916  -0.17312
H    -2.59344  -1.63741  -1.62056
H    -1.13793  -2.52252   0.51027
H    -0.96856  -0.44423   2.16236
H    -2.69574  -0.90198   2.01271
H     1.13866  -0.67114  -1.97508
H    -0.46140  -1.17664  -2.53408
H     0.51317  -2.29549  -1.54840
