28
Generated by autodE on: 2022-06-01. E = -744.899417 Ha
C     3.63203  -0.51482  -1.73296
N     2.69069  -0.03949  -0.73955
C     1.40301  -0.38987  -0.77342
O     0.93999  -1.14092  -1.64855
C     0.47850   0.16533   0.28809
C     1.01930   0.89403   1.48715
C     0.20661   0.97218   2.75026
O     2.14060   1.39158   1.45518
C    -0.83890  -0.04518   0.07194
C    -2.00271   0.43844   0.90822
C    -2.48029   1.82363   0.60376
O    -2.54825  -0.32915   1.67893
C    -1.38169  -0.78637  -1.14699
C    -1.64066  -2.25159  -0.95068
O    -1.78982  -0.14118  -2.09771
H     3.70133  -1.61391  -1.72140
H     3.33096  -0.20714  -2.74713
H     4.62059  -0.09447  -1.51290
H     2.97189   0.61222  -0.00668
H    -0.26070   0.00865   2.99212
H     0.86683   1.29466   3.56539
H    -0.59344   1.72198   2.64686
H    -3.34382   2.07866   1.23209
H    -1.66273   2.54786   0.74248
H    -2.75539   1.86175  -0.46401
H    -1.84335  -2.72559  -1.92111
H    -2.53467  -2.34718  -0.31034
H    -0.80495  -2.74550  -0.43952
