16
Generated by autodE on: 2022-06-01. E = -492.395818 Ha
C     2.13104  -1.70273   0.15882
C     1.12524  -0.61976   0.04726
C     1.35149   0.76610  -0.17229
O     2.34638   1.45951  -0.32223
O     0.05588   1.34575  -0.20328
C    -0.85284   0.37280  -0.01684
C    -2.23004   0.61534   0.00300
N    -3.37980   0.82279   0.01876
N    -0.22218  -0.80019   0.13447
C    -0.87087  -2.08947   0.35219
H     2.00248  -2.46476  -0.62802
H     2.07622  -2.21628   1.13310
H     3.13282  -1.26451   0.05468
H    -0.49515  -2.52605   1.28623
H    -1.95474  -1.94467   0.41808
H    -0.63263  -2.75696  -0.48613
