44
Generated by autodE on: 2022-06-01. E = -1237.289654 Ha. Imaginary frequency = -210.8 cm-1
C     3.97453   0.02820  -1.87094
N     2.89353  -0.44344  -1.02853
C     1.93831   0.38794  -0.58572
O     1.96983   1.60409  -0.78334
C     0.87371  -0.29205   0.28910
C     1.51575  -0.69469   1.63926
C     1.32071   0.08886   2.90043
O     2.36478  -1.57036   1.55734
C    -0.45084   1.45746   0.65511
C     0.28248   2.53659   1.23215
N     0.88085   3.38898   1.74805
O    -1.35967   0.82764   1.47924
C    -2.38040   0.30408   0.70270
O    -3.26799  -0.37662   1.16190
C    -2.13273   0.80771  -0.64335
C    -2.99775   0.61572  -1.82183
N    -1.07698   1.61653  -0.57517
C    -0.64195   2.51052  -1.65032
C    -0.06056  -1.19738  -0.26824
C    -0.73091  -2.09971   0.70089
C    -1.79797  -3.08654   0.31426
O    -0.42514  -2.01034   1.89372
C    -0.21836  -1.22310  -1.74330
C    -0.94321  -2.33168  -2.46152
O     0.28039  -0.32044  -2.41899
H     4.65051  -0.80974  -2.08049
H     4.54410   0.83154  -1.37790
H     3.58735   0.42034  -2.82554
H     2.84880  -1.41956  -0.75608
H     1.90842   1.01811   2.81970
H     1.71845  -0.49928   3.73809
H     0.27486   0.35299   3.08387
H    -2.39847   0.44106  -2.72703
H    -3.66967  -0.23396  -1.64672
H    -3.61184   1.51719  -1.99241
H     0.04106   3.25708  -1.23745
H    -0.13843   1.93120  -2.42931
H    -1.53567   3.00233  -2.05425
H    -1.36205  -3.92181  -0.25307
H    -2.24418  -3.47921   1.23615
H    -2.57696  -2.62489  -0.30464
H    -0.59762  -3.32380  -2.14163
H    -0.76331  -2.20602  -3.53659
H    -2.02520  -2.27378  -2.27627
