42
Generated by autodE on: 2022-06-19. E = -904.173778 Ha
C     0.02940  -3.10198  -0.16152
N    -0.42899  -1.74174  -0.03016
C     0.36149  -0.83385   0.80763
C     0.95741  -1.49858   2.05976
C     1.46532  -0.17022  -0.04092
C     2.52752   0.52846   0.55592
C     3.45984   1.22063  -0.22317
C     3.35589   1.21908  -1.61728
C     2.31453   0.51075  -2.22278
C     1.38132  -0.17526  -1.44019
C    -0.72366   0.21782   1.27223
C    -0.16977   1.60078   1.48981
O     0.31312   1.93599   2.56580
C    -0.19282   2.52904   0.34472
C    -0.85328   2.22767  -0.78789
C    -1.67182   1.00006  -0.96340
O    -2.25504   0.83618  -2.02611
C    -1.85020   0.08198   0.23803
C    -1.87053  -1.45398  -0.01047
C    -2.53339  -1.90884  -1.31549
C    -2.61624  -2.14468   1.15479
H    -0.10679  -3.72992   0.74275
H    -0.49240  -3.59983  -0.99227
H     1.10324  -3.10896  -0.40841
H     0.18079  -2.07624   2.58090
H     1.78891  -2.17101   1.80465
H     1.33269  -0.73936   2.75967
H     2.62668   0.55667   1.64111
H     4.27311   1.76332   0.26505
H     4.08374   1.76138  -2.22555
H     2.22364   0.49392  -3.31185
H     0.56272  -0.72218  -1.90755
H    -1.08984  -0.11411   2.25005
H     0.35413   3.46780   0.46272
H    -0.85216   2.90398  -1.64661
H    -2.80947   0.40526   0.67723
H    -3.55301  -1.50604  -1.39303
H    -2.60953  -3.00690  -1.32944
H    -1.96523  -1.58952  -2.19728
H    -3.69258  -1.91701   1.11197
H    -2.50176  -3.23652   1.07943
H    -2.23962  -1.83387   2.13928
