30
Generated by autodE on: 2022-06-19. E = -522.456604 Ha
C    -0.16357   2.59990  -0.00706
C    -0.30554   1.10227   0.07196
C     0.84741   0.25924   0.04318
C     2.13766   0.82175  -0.23124
C     3.30094   0.05980  -0.18672
C     3.26808  -1.30458   0.13908
C     2.02208  -1.88126   0.42190
C     0.84592  -1.13743   0.36373
N    -1.59499   0.58410   0.23614
C    -2.45956   1.18489   1.26940
C    -2.06947  -0.45971  -0.44774
C    -3.30211  -1.17060   0.01951
C    -1.39171  -0.90813  -1.68614
H     0.28740   2.91464  -0.96707
H     0.48043   3.02372   0.78683
H    -1.13803   3.10424   0.04801
H     2.21767   1.87954  -0.48453
H     4.25720   0.54230  -0.41127
H     4.18353  -1.89960   0.16769
H     1.96150  -2.93990   0.69231
H    -0.09171  -1.63202   0.62146
H    -2.60396   0.46431   2.08694
H    -3.44084   1.45797   0.85782
H    -1.97145   2.07197   1.68079
H    -3.42715  -2.10943  -0.53577
H    -4.21278  -0.56505  -0.14042
H    -3.26621  -1.40970   1.09497
H    -2.11993  -1.37476  -2.36608
H    -0.89212  -0.05550  -2.17649
H    -0.59139  -1.65336  -1.49453
