30
Generated by autodE on: 2022-07-27. E = -522.455880 Ha
C    -0.97751   0.81750   1.89807
C    -0.47477   0.36434   0.55718
C     0.91441   0.35658   0.22262
C     1.89040   0.95388   1.08285
C     3.24595   0.95867   0.76625
C     3.72306   0.36258  -0.41051
C     2.79393  -0.26536  -1.25338
C     1.43650  -0.28530  -0.94686
N    -1.42989  -0.06247  -0.38197
C    -1.43682   0.55575  -1.72154
C    -2.43340  -0.87250  -0.05324
C    -3.65593  -0.96186  -0.91255
C    -2.32387  -1.72939   1.15930
H    -2.05637   1.03104   1.85017
H    -0.83018   0.10232   2.73292
H    -0.48029   1.75397   2.20495
H     1.56948   1.42296   2.01413
H     3.94810   1.43685   1.45608
H     4.78816   0.36804  -0.65228
H     3.13799  -0.76938  -2.16177
H     0.76307  -0.83300  -1.60800
H    -1.51363  -0.20317  -2.51202
H    -2.29724   1.23643  -1.79878
H    -0.52228   1.13898  -1.85253
H    -4.05741   0.03121  -1.17274
H    -4.44197  -1.52500  -0.39255
H    -3.44863  -1.48035  -1.86631
H    -1.26453  -1.93619   1.38142
H    -2.75589  -1.26991   2.06733
H    -2.86475  -2.67411   0.99223
