12
Generated by autodE on: 2022-06-19. E = -381.636096 Ha
O    -2.62374   0.47529   0.00618
C    -1.41658   0.25686   0.00350
C    -0.88765  -1.12824  -0.03151
C     0.43517  -1.36826  -0.03444
C     1.41657  -0.25686  -0.00330
O     2.62374  -0.47529  -0.00628
C     0.88765   1.12824   0.03149
C    -0.43517   1.36826   0.03442
H    -1.62933  -1.93025  -0.05474
H     0.84785  -2.37952  -0.06017
H     1.62934   1.93025   0.05459
H    -0.84785   2.37952   0.06002
