42
Generated by autodE on: 2022-06-19. E = -904.115577 Ha. Imaginary frequency = -136.5 cm-1
C     0.20169  -1.59825  -1.51591
N    -0.22554  -1.38870  -0.11243
C     0.62888  -0.75244   0.75588
C     0.52410  -0.97393   2.24515
C     1.95689  -0.28171   0.29002
C     3.10360  -0.57218   1.06607
C     4.37054  -0.13355   0.68511
C     4.53606   0.62592  -0.47732
C     3.41711   0.93323  -1.25458
C     2.14952   0.49100  -0.87735
C    -0.92560   1.18951   1.03397
C    -0.41979   2.00380  -0.04197
O     0.57241   2.75477   0.06788
C    -1.14306   1.91555  -1.33237
C    -2.32694   1.27782  -1.43777
C    -2.96309   0.63145  -0.26692
O    -4.14810   0.25148  -0.32756
C    -2.13170   0.48583   0.91347
C    -1.54537  -1.71347   0.16114
C    -2.41315  -2.11303  -1.00224
C    -1.99416  -2.45699   1.39715
H    -0.20173  -2.55299  -1.86515
H    -0.14429  -0.79398  -2.17489
H     1.29003  -1.66230  -1.55621
H    -0.47494  -0.80167   2.64489
H     0.82272  -2.00491   2.50488
H     1.19747  -0.28229   2.76249
H     3.01293  -1.17557   1.96867
H     5.23543  -0.39262   1.30027
H     5.52782   0.97592  -0.77280
H     3.52478   1.53254  -2.16153
H     1.30360   0.75710  -1.50366
H    -0.46238   1.34500   2.00686
H    -0.69350   2.44080  -2.17966
H    -2.89366   1.25747  -2.37262
H    -2.62991   0.09673   1.80231
H    -3.46358  -1.99143  -0.70686
H    -2.26739  -3.18219  -1.24215
H    -2.25459  -1.52471  -1.91162
H    -3.06059  -2.25304   1.56788
H    -1.90784  -3.53954   1.18403
H    -1.45254  -2.26002   2.31949
