60
Generated by autodE on: 2022-06-13. E = -1752.144628 Ha
C    -2.85370  -9.66584   4.40533
N    -3.44085  -8.37823   4.08536
C    -2.87819  -7.55446   3.18739
O    -1.84765  -7.87281   2.57792
C    -3.53240  -6.15604   2.99530
C    -5.04049  -6.17241   3.33993
C    -2.84665  -5.26011   4.05948
C    -1.31901  -5.23098   4.11206
C    -0.65412  -4.70650   2.83839
C    -1.35376  -3.43252   2.36354
C    -2.23057  -3.54791   1.06119
C    -3.47978  -2.61943   1.26440
F    -4.44245  -3.22835   1.96924
F    -3.16836  -1.49929   1.94339
F    -4.02145  -2.21872   0.10714
C    -1.34630  -2.85587  -0.01771
F    -0.09843  -3.35535  -0.01089
F    -1.80328  -2.94151  -1.27643
F    -1.22533  -1.53949   0.23722
C    -2.72749  -4.97259   0.68607
C    -3.35193  -5.86771   1.49380
C    -4.01017  -6.92852   0.63297
C    -5.50964  -6.66453   0.35602
C    -6.29209  -7.86743  -0.09000
O    -6.00935  -5.55815   0.44627
N    -3.34072  -6.88063  -0.65831
C    -2.73008  -8.13949  -1.05693
C    -2.57972  -5.60240  -0.74078
C    -1.10700  -5.87012  -1.08912
C    -3.36790  -4.89258  -1.87027
C    -2.90757  -5.12347  -3.28579
O    -4.37828  -4.25710  -1.62976
H    -1.84469  -9.55164   4.83268
H    -2.77038 -10.29593   3.50618
H    -3.49287 -10.17488   5.13692
H    -4.27680  -8.08693   4.57772
H    -5.18683  -6.30537   4.42186
H    -5.58629  -6.97701   2.83008
H    -5.49772  -5.21547   3.06161
H    -3.25729  -4.24561   3.96600
H    -3.20573  -5.62655   5.03247
H    -1.04255  -4.57022   4.95176
H    -0.92311  -6.22664   4.36243
H    -0.66606  -5.47853   2.05794
H     0.40478  -4.48817   3.04273
H    -1.98492  -3.04866   3.16975
H    -0.62209  -2.63423   2.20161
H    -3.92915  -7.93708   1.06050
H    -6.37601  -8.56448   0.76122
H    -5.76097  -8.40463  -0.89008
H    -7.29440  -7.57267  -0.42750
H    -1.89959  -8.45664  -0.39868
H    -2.36807  -8.09403  -2.09211
H    -3.50242  -8.92150  -1.02714
H    -1.02683  -6.54935  -1.94392
H    -0.56581  -4.96479  -1.36504
H    -0.60089  -6.33606  -0.23270
H    -3.65193  -4.71755  -3.98322
H    -2.75888  -6.19694  -3.47767
H    -1.93900  -4.62722  -3.45213
