24
Generated by autodE on: 2022-07-27. E = -518.096276 Ha
C    -2.37541  -0.67491   2.21568
C    -1.30764  -0.21204   1.24618
O    -1.37288   0.95101   0.78381
C    -0.26287  -1.13285   0.97289
N     0.92028  -0.76539   0.37083
C     2.13419  -1.42479   0.89206
C     1.06090   0.21193  -0.52276
C     2.40055   0.83939  -0.74723
C    -0.04945   0.65143  -1.40538
C    -1.11889  -0.32225  -1.84042
O     0.00956   1.75674  -1.94283
H    -2.40107   0.01095   3.07834
H    -2.22157  -1.70177   2.57386
H    -3.35886  -0.60810   1.72190
H    -0.23323  -2.08741   1.49199
H     2.61182  -0.77802   1.64124
H     2.83778  -1.62484   0.07626
H     1.83959  -2.36525   1.36917
H     2.25354   1.79852  -1.25790
H     3.04297   0.21086  -1.38924
H     2.93961   1.01401   0.19511
H    -1.07427  -0.36989  -2.93971
H    -2.10387   0.08068  -1.56245
H    -1.01666  -1.32873  -1.41838
