31
Generated by autodE on: 2022-06-06. E = -801.204260 Ha
C     1.17646   2.41853  -1.07381
O     0.23343   1.34467  -1.16314
C    -0.63748   1.21927  -0.14528
O    -0.75394   2.07787   0.71547
C    -1.42825  -0.01320  -0.22398
C    -2.75629  -0.11596   0.36025
C    -3.42584   1.13019   0.89616
O    -3.35164  -1.20005   0.43896
N    -0.88547  -1.12268  -0.86277
C    -1.76809  -2.03518  -1.62957
N     0.34356  -1.46207  -0.93837
C     1.33012  -0.91740  -0.11050
C     1.14766  -0.61687   1.25648
C     2.23346  -0.19152   2.01709
C     3.49612  -0.02614   1.43231
C     3.67937  -0.33109   0.08012
C     2.60949  -0.79625  -0.68244
H     1.85764   2.29469  -1.92345
H     1.73686   2.36116  -0.12928
H     0.66538   3.39007  -1.13752
H    -3.30831   1.99374   0.22709
H    -2.98398   1.40815   1.86499
H    -4.49047   0.90339   1.04199
H    -1.17411  -2.39331  -2.47729
H    -2.65676  -1.49736  -1.96900
H    -2.05622  -2.87806  -0.99203
H     0.17046  -0.73483   1.72451
H     2.09125   0.02092   3.07898
H     4.33512   0.32923   2.03433
H     4.66291  -0.21724  -0.38077
H     2.73865  -1.05603  -1.73435
