58
Generated by autodE on: 2022-06-06. E = -1524.963610 Ha. Imaginary frequency = -195.5 cm-1
C     0.80864   2.91961  -2.76478
N     0.73504   1.90981  -1.73212
C     1.02250   2.18876  -0.45680
O     1.55808   3.25004  -0.09115
C     0.69744   1.15937   0.58288
C     1.61988   1.05807   1.83174
C     1.27884   2.25314   2.73833
C     0.06895   1.97279   3.23625
C    -0.31036   0.61867   2.61363
O     0.97330  -0.01214   2.52757
C    -0.58699   0.90718   1.10541
C    -1.83631   1.58347   0.68583
O    -1.90953   2.32497  -0.30700
N    -2.90053   1.35868   1.49711
C    -4.22141   1.85401   1.16930
C    -0.95155  -1.24576   0.13032
C    -1.86906  -2.08447   1.02160
C    -2.15300  -3.48509   0.56129
O    -2.39230  -1.60776   2.01075
C    -1.61764  -0.70925  -1.08009
O    -1.09575  -0.32586  -2.11184
O    -2.94572  -0.71872  -0.90499
C    -3.74620  -0.18353  -1.96981
N     0.37716  -1.52099   0.10543
C     0.94107  -2.51102   1.05279
N     1.12470  -0.61415  -0.48920
C     2.43740  -0.94251  -0.84410
C     3.44829   0.04119  -0.82490
C     4.73478  -0.26000  -1.27283
C     5.04823  -1.53364  -1.75695
C     4.04505  -2.50711  -1.80028
C     2.75530  -2.22090  -1.35529
H    -0.01350   3.65153  -2.67299
H     0.73986   2.43661  -3.74818
H     1.76039   3.46684  -2.70372
H     0.23573   1.03909  -1.91609
H     2.67759   0.84894   1.64946
H     1.89776   3.13972   2.86263
H    -0.57824   2.57451   3.87329
H    -1.03014  -0.00729   3.14501
H    -2.84842   0.52958   2.08447
H    -4.71769   1.24000   0.39820
H    -4.15169   2.88306   0.79355
H    -4.84624   1.84889   2.07258
H    -2.74253  -4.01772   1.31888
H    -1.22840  -4.03402   0.33355
H    -2.72566  -3.42313  -0.37912
H    -4.78653  -0.28723  -1.64274
H    -3.49692   0.87455  -2.12687
H    -3.57911  -0.74963  -2.89677
H     0.95421  -3.50823   0.59601
H     1.95904  -2.21037   1.31158
H     0.34010  -2.52828   1.96770
H     3.24223   1.04427  -0.45953
H     5.50144   0.51784  -1.23929
H     6.05799  -1.76186  -2.10439
H     4.26264  -3.50328  -2.19337
H     1.97802  -2.98151  -1.43192
