23
Generated by autodE on: 2022-06-21. E = -741.492107 Ha
C    -4.21953  -0.92713  -0.05157
O    -2.95456  -0.30256  -0.30235
C    -1.88569  -0.85435   0.29491
O    -1.95837  -1.83797   1.01637
C    -0.67019  -0.13112  -0.03145
C    -0.52714   1.01864  -0.86265
O    -1.26131   1.72162  -1.52268
O     0.87023   1.29876  -0.81236
C     1.47670   0.40096  -0.03179
C     2.94292   0.49268   0.16925
C     3.61425   1.62166  -0.55494
O     3.54233  -0.30289   0.87735
N     0.59059  -0.46165   0.44609
C     0.88305  -1.59235   1.33481
H    -4.95927  -0.33958  -0.60768
H    -4.21651  -1.96751  -0.40826
H    -4.45390  -0.91178   1.02290
H     3.43543   1.53797  -1.63878
H     4.69023   1.59304  -0.34472
H     3.18949   2.58534  -0.23111
H     0.32127  -1.46137   2.26654
H     0.55620  -2.51632   0.84491
H     1.95678  -1.60824   1.52517
