23
Generated by autodE on: 2022-06-24. E = -351.519881 Ha
C     3.65737  -0.90701  -0.18970
C     2.56578  -0.15596   0.07731
C     2.69000   1.22062   0.67760
C     1.23264  -0.67608  -0.21880
C     0.06225  -0.02313  -0.00468
C    -1.23846  -0.57746  -0.31643
C    -2.42672   0.04631  -0.11797
C    -3.72298  -0.62019  -0.47428
C    -2.52713   1.43355   0.47140
H     4.66639  -0.54229   0.02087
H     3.56267  -1.90624  -0.62541
H     2.24508   1.98424   0.01804
H     3.74214   1.48605   0.85194
H     2.15236   1.28576   1.63816
H     1.19701  -1.68311  -0.65131
H     0.08815   0.98119   0.42771
H    -1.24760  -1.58572  -0.74673
H    -4.28232  -0.01830  -1.21341
H    -3.57509  -1.62915  -0.88650
H    -4.38057  -0.69625   0.41073
H    -2.14941   1.46332   1.50737
H    -3.56930   1.78373   0.48964
H    -1.93787   2.16737  -0.10250
