32
Generated by autodE on: 2022-06-24. E = -744.226751 Ha
C     2.52716   2.82880   0.09334
N     2.23543   1.42434   0.28946
C     1.30319   0.78491  -0.47960
O     0.52076   1.43588  -1.20279
C     1.27641  -0.66375  -0.39552
C     2.27076  -1.40229   0.24783
N     3.11675  -2.00717   0.79639
N     0.23992  -1.36765  -1.06394
C     0.65217  -2.40398  -2.02309
C    -1.01998  -1.00011  -0.96771
C    -2.01501  -1.48731  -1.96998
C    -1.48447  -0.16653   0.15808
C    -2.38420   0.88954  -0.06094
C    -2.85688   1.64907   1.01128
C    -2.45393   1.34901   2.31471
C    -1.57185   0.28485   2.54273
C    -1.07996  -0.46142   1.47448
H     1.59952   3.41843   0.10770
H     3.17315   3.17756   0.90976
H     3.03924   3.03099  -0.86512
H     2.93428   0.86183   0.76314
H     0.83236  -1.94520  -3.00649
H     1.58574  -2.85158  -1.66357
H    -0.11129  -3.18472  -2.10674
H    -1.61918  -1.45169  -2.99487
H    -2.93788  -0.89947  -1.91527
H    -2.28016  -2.53581  -1.74781
H    -2.69521   1.13548  -1.07750
H    -3.54390   2.47750   0.82517
H    -2.82885   1.93858   3.15450
H    -1.26632   0.03513   3.56125
H    -0.39226  -1.28734   1.65939
