37
Generated by autodE on: 2022-10-21. E = -971.174987 Ha
C     4.66014   1.12982   0.40322
N     3.21099   1.11417   0.41974
C     2.53162  -0.04308   0.33843
O     3.05533  -1.15831   0.30041
N     1.13353   0.07937   0.29756
N     0.54938   1.28015   0.22483
C    -0.73661   1.15289   0.12053
C    -1.61674   2.32302  -0.02813
C    -0.99638   3.69181   0.02956
O    -2.82154   2.15372  -0.19950
C    -1.19079  -0.28779   0.06415
O    -2.21219  -0.65800   0.94679
C    -2.19838  -0.06820   2.24164
C    -1.60294  -0.70287  -1.39759
C    -1.94889  -2.18009  -1.35390
C    -0.77267  -2.81489  -1.25517
C     0.27586  -1.71782  -1.22406
O    -0.32504  -0.69747  -2.03605
C     0.19756  -1.05660   0.20182
C     0.32365  -2.03543   1.35658
H     5.00134   2.16024   0.55984
H     5.07150   0.49753   1.20455
H     5.06291   0.76789  -0.55718
H     2.68847   1.98338   0.39392
H    -1.77958   4.45238  -0.08179
H    -0.46913   3.83190   0.98583
H    -0.24883   3.80447  -0.77089
H    -1.19555  -0.07982   2.69573
H    -2.87652  -0.66488   2.86743
H    -2.56697   0.97010   2.21303
H    -2.30744  -0.01354  -1.87321
H    -2.95616  -2.59309  -1.32014
H    -0.57772  -3.87779  -1.11670
H     1.29223  -1.95542  -1.55268
H    -0.60016  -2.62218   1.44420
H     1.16473  -2.72140   1.19179
H     0.48962  -1.50774   2.30551
