17
Generated by autodE on: 2022-10-21. E = -509.625786 Ha
C    -4.05268   0.96242   0.51251
N    -3.06911   0.01224   0.03696
C    -1.75042   0.24958   0.15017
O    -1.26492   1.25400   0.67246
N    -0.98033  -0.80576  -0.40602
N     0.25246  -0.61989  -0.31633
C     1.41331  -0.48304  -0.25099
C     2.86330  -0.39174  -0.23067
C     3.42129   0.83918   0.41436
O     3.52468  -1.29274  -0.72194
H    -5.05268   0.53092   0.38401
H    -3.90105   1.18937   1.57936
H    -4.00446   1.91185  -0.04599
H    -3.36713  -0.83498  -0.43433
H     4.51768   0.81558   0.36116
H     3.09134   0.88901   1.46496
H     3.03195   1.73626  -0.09398
