20
Generated by autodE on: 2022-10-21. E = -461.427436 Ha
C     2.82150   0.15406   0.83916
O     1.78143   0.92808   0.25174
C     0.63726   0.29850  -0.08274
C     0.15329  -0.95638  -0.00688
C     0.61460  -2.26965   0.53065
C    -1.31000  -0.77416  -0.50459
C    -2.08250   0.02571   0.56926
C    -1.57777   1.26205   0.50134
C    -0.51408   1.18069  -0.61776
O    -1.14228   0.24779  -1.51127
H     3.65396   0.84245   1.03477
H     3.15865  -0.63969   0.15294
H     2.49003  -0.29809   1.78786
H    -0.00113  -2.56707   1.39985
H     1.66332  -2.26549   0.85097
H     0.49256  -3.06829  -0.22210
H    -1.79287  -1.67352  -0.90569
H    -2.82237  -0.38785   1.25443
H    -1.78502   2.13939   1.11327
H    -0.21567   2.11268  -1.11139
