37
Generated by autodE on: 2022-10-21. E = -971.045209 Ha. Imaginary frequency = -386.9 cm-1
C     4.49446  -0.18244   1.63158
N     3.62822  -0.03830   0.48011
C     2.54564   0.76987   0.51455
O     2.32716   1.59326   1.40981
N     1.68088   0.52486  -0.56754
N     0.69997   1.32475  -0.64704
C    -0.50391   1.36828  -0.64754
C    -1.61985   2.29809  -0.88196
C    -1.57562   3.55913  -0.07015
O    -2.52796   1.99638  -1.63762
C    -1.20346  -0.62125   0.16916
O    -2.04053  -0.10323   1.11108
C    -1.46316   0.39691   2.31432
C    -1.86695  -1.16767  -1.11919
C    -2.22515  -2.64540  -0.84352
C    -1.04591  -3.27343  -0.78150
C     0.00760  -2.16142  -1.00952
O    -0.70042  -1.31943  -1.93745
C    -0.00548  -1.30679   0.27326
C     0.82083  -1.69483   1.45356
H     4.78983   0.80582   2.01060
H     4.00311  -0.73210   2.45355
H     5.39828  -0.72975   1.33520
H     3.63442  -0.76382  -0.22983
H    -2.37646   4.23632  -0.39521
H    -1.71940   3.29288   0.99097
H    -0.59001   4.04127  -0.15587
H    -0.59610   1.04219   2.09867
H    -1.15012  -0.42196   2.98012
H    -2.24173   0.98847   2.81373
H    -2.62642  -0.53003  -1.58064
H    -3.23236  -3.03130  -0.69083
H    -0.82190  -4.31533  -0.55408
H     0.99048  -2.46338  -1.38741
H     0.34113  -2.53231   1.99519
H     0.95961  -0.87449   2.16859
H     1.81508  -2.04031   1.13518
