21
Generated by autodE on: 2022-10-06. E = -478.764273 Ha
C    -1.52123   0.95073  -1.50748
N    -0.78151   1.04233  -0.46477
C    -0.81645   2.24162   0.38608
C     0.04503  -0.06090  -0.02124
C    -0.61228  -1.25119   0.43307
C    -2.13491  -1.28072   0.49898
O     0.00637  -2.27239   0.79819
C     1.45484   0.19655  -0.08212
C     2.42973  -0.85883   0.39219
O     1.90196   1.27660  -0.52721
H    -2.20608   1.76425  -1.76136
H    -1.46169   0.05257  -2.12593
H    -1.40014   3.03059  -0.10244
H    -1.26924   1.96323   1.34773
H     0.21457   2.57417   0.54623
H    -2.58437  -0.31966   0.78764
H    -2.55724  -1.56938  -0.47770
H    -2.42267  -2.05016   1.22821
H     3.44627  -0.45201   0.29655
H     2.23545  -1.14479   1.43640
H     2.33995  -1.77910  -0.20360
