21
Generated by autodE on: 2022-10-13. E = -478.764241 Ha
C     1.89795   1.25610  -0.55766
N     0.83846   0.62450  -0.90619
C     0.37166   0.63499  -2.30106
C    -0.00175  -0.04140   0.06715
C    -0.68645   0.77076   1.02993
C    -0.55911   2.28756   0.94664
O    -1.40376   0.29474   1.93428
C    -0.05431  -1.46766  -0.07601
C    -0.92431  -2.27988   0.85755
O     0.61098  -2.06052  -0.95364
H     2.22153   1.21715   0.48464
H     2.45859   1.83090  -1.30014
H     1.13813   1.07414  -2.95052
H    -0.55579   1.22276  -2.34394
H     0.16729  -0.39902  -2.59800
H    -0.49265   2.67131  -0.08160
H     0.33785   2.62743   1.49034
H    -1.43646   2.72467   1.44245
H    -1.97357  -1.95248   0.81415
H    -0.60551  -2.15798   1.90328
H    -0.84735  -3.33646   0.56485
