48
Generated by autodE on: 2022-06-24. E = -1447.040580 Ha
C     0.42525   5.00940   0.97375
N     0.74140   3.69640   0.43922
C    -0.08863   2.66762   0.58682
O    -1.16898   2.69635   1.17893
C     0.35963   1.33727  -0.00059
O     1.54640   1.44249  -0.81295
C     2.12221   0.21347  -0.77347
O     3.10332  -0.09764  -1.38399
C     1.22215  -0.58821   0.17997
C     1.82803  -1.72661   0.98848
O     1.40385  -1.95378   2.12097
N     2.76553  -2.44034   0.36217
C     3.36698  -3.60739   0.98209
O     0.72931   0.44777   1.01941
C    -0.05924  -0.94590  -0.68240
O     0.37334  -1.51765  -1.86369
C    -0.62806  -2.05508  -2.73489
C    -0.90519  -1.89976   0.18239
O    -0.72957  -3.10089   0.05961
C    -1.81335  -1.33956   1.20168
C    -2.14131  -2.24636   2.34603
C    -2.38208  -0.12053   1.00075
C    -3.41651   0.47562   1.90580
C    -2.10262   0.59550  -0.27221
O    -2.98324   1.18555  -0.87055
C    -0.68595   0.51202  -0.86184
O    -0.67024   0.84138  -2.21012
C    -0.78626   2.22207  -2.57001
H    -0.57627   5.32526   0.64638
H     0.44214   5.00305   2.07484
H     1.16797   5.72744   0.60807
H     1.61130   3.55236  -0.06553
H     3.08968  -2.12849  -0.55069
H     3.94579  -3.32979   1.87692
H     2.58993  -4.32532   1.28433
H     4.03632  -4.08575   0.25791
H    -0.84239  -3.10198  -2.47647
H    -0.21928  -2.00349  -3.75269
H    -1.55647  -1.46782  -2.69349
H    -1.21332  -2.66076   2.76875
H    -2.74466  -3.10067   1.99660
H    -2.69517  -1.72791   3.13710
H    -2.96925   0.70508   2.88636
H    -4.24765  -0.22493   2.08056
H    -3.82101   1.40172   1.48095
H    -1.54742   2.74266  -1.97491
H    -1.08920   2.23930  -3.62534
H     0.18349   2.73304  -2.47006
