22
Generated by autodE on: 2022-06-24. E = -757.542576 Ha
C    -4.90160   0.27751   0.05246
N    -3.47990   0.46793   0.26508
C    -2.54829  -0.31447  -0.29338
O    -2.72932  -1.28310  -1.02515
C    -1.14193   0.08264   0.04922
O    -0.78786   1.07100   0.79347
C     0.72990   1.08555   0.83250
O     1.30138   1.93103   1.47517
C     1.03024  -0.00870   0.02242
C     2.29170  -0.60907  -0.40274
O     2.32181  -1.59151  -1.15649
N     3.40299  -0.01504   0.08520
C     4.72447  -0.50292  -0.25410
O    -0.14960  -0.58434  -0.43047
H    -5.42913   0.27303   1.01703
H    -5.31579   1.08597  -0.57047
H    -5.06398  -0.68077  -0.45371
H    -3.17651   1.25097   0.83937
H     3.31030   0.79068   0.69686
H     5.47051   0.10159   0.27562
H     4.85034  -1.55689   0.04072
H     4.91662  -0.43095  -1.33695
