26
Generated by autodE on: 2022-06-24. E = -689.460862 Ha
C    -2.84765   1.81547  -0.36341
O    -1.47281   1.93746   0.01603
C    -0.62218   0.91205  -0.01585
C    -0.83354  -0.37231  -0.42035
O    -2.02614  -0.81167  -0.92030
C    -2.78757  -1.66211  -0.05626
C     0.27337  -1.35261  -0.40115
O     0.07640  -2.49545  -0.81052
C     1.61925  -0.94367   0.10280
C     2.69634  -1.98154   0.12734
C     1.84187   0.33205   0.50569
C     3.17867   0.78931   1.00214
C     0.74270   1.33028   0.46414
O     0.91250   2.48782   0.82166
H    -3.27447   2.81697  -0.22535
H    -3.37364   1.10033   0.28490
H    -2.94210   1.51152  -1.41385
H    -3.71013  -1.91265  -0.59660
H    -2.24039  -2.58678   0.18002
H    -3.04311  -1.13684   0.87903
H     3.09682  -2.10233   1.14739
H     2.32241  -2.94990  -0.22475
H     3.54475  -1.67650  -0.50777
H     3.48458   0.20873   1.88815
H     3.95499   0.62739   0.23639
H     3.16195   1.85286   1.26740
