48
Generated by autodE on: 2022-06-24. E = -1447.003314 Ha. Imaginary frequency = -336.8 cm-1
C     0.19551   4.90141   0.88927
N     0.69837   3.61858   0.43165
C     0.45182   2.49652   1.11344
O    -0.09746   2.41640   2.21037
C     0.85870   1.22889   0.41254
O     1.86586   1.20123  -0.47691
C     2.26054  -0.16476  -0.62314
O     3.05793  -0.49413  -1.46313
C     1.47318  -0.83655   0.36672
C     1.57086  -2.22951   0.81396
O     2.12709  -3.07523   0.09951
N     0.99988  -2.51503   1.99851
C     0.89256  -3.88136   2.47198
O     0.85931   0.11334   1.14397
C    -0.42979  -0.47643  -1.35907
O     0.15547  -0.57494  -2.53734
C     0.65479  -1.80875  -3.09473
C    -1.04417  -1.63520  -0.64205
O    -0.94428  -2.77819  -1.07466
C    -1.81431  -1.34899   0.60011
C    -2.22340  -2.52469   1.43270
C    -2.19081  -0.08229   0.92319
C    -2.99537   0.22724   2.14480
C    -1.83667   1.05360   0.03488
O    -2.38476   2.14624   0.11852
C    -0.71830   0.85578  -0.92877
O    -0.45796   1.87985  -1.80014
C    -1.40849   2.05825  -2.86006
H     0.39798   5.02437   1.96152
H     0.69851   5.70138   0.33325
H    -0.89246   4.97717   0.72769
H     1.02481   3.53255  -0.52749
H     0.51674  -1.77864   2.50374
H     0.22848  -3.90155   3.34392
H     0.47832  -4.53329   1.68796
H     1.87552  -4.28306   2.76580
H     1.22478  -2.36730  -2.34461
H     1.30702  -1.49587  -3.91845
H    -0.17534  -2.41601  -3.47480
H    -1.74124  -3.44680   1.09045
H    -1.97451  -2.35641   2.49143
H    -3.31652  -2.66669   1.38244
H    -3.26298   1.28969   2.18020
H    -3.91586  -0.37703   2.17867
H    -2.41600  -0.02188   3.04965
H    -2.39181   2.34500  -2.45876
H    -1.50428   1.14250  -3.46271
H    -1.01907   2.86937  -3.48861
