40
Generated by autodE on: 2022-06-20. E = -915.421704 Ha
C    -2.25159  -0.53383   2.10797
C    -2.36607  -0.56252   0.61790
O    -3.40609  -0.32844   0.03020
C    -1.09766  -0.89473  -0.22112
C    -1.57196  -1.37968  -1.53587
N    -1.89103  -1.81725  -2.56304
N    -0.16894  -1.81840   0.40056
C     1.22741  -1.43178   0.09892
C     1.65827  -1.83185  -1.32442
C     2.15126  -2.12835   1.09706
C     1.12025   0.12808   0.26001
C     2.21810   0.88787  -0.51205
N     3.45136   0.87271   0.02149
O     1.98321   1.47540  -1.57293
C     1.10724   0.55796   1.74449
C     0.53532   1.93547   1.89421
C    -0.39660   2.38453   1.03063
N    -0.90276   1.64425  -0.02300
C    -1.64585   2.31787  -1.07420
C    -0.23641   0.42325  -0.42539
H    -3.25222  -0.42605   2.54537
H    -1.75557  -1.44218   2.47489
H    -1.62945   0.32317   2.41239
H    -0.35767  -2.79308   0.17181
H     1.07950  -1.32721  -2.10941
H     1.52694  -2.91746  -1.45147
H     2.72075  -1.59978  -1.48929
H     3.19923  -1.83319   0.94304
H     2.09025  -3.21717   0.94330
H     1.87003  -1.91853   2.13671
H     4.20139   1.34708  -0.47204
H     3.66746   0.39722   0.88831
H     0.51309  -0.18013   2.30622
H     2.11705   0.50559   2.17321
H     0.84960   2.57250   2.72221
H    -0.83705   3.37997   1.13033
H    -2.21788   3.15294  -0.64665
H    -2.35842   1.61999  -1.53809
H    -0.97987   2.71260  -1.86501
H    -0.03379   0.50494  -1.49812
