40
Generated by autodE on: 2022-06-20. E = -915.389412 Ha. Imaginary frequency = -361.4 cm-1
C    -3.71833  -0.41218   0.23071
C    -2.35039  -0.74798   0.77885
O    -2.09943  -0.53688   1.98902
C    -1.37027  -1.33471  -0.08100
C    -1.66382  -1.65812  -1.41898
N    -1.92362  -1.88377  -2.54008
N    -0.19944  -1.79985   0.55103
C     1.07747  -1.56228   0.10682
C     1.38462  -1.91994  -1.32904
C     2.12524  -2.03523   1.08615
C     1.20463   0.50878   0.14162
C     2.45508   0.74658  -0.65648
N     3.62854   0.77186   0.01163
O     2.42330   0.90927  -1.88761
C     1.15895   0.84983   1.63324
C     0.49001   2.16736   1.88811
C    -0.47019   2.60513   1.06327
N    -0.75494   1.92836  -0.13905
C    -1.92114   2.35744  -0.90645
C     0.04941   0.96950  -0.59257
H    -3.72775  -0.25965  -0.85612
H    -4.09893   0.48639   0.73628
H    -4.40762  -1.24221   0.46349
H    -0.31378  -1.73404   1.56306
H     0.78320  -1.37117  -2.06067
H     1.18449  -2.99573  -1.46355
H     2.44423  -1.74474  -1.54909
H     3.10910  -1.61556   0.84695
H     2.20435  -3.13280   1.01571
H     1.86001  -1.78056   2.12200
H     3.70164   0.60211   1.00617
H     4.47956   0.92076  -0.52056
H     2.15212   0.82286   2.09811
H     0.56727   0.07603   2.15948
H     0.73244   2.74037   2.78523
H    -1.05552   3.51061   1.22452
H    -2.00513   1.74826  -1.81320
H    -2.82940   2.23792  -0.30096
H    -1.81687   3.41727  -1.18253
H    -0.07934   0.70313  -1.64075
