62
Generated by autodE on: 2022-06-13. E = -1582.378528 Ha
C    -4.81048   3.99705   5.49556
N    -3.76523   4.11482   4.49895
C    -3.82868   4.95810   3.46570
O    -4.77514   5.71418   3.22576
C    -2.61925   4.91275   2.50780
C    -1.97926   6.31944   2.25030
C    -2.03450   7.30832   3.36799
O    -1.38903   6.50409   1.20608
O    -1.56396   4.18382   3.11202
C    -1.08792   3.14247   2.24682
C     0.34114   3.50731   1.82724
C    -1.06674   1.93792   3.11188
N    -1.01157   1.09584   3.90703
C    -2.11144   3.09328   1.09422
C    -2.92651   4.15811   1.22005
C    -4.04966   4.69045   0.30700
C    -4.23642   6.15550   0.47050
N    -4.44097   7.29580   0.47844
C    -3.72075   4.59882  -1.13192
N    -3.52418   4.60228  -2.27349
C    -5.46046   4.04651   0.60980
C    -5.71715   2.62915   0.11225
C    -4.65738   1.58056   0.45641
C    -3.46694   1.60193  -0.52557
C    -2.05077   2.01034   0.00834
C    -1.24188   2.59850  -1.18781
O    -0.67645   3.69204  -1.12413
N    -1.21150   1.84695  -2.29991
C    -0.50071   2.28466  -3.48621
C    -1.33435   0.73477   0.51334
C    -2.05471  -0.27151   1.17719
C    -1.41939  -1.42127   1.64672
C    -0.04621  -1.59705   1.45662
C     0.67985  -0.61633   0.77808
C     0.03948   0.53279   0.30708
H    -5.74093   4.41700   5.09479
H    -4.54848   4.53970   6.41829
H    -4.96950   2.93890   5.74556
H    -2.90393   3.58800   4.61254
H    -1.34973   8.14264   3.17164
H    -3.06703   7.68070   3.45803
H    -1.78575   6.81256   4.31979
H     0.92700   3.68668   2.73985
H     0.30235   4.42114   1.22428
H     0.81734   2.70995   1.24998
H    -5.57456   4.09795   1.69822
H    -6.21311   4.71965   0.17493
H    -5.87420   2.63770  -0.97919
H    -6.68249   2.33647   0.55521
H    -5.13012   0.58907   0.40255
H    -4.33231   1.70585   1.50041
H    -3.35161   0.60524  -0.97044
H    -3.72339   2.25049  -1.36771
H    -1.64201   0.92908  -2.29670
H    -0.88945   3.25306  -3.83739
H     0.57752   2.39989  -3.28935
H    -0.63924   1.53770  -4.27732
H    -3.12128  -0.15805   1.36029
H    -2.00337  -2.18150   2.17047
H     0.45235  -2.49597   1.82645
H     1.75089  -0.74357   0.60508
H     0.62980   1.27226  -0.23489
