39
Generated by autodE on: 2022-06-13. E = -935.970005 Ha
C     2.15857   3.73240   1.12378
N     1.36470   2.55571   0.82386
C     1.92137   1.34152   0.70029
O     3.13498   1.14894   0.80164
C     0.93934   0.16586   0.47037
C     0.47245  -0.33633   1.84824
C     1.43579  -0.67760   2.81133
C     1.04848  -1.16692   4.05983
C    -0.30767  -1.32420   4.36591
C    -1.27057  -0.98453   3.41327
C    -0.88312  -0.49263   2.16208
C    -0.17643   0.53087  -0.39566
C    -1.02098   0.48604  -1.26148
C    -1.71655  -0.13704  -2.39532
C    -3.18047   0.05092  -2.33789
N    -4.33144   0.16553  -2.27233
C    -1.21893   0.42872  -3.66868
N    -0.79870   0.84279  -4.66583
C    -1.38436  -1.68019  -2.33116
C     0.11271  -2.01761  -2.21969
C     0.75764  -2.12498  -0.80987
C     1.66139  -0.97490  -0.32492
H     2.96219   3.86221   0.38320
H     2.62278   3.65925   2.12066
H     1.50786   4.61471   1.10024
H     0.35639   2.64682   0.75009
H     2.49575  -0.55417   2.58367
H     1.81157  -1.42673   4.79733
H    -0.61053  -1.70903   5.34248
H    -2.33294  -1.10246   3.63964
H    -1.64507  -0.23294   1.42600
H    -1.93943  -2.07646  -1.46817
H    -1.81193  -2.12898  -3.23956
H     0.69897  -1.33157  -2.85447
H     0.21262  -3.00492  -2.69498
H    -0.01937  -2.33687  -0.05630
H     1.39664  -3.02055  -0.82741
H     2.44352  -1.37384   0.33508
H     2.17538  -0.51646  -1.18371
