23
Generated by autodE on: 2022-07-27. E = -646.281342 Ha
C    -2.02205  -0.35506   3.17116
N    -1.18957  -0.38790   1.98677
C    -1.06997   0.69609   1.18696
O    -1.63736   1.76811   1.45409
C    -0.21022   0.54208  -0.00413
O     0.25947  -0.72131  -0.14900
C     1.34145  -1.11091  -0.75341
C     2.42883  -0.22339  -1.17687
C     1.45445  -2.52800  -0.82090
N     1.57615  -3.68367  -0.90501
C    -0.13734   1.45111  -1.12712
C    -0.60724   2.87463  -0.97044
O     0.25294   1.03661  -2.23248
H    -1.66805   0.40047   3.89120
H    -1.99064  -1.34030   3.65195
H    -3.06866  -0.11596   2.92253
H    -0.70153  -1.24335   1.74891
H     3.36617  -0.78718  -1.26504
H     2.18764   0.27825  -2.13286
H     2.51799   0.58979  -0.43088
H    -0.34908   3.42031  -1.88810
H    -1.69630   2.90593  -0.81864
H    -0.14902   3.35592  -0.09541
