62
Generated by autodE on: 2022-06-13. E = -1582.254906 Ha. Imaginary frequency = -228.7 cm-1
C    -3.70761   4.24896   5.87066
N    -2.76518   4.33003   4.77262
C    -2.92422   5.21930   3.77515
O    -3.83579   6.05990   3.76049
C    -1.97132   5.12593   2.63382
C    -1.73789   6.29041   1.72038
C    -2.00176   7.67826   2.24893
O    -1.34019   6.13428   0.57257
O    -1.13884   4.10973   2.76699
C    -0.26212   3.49297   2.01302
C     0.65762   4.15993   1.05479
C     0.14528   2.25927   2.61079
N     0.49827   1.25455   3.08218
C    -2.42737   2.87482   0.56655
C    -3.20784   3.73078   0.98183
C    -4.62694   4.17830   0.99167
C    -4.75987   5.63004   0.76241
N    -4.87544   6.75425   0.50980
C    -5.26730   3.81648   2.27664
N    -5.80473   3.44498   3.23279
C    -5.39927   3.41411  -0.15186
C    -5.29415   1.88370  -0.00913
C    -4.49226   1.14511  -1.09217
C    -3.07933   1.62748  -1.43539
C    -2.04232   1.70898  -0.25707
C    -0.61536   1.94620  -0.84414
O     0.35406   1.27968  -0.47980
N    -0.53234   2.92790  -1.75917
C     0.71155   3.34212  -2.37830
C    -2.07571   0.41356   0.55668
C    -2.49432   0.38544   1.89131
C    -2.56391  -0.82312   2.59256
C    -2.21983  -2.02102   1.96435
C    -1.80481  -2.00241   0.62749
C    -1.73524  -0.79589  -0.06960
H    -3.87014   5.24140   6.31659
H    -3.30084   3.57791   6.63694
H    -4.68257   3.86017   5.53563
H    -2.01930   3.64617   4.70577
H    -1.37715   8.37590   1.67390
H    -3.05725   7.93664   2.07925
H    -1.79998   7.76981   3.32383
H     1.34393   3.41705   0.63444
H     0.11701   4.68616   0.26099
H     1.24375   4.91708   1.60706
H    -6.44443   3.75138  -0.11028
H    -4.97408   3.77208  -1.09994
H    -4.88875   1.62813   0.98119
H    -6.31254   1.46741  -0.01742
H    -5.06180   1.18270  -2.03622
H    -4.45204   0.08229  -0.80637
H    -2.66241   0.94346  -2.19038
H    -3.13900   2.61708  -1.91117
H    -1.35877   3.48653  -1.94396
H     1.45273   2.54205  -2.26576
H     0.55081   3.53383  -3.44890
H     1.10938   4.25933  -1.91459
H    -2.76184   1.31388   2.39714
H    -2.88813  -0.82220   3.63589
H    -2.27377  -2.96568   2.51061
H    -1.53358  -2.93369   0.12444
H    -1.41037  -0.79485  -1.11132
