52
Generated by autodE on: 2022-06-13. E = -1135.338489 Ha
C    -0.74276   0.81821  -3.38501
O    -0.67775   0.85704  -1.95458
C    -1.04357  -0.25484  -1.29857
O    -1.48307  -1.22329  -1.88312
C    -0.79241  -0.11002   0.19135
C    -1.37832   1.24042   0.71485
C    -2.87547   1.31571   0.32018
C    -3.56280   0.32250   1.29969
C    -2.36889  -0.24356   2.08942
C    -1.48317   1.00338   2.22831
C    -1.50450  -1.15310   1.15704
C    -2.29046  -2.34092   0.59327
C    -0.33270  -1.67603   1.93791
N     0.83652  -1.28757   1.62577
C     0.79683  -0.36194   0.48073
C     1.57656   0.90774   0.84350
C     2.38018   0.93964   1.99353
C     3.11937   2.07848   2.32945
C     3.07454   3.21397   1.51836
C     2.28204   3.19558   0.36686
C     1.54416   2.05752   0.03429
C     1.45687  -1.10341  -0.71014
C     2.22402  -0.45042  -1.68608
C     2.74020  -1.14478  -2.78491
C     2.50976  -2.51427  -2.92871
C     1.75819  -3.18146  -1.95768
C     1.24098  -2.48369  -0.86497
H    -0.37868   1.79280  -3.73010
H    -0.10157   0.01382  -3.77363
H    -1.77742   0.65837  -3.72057
H    -0.81164   2.11905   0.40273
H    -3.05602   1.06658  -0.73537
H    -3.23958   2.34249   0.47112
H    -4.24439   0.84721   1.98567
H    -4.14902  -0.45161   0.78777
H    -2.64501  -0.76024   3.01956
H    -0.51883   0.82318   2.72108
H    -1.99198   1.83156   2.74412
H    -3.10163  -2.02483  -0.07234
H    -2.73224  -2.89903   1.43478
H    -1.64425  -3.02623   0.03016
H    -0.48640  -2.38551   2.76223
H     2.42620   0.05904   2.63126
H     3.73407   2.07254   3.23304
H     3.65049   4.10501   1.77943
H     2.23420   4.07397  -0.28135
H     0.93195   2.06713  -0.86525
H     2.42882   0.61462  -1.60422
H     3.33098  -0.60520  -3.52905
H     2.91450  -3.05718  -3.78608
H     1.56915  -4.25379  -2.04898
H     0.65414  -3.02809  -0.12654
