26
Generated by autodE on: 2022-06-13. E = -595.065666 Ha
C     0.20872  -0.99273   3.15288
N     0.14601  -0.52165   2.02549
C     0.05979  -0.18517   0.78245
C     1.31638   0.00998   0.02289
C     2.47795  -0.69878   0.38682
C     3.67394  -0.51002  -0.30529
C     3.73730   0.39400  -1.37158
C     2.59294   1.11144  -1.73395
C     1.39297   0.92417  -1.04533
C    -1.29323  -0.03227   0.20180
C    -2.38678   0.29087   1.02966
C    -3.67426   0.39371   0.50331
C    -3.89873   0.17701  -0.86061
C    -2.82210  -0.15142  -1.69060
C    -1.53198  -0.25724  -1.16820
H     0.23068  -0.30041   4.01660
H     2.43827  -1.40589   1.21849
H     4.56223  -1.07479  -0.01221
H     4.67436   0.54178  -1.91328
H     2.63414   1.82942  -2.55656
H     0.51475   1.50531  -1.32891
H    -2.22091   0.46994   2.09419
H    -4.50737   0.65109   1.16174
H    -4.90667   0.26163  -1.27318
H    -2.98719  -0.33554  -2.75489
H    -0.70825  -0.53633  -1.82593
