52
Generated by autodE on: 2022-06-13. E = -1135.263307 Ha. Imaginary frequency = -233.3 cm-1
C    -0.44376   0.58556  -3.35853
O    -0.78405   0.77934  -1.98633
C    -1.18816  -0.32752  -1.29691
O    -1.28637  -1.41460  -1.86753
C    -1.46285  -0.04854   0.08905
C    -1.60127   1.34550   0.69198
C    -3.12724   1.66710   0.64129
C    -3.72081   0.63853   1.65025
C    -2.45284  -0.10567   2.18617
C    -1.43291   1.04544   2.19380
C    -1.95443  -0.95761   1.02146
C    -2.53338  -2.31630   0.75894
C    -0.00132  -1.81177   1.96500
N     0.93148  -1.38126   1.31640
C     1.51540  -0.65096   0.40103
C     1.89674   0.72406   0.80048
C     2.29138   0.99020   2.12534
C     2.58486   2.29139   2.53540
C     2.49279   3.35299   1.62983
C     2.09872   3.09990   0.31162
C     1.80247   1.80066  -0.10229
C     1.89972  -1.28625  -0.86897
C     2.80124  -0.67247  -1.76351
C     3.12235  -1.27678  -2.97893
C     2.56502  -2.51182  -3.32688
C     1.69245  -3.14502  -2.43522
C     1.36441  -2.54337  -1.22239
H    -0.12966   1.56673  -3.73619
H     0.38084  -0.13472  -3.46572
H    -1.31014   0.22560  -3.93444
H    -0.95503   2.11885   0.26273
H    -3.52952   1.55361  -0.37595
H    -3.31765   2.70191   0.96693
H    -4.23558   1.14223   2.48223
H    -4.43761  -0.05546   1.18768
H    -2.61258  -0.65595   3.12307
H    -0.41926   0.73168   2.47038
H    -1.73899   1.88711   2.83421
H    -3.54657  -2.21009   0.32925
H    -2.62787  -2.89276   1.69127
H    -1.93476  -2.88811   0.04063
H     0.06199  -2.46230   2.84932
H     2.36963   0.16634   2.83753
H     2.89151   2.47557   3.56778
H     2.72352   4.37174   1.94959
H     2.00728   3.92351  -0.40051
H     1.45163   1.62568  -1.11814
H     3.26379   0.27937  -1.50628
H     3.82049  -0.77989  -3.65674
H     2.81700  -2.98212  -4.28010
H     1.25748  -4.11455  -2.68928
H     0.68057  -3.04816  -0.53958
