36
Generated by autodE on: 2022-06-02. E = -1512.425848 Ha
C     3.58600   0.49434   1.68748
C     2.72994   0.99876   0.56681
O     2.87983   2.08349   0.04127
C     1.66871   0.03185  -0.00739
C     2.37247  -0.68836  -1.16753
O     1.36150  -0.92920   1.02743
C     0.06974  -1.44411   0.87032
C    -0.41481  -1.90728   2.19086
N    -0.78952  -2.29831   3.21363
C     0.10864  -2.66583   0.01481
N     0.20810  -3.65000  -0.58680
C    -0.78981  -0.25296   0.30182
C    -1.98397  -0.78994  -0.51371
F    -1.63655  -1.40549  -1.64898
F    -2.61965  -1.70901   0.24870
F    -2.87296   0.15157  -0.82319
C    -1.41638   0.70589   1.42636
C    -0.39442   1.01026   2.50666
C     0.45879   1.87400   1.94608
C    -0.03276   2.05034   0.52214
O    -1.44284   1.91181   0.67696
C     0.28678   0.71623  -0.32497
C     0.12312   1.09910  -1.80904
F     1.09536   1.95064  -2.17463
F     0.17594   0.06238  -2.65669
F    -1.04444   1.72079  -2.03196
H     4.36162   1.23596   1.91564
H     2.96387   0.30640   2.57523
H     4.04536  -0.46748   1.41085
H     3.24664  -1.21389  -0.76010
H     1.71727  -1.41917  -1.65321
H     2.71776   0.03454  -1.91646
H    -2.41231   0.39566   1.75589
H    -0.38449   0.58488   3.50769
H     1.33745   2.34473   2.38066
H     0.23463   2.97472   0.00510
