19
Generated by autodE on: 2022-06-02. E = -981.905259 Ha
F    -1.86845  -1.55211  -0.34826
C    -0.61910  -1.75510   0.09527
F    -0.19525  -2.92175  -0.42509
F    -0.68973  -1.92626   1.43007
C     0.31253  -0.64462  -0.26670
C     0.15749   0.68145  -0.25042
C    -0.99143   1.55971   0.10289
F    -0.57504   2.54554   0.92373
F    -1.98753   0.91436   0.72561
F    -1.51463   2.15151  -0.98649
C     1.56653   1.25277  -0.57615
C     2.44777   0.95777   0.65758
C     2.60697  -0.36811   0.65227
C     1.82130  -0.85507  -0.58497
O     2.02516   0.24344  -1.48366
H     1.59695   2.25867  -1.00636
H     2.78536   1.70453   1.37455
H     3.11383  -1.01878   1.36334
H     2.09453  -1.81864  -1.02449
