36
Generated by autodE on: 2022-06-02. E = -1512.332496 Ha. Imaginary frequency = -252.9 cm-1
C     3.47900   0.67299   1.93411
C     3.03802   0.69580   0.50045
O     3.52862   1.42962  -0.33883
C     2.01533  -0.31950   0.04970
C     2.15995  -0.93196  -1.29049
O     1.42002  -0.91063   1.05094
C     0.36886  -1.75202   1.00399
C    -0.20386  -2.03933   2.27765
N    -0.71631  -2.29142   3.29160
C     0.30460  -2.82131   0.06057
N     0.20865  -3.74055  -0.64645
C    -1.05219   0.08481   0.16633
C    -2.03449  -0.82145  -0.52083
F    -1.56021  -1.44100  -1.60644
F    -2.49726  -1.77423   0.31368
F    -3.10779  -0.10109  -0.90950
C    -1.58737   0.81143   1.46106
C    -0.44704   0.98700   2.46332
C     0.35831   1.89791   1.90910
C    -0.29132   2.24331   0.57929
O    -1.69000   2.14000   0.91967
C    -0.18436   1.00534  -0.38799
C     0.01366   1.36610  -1.82981
F     1.18569   1.99940  -2.02607
F    -0.03549   0.34127  -2.68997
F    -0.95334   2.23399  -2.21114
H     3.96069   1.62701   2.18364
H     2.66664   0.44305   2.63240
H     4.22726  -0.13499   2.02575
H     2.87422  -1.77112  -1.18870
H     1.22835  -1.32299  -1.70482
H     2.59600  -0.19496  -1.97301
H    -2.54320   0.43490   1.83647
H    -0.33890   0.44535   3.39953
H     1.30025   2.30516   2.26865
H    -0.04345   3.20650   0.12415
