57
Generated by autodE on: 2022-06-24. E = -1321.394685 Ha
C    -2.27957   2.31442   2.64552
O    -1.44795   1.97095   1.52864
C    -2.05496   1.84885   0.34909
O    -3.22376   2.14135   0.17299
C    -1.17762   1.28628  -0.76637
C    -1.48758  -0.21966  -1.07178
C    -0.38123  -0.94930  -0.29862
C    -0.71285  -1.06829   1.20231
C    -2.19017  -1.18364   1.48461
C    -2.68108  -1.38239   2.85425
N    -1.73720  -1.47999   3.82628
O    -3.89369  -1.44478   3.14999
C    -3.11971  -1.01127   0.50143
N    -2.81969  -0.69321  -0.78277
C    -3.86192  -0.37762  -1.74438
C     0.85672  -0.04225  -0.57552
C     1.50472  -0.29936  -1.95871
C     0.97555  -1.17032  -2.92320
C     1.59564  -1.33916  -4.16670
C     2.76375  -0.64029  -4.47568
C     3.31476   0.21848  -3.51937
C     2.69605   0.37738  -2.27838
C     1.92330  -0.24902   0.50704
C     2.07926   0.64181   1.57585
C     3.01956   0.39331   2.58213
C     3.81020  -0.75759   2.53972
C     3.65267  -1.66005   1.48162
C     2.72076  -1.40354   0.47390
N     0.23799   1.29583  -0.48866
C     0.94441   2.49573  -0.86596
H    -3.09636   1.58472   2.74514
H    -2.70050   3.32236   2.52007
H    -1.62989   2.28011   3.52740
H    -1.44004   1.88518  -1.65659
H    -1.32776  -0.34408  -2.14736
H    -0.23009  -1.95298  -0.71209
H    -0.17591  -1.94382   1.60298
H    -0.31258  -0.20091   1.74467
H    -0.74685  -1.39224   3.63810
H    -2.04244  -1.56845   4.78896
H    -4.18069  -1.12419   0.73154
H    -4.80552  -0.84059  -1.42708
H    -3.59456  -0.77446  -2.73597
H    -4.01684   0.71036  -1.83434
H     0.07566  -1.74936  -2.71956
H     1.15976  -2.02937  -4.89320
H     3.24737  -0.77149  -5.44656
H     4.23838   0.76114  -3.73559
H     3.16410   1.02368  -1.53549
H     1.44662   1.52755   1.62608
H     3.12920   1.10377   3.40531
H     4.54357  -0.95270   3.32586
H     4.25987  -2.56771   1.44028
H     2.60833  -2.11202  -0.34968
H     1.03228   2.63648  -1.96291
H     0.41104   3.36969  -0.45793
H     1.95709   2.50695  -0.44084
