20
Generated by autodE on: 2022-06-24. E = -457.715337 Ha
C    -3.11815  -0.59999   0.13264
N    -1.81977   0.05055   0.19643
C    -1.75034   1.43576   0.39032
C    -0.58982   2.11049   0.38784
C     0.74886   1.44751   0.17583
C     0.57238  -0.04489  -0.05191
C     1.72852  -0.92108  -0.29928
N     2.94257  -0.31517  -0.31077
O     1.63254  -2.15063  -0.49063
C    -0.65981  -0.62716  -0.03057
H    -2.97628  -1.68675   0.08271
H    -3.71376  -0.36552   1.02861
H    -3.68753  -0.27813  -0.75569
H    -2.71264   1.92658   0.54709
H    -0.61608   3.19021   0.55177
H     1.27523   1.91917  -0.67910
H     1.41044   1.63940   1.04557
H     3.76635  -0.88104  -0.48243
H     3.05952   0.67924  -0.16304
H    -0.75922  -1.70081  -0.19786
