37
Generated by autodE on: 2022-07-28. E = -863.620421 Ha
C    -2.37439  -0.70592   2.48549
O    -2.04358  -0.14852   1.21854
C    -2.30298   1.18018   1.04335
O    -2.99944   1.80190   1.85976
C    -1.77466   1.74485  -0.14442
N    -0.85760   1.16521  -1.00195
C    -1.01103   1.59200  -2.40855
C     0.12787   0.33280  -0.64852
C     0.74450  -0.56159  -1.64396
C    -0.04065  -1.29657  -2.55471
C     0.55806  -2.16072  -3.47186
C     1.94842  -2.31050  -3.49551
C     2.73788  -1.59604  -2.58676
C     2.14331  -0.73668  -1.66418
C     0.62222   0.26992   0.74180
C     0.83680   1.44091   1.49482
C     1.34543   1.36568   2.78867
C     1.63635   0.12108   3.36545
C     1.43557  -1.04514   2.62391
C     0.94051  -0.97106   1.31984
H    -3.45840  -0.66624   2.67340
H    -1.85119  -0.17712   3.29777
H    -2.04278  -1.75153   2.45792
H    -2.14600   2.72446  -0.43770
H    -1.86558   1.08220  -2.87113
H    -1.20785   2.67231  -2.40324
H    -0.09583   1.39465  -2.97362
H    -1.12763  -1.20573  -2.52829
H    -0.06637  -2.72819  -4.16583
H     2.41546  -2.98753  -4.21444
H     3.82438  -1.70937  -2.59798
H     2.76342  -0.18168  -0.95802
H     0.60127   2.41478   1.06256
H     1.51891   2.28412   3.35445
H     2.02293   0.06598   4.38569
H     1.66227  -2.02015   3.06153
H     0.77731  -1.88606   0.74813
