49
Generated by autodE on: 2022-06-24. E = -1128.555789 Ha
C     2.95795   1.46756   1.97478
C     1.47561   1.24640   1.82337
O     0.77555   1.07952   2.80883
C     0.84835   1.34628   0.40323
C     1.43063   2.59614  -0.28470
C     1.13204   0.09604  -0.50407
N     2.41198  -0.54013  -0.35129
C     3.39569  -0.38305  -1.40538
C     2.55190  -1.52724   0.59570
C     1.52190  -2.02978   1.31173
C     0.10090  -1.59916   1.08993
C    -0.09457  -0.82980  -0.24894
C    -0.29635  -1.78635  -1.42517
N     0.53380  -2.83984  -1.47683
O    -1.14557  -1.58097  -2.30041
C    -1.25223   0.21820  -0.13504
C    -2.37408  -0.43376   0.71485
C    -2.76384   0.16536   2.03432
O    -2.89965  -1.45364   0.29972
C    -1.79561   0.68176  -1.54004
C    -3.25165   0.52355  -1.87645
O    -1.06010   1.35347  -2.24545
N    -0.60705   1.34733   0.51072
C    -1.29569   2.61705   0.58393
H     3.53054   1.08909   1.12026
H     3.30229   1.00890   2.91107
H     3.13333   2.55514   2.03845
H     2.50308   2.46043  -0.47569
H     0.92844   2.74973  -1.24839
H     1.30574   3.50038   0.32794
H     1.06037   0.45915  -1.53481
H     3.13748  -0.96603  -2.30958
H     3.48899   0.67458  -1.69184
H     4.37577  -0.72666  -1.04414
H     3.57360  -1.88981   0.73779
H     1.72566  -2.77415   2.08315
H    -0.56776  -2.47249   1.10723
H    -0.22497  -0.95489   1.92074
H     0.43518  -3.50252  -2.23999
H     1.20496  -3.02345  -0.73423
H    -1.89921   0.59795   2.55196
H    -3.48317   0.98179   1.85208
H    -3.25987  -0.60085   2.64466
H    -3.84519   1.08266  -1.13250
H    -3.57042  -0.52304  -1.82778
H    -3.43801   0.94145  -2.87429
H    -2.37009   2.45704   0.74121
H    -1.19316   3.23893  -0.32501
H    -0.92446   3.20130   1.44060
