29
Generated by autodE on: 2022-06-24. E = -670.821680 Ha
C     2.94588   0.86281   1.10483
C     1.55108   0.31239   1.16347
O     0.70376   0.73384   1.93027
C     1.24643  -0.93465   0.35202
C     2.24654  -2.03689   0.34071
N     0.08056  -1.07052  -0.21861
C    -0.25537  -2.35010  -0.87077
C    -0.78372   0.04581  -0.47362
C    -0.13870   1.18600  -1.05244
C    -0.96512   2.31945  -1.61220
O     1.11108   1.28041  -1.09334
C    -2.16085  -0.03198  -0.07162
C    -2.57716  -1.17951   0.83655
O    -3.01689   0.81878  -0.38180
H     3.52810   0.42401   1.93332
H     2.90331   1.94932   1.25933
H     3.44994   0.62885   0.15920
H     1.82576  -2.93722   0.81746
H     3.15962  -1.75377   0.87482
H     2.50695  -2.31106  -0.69500
H    -1.23586  -2.26030  -1.34355
H    -0.26033  -3.16388  -0.13406
H     0.49027  -2.56981  -1.64831
H    -1.47700   2.84692  -0.79199
H    -1.74803   1.96628  -2.29604
H    -0.28993   3.01734  -2.12612
H    -1.77450  -1.49477   1.51800
H    -3.44916  -0.85346   1.42003
H    -2.88319  -2.05356   0.23916
