20
Generated by autodE on: 2022-06-24. E = -457.715329 Ha
C    -3.14307  -0.38890   0.23728
N    -1.72882  -0.60246  -0.02271
C    -1.32720  -1.69762  -0.79796
C    -0.05051  -1.90001  -1.15998
C     1.07398  -0.97180  -0.77163
C     0.54022   0.19934   0.03701
C     1.43248   1.26277   0.52618
N     2.74493   1.13579   0.20589
O     1.03690   2.23809   1.19673
C    -0.78309   0.30712   0.34480
H    -3.60026  -1.30001   0.65269
H    -3.68805  -0.11641  -0.68268
H    -3.25957   0.42265   0.96652
H    -2.13200  -2.37740  -1.08349
H     0.18604  -2.78187  -1.75979
H     1.84659  -1.52753  -0.20117
H     1.60421  -0.61782  -1.67936
H     3.10676   0.35687  -0.32923
H     3.39324   1.84543   0.52900
H    -1.13935   1.16009   0.92461
