49
Generated by autodE on: 2022-06-24. E = -1128.484774 Ha. Imaginary frequency = -273.2 cm-1
C     2.35483   1.04693   2.37289
C     0.97096   1.05911   1.77017
O     0.04155   0.53117   2.41335
C     0.76705   1.67894   0.47518
C     1.76379   2.70628   0.00942
C     1.40750  -0.23322  -0.67282
N     2.67782  -0.63981  -0.36157
C     3.84008   0.07300  -0.87779
C     2.86846  -1.77834   0.41997
C     1.84005  -2.45109   0.96679
C     0.41910  -1.97659   0.83589
C     0.27633  -1.08417  -0.38490
C    -0.40298  -1.74553  -1.54201
N    -0.09178  -1.32707  -2.79579
O    -1.17483  -2.70393  -1.37867
C    -1.32689   0.58555  -0.04984
C    -1.96260   0.22458   1.28053
C    -2.51786   1.39746   2.05814
O    -2.28553  -0.92185   1.56115
C    -2.24096   0.35521  -1.21781
C    -3.47916  -0.48614  -1.03405
O    -1.97783   0.81198  -2.32703
N    -0.48889   1.68999  -0.12395
C    -0.79104   2.82676  -1.01287
H     3.11688   0.68238   1.67332
H     2.34083   0.40607   3.26366
H     2.64710   2.06647   2.67360
H     2.76560   2.45386   0.36934
H     1.80840   2.76788  -1.08614
H     1.52468   3.71275   0.39458
H     1.36721   0.43130  -1.53710
H     4.54383  -0.64237  -1.32949
H     3.51801   0.78305  -1.64897
H     4.36963   0.62830  -0.08820
H     3.90900  -2.08703   0.53185
H     2.04703  -3.36189   1.53346
H    -0.27099  -2.82385   0.73727
H     0.11688  -1.44123   1.75260
H    -0.71377  -1.63578  -3.53713
H     0.37057  -0.43826  -2.94398
H    -1.89137   2.29342   1.98585
H    -3.50673   1.63568   1.62719
H    -2.65818   1.10844   3.10886
H    -4.18160   0.02044  -0.35225
H    -3.23982  -1.45921  -0.59191
H    -3.95338  -0.61833  -2.01466
H    -1.86884   2.88701  -1.17850
H    -0.28323   2.76354  -1.98397
H    -0.47983   3.74792  -0.50528
