45
Generated by autodE on: 2022-06-20. E = -943.518422 Ha
C     5.75882   1.75830  -0.67071
C     4.73989   0.88916  -0.82853
C     4.86459  -0.32836  -1.70617
C     3.46953   1.12401  -0.13285
C     2.37943   0.33887  -0.21268
C     1.10696   0.61501   0.51730
C     0.64962  -0.52609   1.48870
C     1.49344  -0.73853   2.71681
N    -0.75720  -0.13182   1.69872
C    -1.14726  -0.20407   0.31529
C    -2.61072  -0.11819   0.01245
C    -3.45382   0.64185   0.83514
C    -4.81076   0.76874   0.52749
C    -5.33694   0.13980  -0.60475
C    -4.49940  -0.62041  -1.42697
C    -3.14226  -0.74878  -1.12214
O    -0.64220  -1.55321  -0.11843
C     0.47867  -1.75813   0.59670
O     1.17960  -2.73689   0.47505
C    -0.18852   0.83363  -0.36859
C     0.00405   0.55789  -1.86004
C    -0.70901   2.26109  -0.18925
H     5.65656   2.63981  -0.03033
H     6.71820   1.61146  -1.17478
H     4.11352  -0.31325  -2.51350
H     5.86259  -0.39060  -2.16236
H     4.68691  -1.25169  -1.13002
H     3.42724   2.01977   0.49809
H     2.40904  -0.55754  -0.83825
H     1.24597   1.50125   1.15139
H     1.57202   0.19457   3.29342
H     1.06230  -1.52061   3.36023
H     2.50521  -1.05369   2.42326
H    -1.25987  -0.83465   2.24722
H    -3.04599   1.13466   1.71815
H    -5.45909   1.36146   1.17698
H    -6.39812   0.23959  -0.84475
H    -4.90407  -1.11815  -2.31127
H    -2.49380  -1.34735  -1.76237
H    -0.95177   0.67364  -2.39356
H     0.38809  -0.44977  -2.06220
H     0.71447   1.28329  -2.28322
H    -1.61877   2.43236  -0.78449
H    -0.93331   2.48317   0.86312
H     0.05863   2.97283  -0.53127
