45
Generated by autodE on: 2022-06-20. E = -943.468654 Ha. Imaginary frequency = -422.2 cm-1
C     5.89843   0.50316  -0.28625
C     4.65913   0.30914  -0.79234
C     4.44130  -0.52252  -2.03131
C     3.49419   0.88099  -0.12726
C     2.21088   0.78086  -0.57088
C     1.06345   1.26652   0.14148
C     0.54582  -0.48146   1.83592
C     1.43064  -0.26610   3.00182
N    -0.76872  -0.14090   1.75089
C    -1.14993  -0.28378   0.42398
C    -2.56477  -0.35675   0.02216
C    -3.56170   0.29152   0.77214
C    -4.89217   0.25755   0.35299
C    -5.24706  -0.41966  -0.81860
C    -4.25993  -1.06907  -1.56623
C    -2.92729  -1.03894  -1.15179
O    -0.32004  -1.26987  -0.08733
C     0.81933  -1.33216   0.71513
O     1.78304  -2.02539   0.41740
C    -0.25450   1.37322  -0.39834
C    -0.45428   1.13607  -1.88325
C    -1.09246   2.51090   0.15360
H     6.05313   1.09949   0.61834
H     6.78337   0.06966  -0.76031
H     3.96105   0.06672  -2.83003
H     5.39005  -0.91959  -2.41887
H     3.76764  -1.36782  -1.81358
H     3.68537   1.42091   0.80772
H     2.02455   0.25144  -1.50838
H     1.27282   1.82890   1.05569
H     1.14379   0.63886   3.55622
H     1.40312  -1.12370   3.69643
H     2.46933  -0.15771   2.65293
H    -1.18277   0.57004   2.34949
H    -3.30368   0.82403   1.68951
H    -5.65676   0.76289   0.94736
H    -6.28924  -0.44379  -1.14490
H    -4.52789  -1.60557  -2.47939
H    -2.16142  -1.54918  -1.73630
H    -1.52390   1.12786  -2.13785
H    -0.01907   0.18555  -2.22027
H     0.01718   1.94594  -2.46617
H    -2.15652   2.39975  -0.10227
H    -1.00145   2.59315   1.24797
H    -0.75261   3.47036  -0.27432
