39
Generated by autodE on: 2022-10-06. E = -897.640124 Ha
C    -1.29817  -3.19205  -0.42152
N    -0.38529  -2.05246  -0.51146
C    -0.96606  -0.76096  -0.74490
N    -2.03202  -0.73533  -1.68337
N     0.17824   0.12325  -1.28771
C     0.83928   0.81369  -0.10126
C     2.23426   0.30237   0.15542
C     3.27671   0.75212  -0.66709
C     4.57393   0.27372  -0.47578
C     4.83757  -0.64501   0.54625
C     3.80096  -1.08297   1.37539
C     2.49946  -0.61157   1.18207
O    -0.02634   0.54913   0.97253
C    -1.30179   0.08611   0.54356
C    -1.92375  -0.70236   1.67856
C    -2.14979   1.29930   0.11940
O    -1.66161   2.32374  -0.31129
O    -3.45134   1.08734   0.25134
C    -4.33049   2.12931  -0.21088
H    -2.11588  -3.06779   0.30759
H    -0.70888  -4.06919  -0.12157
H    -1.74314  -3.41551  -1.40084
H     0.23578  -2.02720   0.29751
H    -1.89186  -1.42435  -2.42236
H    -2.92180  -0.93430  -1.22574
H    -0.22755   0.82361  -1.92152
H     0.84375  -0.45501  -1.81707
H     0.85273   1.88255  -0.34931
H     3.06916   1.47773  -1.45788
H     5.38287   0.62427  -1.12056
H     5.85398  -1.01518   0.69902
H     4.00470  -1.79462   2.17858
H     1.68762  -0.94579   1.82943
H    -2.89110  -1.12198   1.37819
H    -1.24944  -1.51431   1.97946
H    -2.08154  -0.03697   2.53878
H    -4.18129   2.29380  -1.28745
H    -4.13655   3.06090   0.33831
H    -5.34731   1.77230  -0.01452
