13
Generated by autodE on: 2022-10-06. E = -245.298498 Ha
C     1.95563  -0.04939   0.28821
N     0.69363   0.64231   0.08848
C    -0.47781   0.02158  -0.07032
N    -0.54541  -1.31055  -0.02618
N    -1.58807   0.73732  -0.27327
H     2.20003  -0.70026  -0.56657
H     1.94007  -0.65848   1.20619
H     2.74677   0.70210   0.38838
H     0.69734   1.65535   0.02396
H     0.27647  -1.87273   0.15943
H    -1.43844  -1.77984  -0.12964
H    -1.54173   1.74799  -0.34058
H    -2.48173   0.27740  -0.40600
