26
Generated by autodE on: 2022-10-13. E = -652.310884 Ha
C    -4.64109   1.56376   0.24050
O    -3.80151   0.42651   0.43165
C    -2.47083   0.61091   0.18747
O    -2.02216   1.70635  -0.17916
C    -1.72770  -0.58053   0.40719
C    -2.30393  -1.88468   0.84733
O    -0.39749  -0.58525   0.21657
C     0.44800   0.32227  -0.15524
C     1.83460  -0.02934  -0.25655
C     2.75066   0.96912  -0.66250
C     4.10767   0.67718  -0.77623
C     4.57758  -0.61016  -0.48919
C     3.67751  -1.60750  -0.08573
C     2.32016  -1.32755   0.03146
H    -5.66055   1.23411   0.47681
H    -4.35232   2.38834   0.91057
H    -4.59735   1.91984  -0.80042
H    -1.49948  -2.62722   0.94683
H    -3.04357  -2.27523   0.12692
H    -2.81696  -1.80215   1.82104
H     0.07520   1.32133  -0.37778
H     2.38083   1.97271  -0.88592
H     4.80526   1.45676  -1.09075
H     5.64211  -0.83781  -0.57888
H     4.04329  -2.61229   0.13842
H     1.62196  -2.10529   0.34563
