26
Generated by autodE on: 2022-10-06. E = -652.317261 Ha
C     3.43237  -0.12721   2.15539
O     2.39346  -0.10878   1.17757
C     2.78919  -0.23542  -0.12088
O     3.97797  -0.35632  -0.43008
C     1.70995  -0.21469  -1.05945
C     1.85837  -0.33576  -2.52469
O     0.49092  -0.07614  -0.52796
C    -0.65402  -0.02999  -1.13153
C    -1.84034   0.12522  -0.34208
C    -1.79453   0.23212   1.06942
C    -2.97067   0.38115   1.79642
C    -4.21067   0.42703   1.14220
C    -4.26587   0.32216  -0.25302
C    -3.09499   0.17265  -0.99244
H     2.93749  -0.01378   3.12799
H     4.14033   0.70136   1.99949
H     3.98674  -1.07803   2.12879
H     1.45592   0.55232  -3.04996
H     1.30599  -1.21120  -2.91863
H     2.91910  -0.44486  -2.78028
H    -0.68743  -0.11214  -2.22007
H    -0.82879   0.19576   1.57667
H    -2.92597   0.46283   2.88500
H    -5.13027   0.54428   1.71981
H    -5.22952   0.35746  -0.76634
H    -3.13622   0.09024  -2.08123
