39
Generated by autodE on: 2022-10-06. E = -897.592875 Ha. Imaginary frequency = -374.9 cm-1
C    -1.45611  -3.35280  -0.44543
N    -0.55240  -2.23043  -0.64389
C    -1.02696  -1.00100  -1.06285
N    -2.23621  -1.00041  -1.74620
N    -0.02554  -0.14725  -1.53316
C     0.85536   0.83614   0.23857
C     2.25569   0.48948   0.33523
C     3.19818   1.32625  -0.29313
C     4.55321   1.00346  -0.24933
C     4.97310  -0.15243   0.41844
C     4.03808  -0.99160   1.04147
C     2.68320  -0.67911   0.99934
O     0.02325   0.22535   1.03298
C    -1.33366   0.06753   0.74638
C    -1.97689  -0.82300   1.76625
C    -2.05304   1.24485   0.25796
O    -1.55015   2.27443  -0.17993
O    -3.38046   1.02504   0.22971
C    -4.18248   2.02367  -0.41326
H    -0.86768  -4.20420  -0.07988
H    -2.26199  -3.15794   0.28031
H    -1.91690  -3.64136  -1.40113
H     0.20551  -2.16059   0.03164
H    -3.02098  -1.31829  -1.17842
H    -2.46022  -0.10167  -2.16968
H    -0.35023   0.63667  -2.09731
H     0.79188  -0.61030  -1.92941
H     0.55171   1.77301  -0.22469
H     2.85568   2.22515  -0.81089
H     5.28504   1.65245  -0.73455
H     6.03543  -0.40477   0.45219
H     4.37324  -1.89415   1.55673
H     1.94575  -1.32907   1.47372
H    -1.33660  -1.69610   1.95481
H    -2.95309  -1.16982   1.40522
H    -2.13622  -0.29904   2.72434
H    -3.88318   2.13946  -1.46553
H    -4.08669   2.99053   0.10120
H    -5.21634   1.66451  -0.35249
