49
Generated by autodE on: 2022-06-22. E = -1219.910722 Ha
C     3.18214  -1.70466  -2.60787
N     2.75802  -1.31175  -1.27771
C     1.49432  -1.48075  -0.86505
O     0.64050  -2.02603  -1.57843
C     1.12868  -1.01478   0.57978
C     2.01558  -1.76668   1.57569
N    -0.27885  -1.32420   0.84013
C    -1.14017  -0.31249   0.23155
C    -2.30935   0.11114   1.15410
C    -2.41531  -0.50478   2.51509
O    -3.14917   0.88342   0.72236
C    -1.82633  -0.82150  -1.04716
O    -1.89742  -0.22783  -2.10019
O    -2.39318  -2.00888  -0.82450
C    -3.02554  -2.64744  -1.94415
C    -0.15613   0.87259  -0.12863
N    -0.62318   2.22108   0.02761
C    -1.42474   2.81854  -1.02740
C    -0.61740   2.75300   1.30740
C     0.07425   2.21645   2.33155
C     0.90741   0.97466   2.19581
C     1.10733   0.54466   0.71365
C     2.37712   1.24736   0.22455
N     2.20993   2.39421  -0.44177
O     3.50273   0.79303   0.48586
H     3.02156  -2.78141  -2.77217
H     2.62528  -1.15808  -3.38651
H     4.25133  -1.48563  -2.71828
H     3.39193  -0.78114  -0.68181
H     1.71383  -1.54110   2.60664
H     1.90006  -2.85043   1.41879
H     3.07293  -1.50630   1.45335
H    -0.51188  -2.25586   0.50534
H    -1.49945  -0.34795   3.09949
H    -3.28413  -0.08266   3.03615
H    -2.53605  -1.59456   2.40477
H    -3.83263  -2.01572  -2.34116
H    -3.43161  -3.59166  -1.56427
H    -2.28427  -2.84033  -2.73300
H     0.09156   0.73972  -1.18904
H    -1.51698   3.89762  -0.84030
H    -2.43376   2.38159  -1.09339
H    -0.92311   2.68147  -1.99760
H    -1.19294   3.67374   1.42778
H     0.03932   2.71148   3.30396
H     1.89545   1.12033   2.66073
H     0.44589   0.14396   2.74976
H     1.27831   2.78694  -0.56632
H     3.03000   2.92759  -0.71555
