20
Generated by autodE on: 2022-06-22. E = -457.715318 Ha
C    -3.09255   0.24646  -0.69742
N    -1.72994   0.52872  -0.27735
C    -1.38755   1.82615   0.12416
C    -0.14492   2.16247   0.50453
C     1.00151   1.18218   0.53508
C     0.53763  -0.19248   0.08197
C     1.46771  -1.33084   0.02267
N     2.74711  -1.07442   0.39591
O     1.13287  -2.47582  -0.34420
C    -0.75510  -0.42236  -0.28486
H    -3.18319  -0.81917  -0.94171
H    -3.36453   0.83573  -1.58862
H    -3.80872   0.48402   0.10557
H    -2.20970   2.54395   0.10585
H     0.04438   3.19515   0.80641
H     1.83282   1.54945  -0.10123
H     1.43604   1.13685   1.55494
H     3.42112  -1.83159   0.37084
H     3.05568  -0.16042   0.70175
H    -1.06133  -1.41875  -0.60747
