29
Generated by autodE on: 2022-07-27. E = -762.171098 Ha
C     2.96452  -0.86663  -2.48761
N     2.63896  -0.75232  -1.07810
C     1.70741   0.10993  -0.64812
O     1.12523   0.90983  -1.38766
C     1.46784   0.13582   0.83820
C     2.62161   0.08261   1.78046
N     0.27052   0.33989   1.30815
C    -1.00589   0.39159   0.76146
C    -1.94019   1.03636   1.64928
C    -3.39558   1.15855   1.27462
O    -1.53940   1.48359   2.74614
C    -1.36985  -0.31964  -0.44575
O    -2.36627  -0.10865  -1.12759
O    -0.51348  -1.32680  -0.73610
C    -0.70270  -1.99776  -1.98344
H     2.09050  -1.19823  -3.07085
H     3.77090  -1.59980  -2.60639
H     3.29797   0.10099  -2.89162
H     3.05869  -1.40156  -0.42034
H     2.31077   0.34784   2.80129
H     3.42302   0.76208   1.45091
H     3.04865  -0.93552   1.80768
H     0.21007   0.59903   2.30744
H    -3.82409   0.18613   0.99120
H    -3.94347   1.57624   2.12977
H    -3.51298   1.82186   0.40417
H     0.10496  -2.73559  -2.05683
H    -1.67781  -2.50573  -2.01208
H    -0.63948  -1.28529  -2.81899
