29
Generated by autodE on: 2022-06-22. E = -762.166613 Ha
C     2.86175   1.37581  -1.57601
N     2.76876   1.29170  -0.12946
C     1.95927   0.46363   0.54881
O     1.64884   0.61046   1.73380
C     1.58166  -0.84723  -0.10173
C     2.68036  -1.81847  -0.37711
N     0.34746  -1.24197  -0.18238
C    -0.90193  -0.65569   0.02088
C    -1.93592  -1.66344   0.09156
C    -3.38848  -1.29982   0.26501
O    -1.61564  -2.86878  -0.00398
C    -1.03716   0.77412  -0.08881
O    -0.14644   1.52885  -0.47901
O    -2.25267   1.24625   0.25703
C    -2.46509   2.65002   0.08537
H     3.91185   1.41925  -1.89991
H     2.38648   0.50440  -2.04191
H     2.33997   2.27304  -1.94390
H     3.04661   2.11844   0.39664
H     3.33402  -1.45615  -1.18648
H     2.27880  -2.80277  -0.65587
H     3.31092  -1.92345   0.52144
H     0.19533  -2.24755  -0.37542
H    -3.73342  -0.64065  -0.54464
H    -3.54706  -0.75659   1.20790
H    -3.97803  -2.22608   0.26781
H    -1.76459   3.23046   0.70368
H    -3.49606   2.83990   0.40744
H    -2.34141   2.94089  -0.96841
