49
Generated by autodE on: 2022-06-22. E = -1219.868898 Ha. Imaginary frequency = -354.3 cm-1
C     2.35358  -2.05019  -2.92652
N     2.10314  -1.85484  -1.51080
C     1.10604  -1.06662  -1.08659
O     0.37030  -0.47631  -1.88888
C     0.98309  -0.90944   0.43669
C     2.14919  -1.41622   1.25736
N    -0.22345  -1.24727   0.99029
C    -1.50354  -0.96429   0.45203
C    -2.37069  -0.19476   1.27844
C    -3.81367   0.03976   0.87076
O    -1.97223   0.28391   2.37291
C    -1.93197  -1.66571  -0.73018
O    -2.90895  -1.40752  -1.43592
O    -1.12754  -2.72975  -1.03041
C    -1.33470  -3.34259  -2.29891
C    -0.02629   1.66776  -0.01335
N    -0.79784   2.54548   0.60194
C    -2.04766   3.01156   0.00237
C    -0.41533   3.12707   1.83319
C     0.61540   2.63227   2.52588
C     1.27852   1.36133   2.09412
C     1.17337   1.12961   0.58703
C     2.45791   1.40445  -0.16642
N     2.39029   1.63042  -1.49925
O     3.53990   1.43753   0.43208
H     1.48843  -2.51732  -3.42178
H     3.22643  -2.70352  -3.04245
H     2.55638  -1.08884  -3.42328
H     2.69944  -2.32692  -0.84183
H     1.97770  -1.21798   2.32386
H     2.22932  -2.50962   1.14678
H     3.09736  -0.95363   0.96213
H    -0.21711  -1.22934   2.00948
H    -4.35008  -0.90905   0.71644
H    -4.30720   0.61248   1.66822
H    -3.87947   0.59439  -0.07505
H    -2.33539  -3.79607  -2.36780
H    -0.56887  -4.12325  -2.39099
H    -1.21828  -2.60979  -3.11204
H    -0.31288   1.40451  -1.02965
H    -1.98628   4.09363  -0.18419
H    -2.87555   2.81580   0.69643
H    -2.22277   2.48200  -0.94026
H    -0.99806   4.00113   2.12300
H     0.92566   3.12077   3.45193
H     0.77422   0.53926   2.63515
H     2.33321   1.34015   2.39309
H     3.27233   1.65194  -2.00324
H     1.56180   1.37964  -2.02922
