31
Generated by autodE on: 2022-06-16. E = -617.894043 Ha
C     3.45218  -0.83910  -0.71146
O     2.43585   0.12752  -0.40717
C     1.33279  -0.32404   0.19301
O     1.18459  -1.48396   0.52166
C     0.27042   0.76936   0.37552
C     0.89398   2.12524   0.68349
O    -0.56224   0.37913   1.46502
C    -1.83851  -0.11716   1.00595
C    -2.19751  -1.37341   1.77333
C    -1.69683  -0.29187  -0.50880
C    -3.01305  -0.19279  -1.26687
C    -0.66832   0.79054  -0.86468
C    -0.00385   0.62709  -2.22461
H     4.26055  -0.28446  -1.20147
H     3.05564  -1.61059  -1.38730
H     3.81958  -1.31354   0.20961
H     0.08882   2.84727   0.88240
H     1.54352   2.06759   1.56997
H     1.49219   2.48754  -0.16343
H    -2.59466   0.66636   1.20545
H    -2.25961  -1.17003   2.85383
H    -1.43650  -2.15133   1.60706
H    -3.17558  -1.75670   1.44283
H    -1.24066  -1.27819  -0.70323
H    -3.48034   0.79473  -1.11765
H    -2.86146  -0.33729  -2.34775
H    -3.72608  -0.96058  -0.92677
H    -1.17792   1.76941  -0.83357
H     0.46045  -0.36636  -2.33392
H     0.77291   1.38864  -2.39113
H    -0.75164   0.73284  -3.02523
