12
Generated by autodE on: 2022-06-16. E = -157.300302 Ha
C     1.96355  -0.04106  -0.02935
C     0.51552  -0.15764  -0.39752
C    -0.51552   0.15781   0.39745
C    -1.96355   0.04094   0.02939
H     2.47481  -1.01752  -0.10154
H     2.49830   0.63660  -0.71853
H     2.09480   0.33963   0.99580
H     0.30099  -0.53380  -1.40772
H    -0.30099   0.53407   1.40762
H    -2.47563   1.01677   0.10402
H    -2.49752  -0.63880   0.71717
H    -2.09477  -0.33759  -0.99656
