19
Generated by autodE on: 2022-07-27. E = -460.471745 Ha
C    -1.75423  -1.84530  -0.21140
C    -2.16801  -0.71863   0.61668
O    -1.62713   0.44953   0.57656
C    -0.46402   0.81841  -0.05826
C    -0.46160   2.25072  -0.47858
C     0.66227  -0.03116   0.03668
O     0.75950  -1.07534   0.70416
O     1.74073   0.46278  -0.65972
C     2.97332  -0.22543  -0.47145
H    -0.83787  -2.32985   0.18023
H    -1.45460  -1.45698  -1.20714
H    -2.56986  -2.57592  -0.29189
H    -3.05407  -0.74139   1.25743
H    -0.88330   2.40486  -1.48930
H    -1.07676   2.84418   0.21916
H     0.55739   2.66031  -0.47715
H     3.28826  -0.20771   0.58421
H     2.90165  -1.27400  -0.79988
H     3.71563   0.30191  -1.08452
