19
Generated by autodE on: 2022-06-16. E = -460.474830 Ha
C    -3.43980   0.80259  -0.69745
C    -1.97530   0.72584  -0.54295
O    -1.48644  -0.29309   0.06097
C    -0.21665  -0.67423   0.36253
C    -0.11836  -1.96923   1.10124
C     0.86649   0.14584  -0.01913
O     0.80962   1.22910  -0.62655
O     2.06963  -0.39151   0.36460
C     3.23166   0.35602   0.01793
H    -3.93367  -0.06659  -0.24130
H    -3.82528   1.72969  -0.23574
H    -3.70831   0.85769  -1.76826
H    -1.28452   1.48395  -0.91602
H    -1.12548  -2.38877   1.23892
H     0.48743  -2.71592   0.55894
H     0.33686  -1.85074   2.10049
H     3.32354   0.47161  -1.07357
H     4.08811  -0.21362   0.40084
H     3.21788   1.35632   0.47860
