51
Generated by autodE on: 2022-06-05. E = -3778.342331 Ha
C    -2.98707   1.77317  -5.05852
N    -3.11078   1.13544  -3.76119
C    -4.18315   1.32849  -2.99080
O    -5.10901   2.09793  -3.25691
C    -4.18544   0.60082  -1.65383
O    -3.09570  -0.38906  -1.57987
C    -2.89105  -0.58288  -0.26461
O    -2.11238  -1.35915   0.20935
C    -3.87859   0.39564   0.44439
C    -3.34657   0.78392   1.74306
N    -2.73976   1.13389   2.66655
C    -5.29408  -0.24429   0.18691
C    -5.44228  -0.17869  -1.16155
C    -6.35705  -0.91748  -2.13758
C    -5.56504  -1.29647  -3.41362
C    -7.55535  -0.04609  -2.56589
C    -6.87394  -2.23616  -1.52094
C    -5.79702  -3.18473  -0.95214
C    -5.98538  -3.48860   0.53455
C    -5.59702  -2.38125   1.53092
C    -6.10480  -0.95895   1.23492
Br   -5.95501   0.05825   3.03474
C    -7.63248  -0.72154   1.11521
C    -8.55909  -1.66763   1.83179
O    -8.05078   0.24205   0.50316
N    -3.81477   1.48278  -0.54977
C    -4.68633   2.62260  -0.26239
H    -3.74548   1.39198  -5.76160
H    -1.98964   1.56382  -5.46229
H    -3.11863   2.86144  -4.96931
H    -2.41647   0.45637  -3.46564
H    -6.16976  -2.00554  -3.99770
H    -4.60406  -1.77855  -3.18851
H    -5.38101  -0.43102  -4.06162
H    -8.13027  -0.58054  -3.33864
H    -7.21052   0.90702  -2.98802
H    -8.22013   0.16441  -1.72012
H    -7.62800  -2.01604  -0.75652
H    -7.44177  -2.74684  -2.31321
H    -5.82777  -4.13828  -1.50057
H    -4.78603  -2.77908  -1.11993
H    -5.37514  -4.36297   0.81162
H    -7.03287  -3.78332   0.70612
H    -5.94548  -2.68554   2.52647
H    -4.49969  -2.31773   1.59241
H    -8.09708  -2.15893   2.69564
H    -8.87133  -2.45125   1.12262
H    -9.45669  -1.11543   2.14026
H    -4.31686   3.10936   0.65042
H    -4.62154   3.34297  -1.08516
H    -5.74160   2.33750  -0.11532
