31
Generated by autodE on: 2022-06-05. E = -3117.123818 Ha
C     2.84854   0.58197   1.36358
C     2.39820   0.36915  -0.05212
O     3.13381   0.50057  -1.01053
C     0.91700   0.00826  -0.27096
Br    0.96457  -2.02825   0.03716
C    -0.02183   0.57819   0.66343
C    -1.08059   1.06663   1.00472
C    -2.44020   1.60910   0.94489
C    -3.32073   1.09412   2.09431
C    -2.39437   3.14880   0.96962
C    -2.99083   1.09054  -0.42428
C    -2.06650   1.21720  -1.65416
C    -1.07840   0.05370  -1.95867
C     0.42301   0.27896  -1.69915
H     2.50796   1.58274   1.68013
H     3.94409   0.54387   1.41900
H     2.39696  -0.14709   2.05051
H    -2.95678   1.46461   3.06491
H    -4.35500   1.44635   1.95682
H    -3.33101  -0.00603   2.12348
H    -3.41746   3.54839   0.89083
H    -1.95169   3.51169   1.90962
H    -1.79997   3.54741   0.13433
H    -3.27479   0.03231  -0.30023
H    -3.92516   1.64505  -0.61350
H    -1.51585   2.17214  -1.61476
H    -2.73184   1.30568  -2.52705
H    -1.16159  -0.17031  -3.03310
H    -1.40484  -0.86479  -1.44275
H     0.68034   1.33150  -1.91007
H     1.02831  -0.32869  -2.38612
