51
Generated by autodE on: 2022-06-05. E = -3778.291311 Ha. Imaginary frequency = -388.1 cm-1
C    -2.47041   1.11750  -5.00171
N    -2.66856   0.94231  -3.57601
C    -3.76406   1.41147  -2.96689
O    -4.62555   2.08893  -3.53182
C    -3.86141   1.05676  -1.50046
O    -2.69649   0.52919  -0.97939
C    -2.68710   0.73286   0.39672
O    -1.81265   0.30558   1.10678
C    -3.86747   1.55415   0.62529
C    -4.25087   2.19110   1.82659
N    -4.58169   2.76333   2.78411
C    -5.02593  -0.62790   0.22212
C    -5.13944  -0.49083  -1.02675
C    -5.96033  -1.02631  -2.18013
C    -7.00673   0.02476  -2.59878
C    -5.10705  -1.43203  -3.39571
C    -6.73160  -2.25984  -1.64988
C    -5.88140  -3.43822  -1.14147
C    -6.01751  -3.72103   0.35708
C    -5.16409  -2.88746   1.32128
C    -5.42050  -1.36926   1.41421
Br   -4.32474  -0.82192   3.09368
C    -6.82849  -0.93250   1.89120
C    -7.54584  -1.80622   2.88193
O    -7.33145   0.08237   1.44748
N    -4.33347   1.97066  -0.58889
C    -5.56898   2.73194  -0.72837
H    -2.48203   2.18384  -5.27242
H    -3.26355   0.60942  -5.57435
H    -1.49992   0.68866  -5.27735
H    -2.00645   0.38908  -3.04176
H    -7.63626  -0.39241  -3.40099
H    -6.53437   0.93954  -2.97421
H    -7.65756   0.28327  -1.75020
H    -4.78881  -0.56480  -3.98578
H    -4.21246  -2.00000  -3.10303
H    -5.71223  -2.06665  -4.06119
H    -7.40755  -1.91672  -0.85014
H    -7.38231  -2.59510  -2.47318
H    -6.18441  -4.34922  -1.68024
H    -4.81748  -3.28905  -1.38845
H    -7.08072  -3.66258   0.64289
H    -5.71507  -4.76388   0.54715
H    -5.28963  -3.31022   2.32678
H    -4.10162  -3.00838   1.06102
H    -8.31263  -1.21251   3.39642
H    -8.04881  -2.61188   2.32164
H    -6.87117  -2.27439   3.60852
H    -6.41789   2.09386  -0.44044
H    -5.51968   3.60054  -0.06050
H    -5.66982   3.05750  -1.76551
