49
Generated by autodE on: 2022-06-21. E = -1017.093160 Ha
C     0.43170  -3.34655  -0.53681
C     0.75343  -2.11400  -1.34597
O     1.84650  -1.96968  -1.90296
N    -0.21181  -1.15888  -1.43709
N    -1.51084  -1.38080  -0.91794
C    -2.38939  -2.02910  -1.90415
C    -1.92704  -0.01091  -0.52849
C    -3.38920   0.09510  -0.42785
N    -4.53587   0.23633  -0.32089
C    -1.35069   0.37032   0.84765
C    -1.18469   1.71400   1.20489
C    -0.65322   2.05211   2.45149
C    -0.29456   1.05074   3.35887
C    -0.48501  -0.29036   3.01573
C    -1.01611  -0.62869   1.76853
C    -1.39268   0.85268  -1.70386
C    -0.03068   0.19002  -2.04330
C     0.17391   0.11147  -3.56165
C     1.09257   0.97536  -1.39522
C     1.70253   0.70753  -0.22839
C     2.70088   1.57136   0.37643
C     3.32912   1.37427   1.56069
C     3.10792   0.18462   2.45157
C     4.31946   2.37699   2.08352
H     1.33040  -3.97500  -0.50762
H     0.13428  -3.07275   0.48513
H    -0.39456  -3.92031  -0.98096
H    -3.33529  -2.29756  -1.41474
H    -1.90913  -2.95711  -2.23757
H    -2.60377  -1.40692  -2.79021
H    -1.45713   2.50846   0.50907
H    -0.51529   3.10400   2.71159
H     0.13008   1.31538   4.32984
H    -0.21228  -1.08091   3.71851
H    -1.15720  -1.67311   1.49526
H    -1.29149   1.91351  -1.45683
H    -2.08381   0.76702  -2.55219
H     1.13101  -0.37166  -3.79765
H    -0.64073  -0.46086  -4.02839
H     0.17854   1.12609  -3.98849
H     1.35863   1.88632  -1.94330
H     1.41658  -0.19190   0.31970
H     2.94843   2.47989  -0.18568
H     4.06885  -0.31810   2.65924
H     2.41480  -0.55672   2.03547
H     2.71084   0.50786   3.42977
H     5.30626   1.90750   2.24580
H     3.99967   2.76387   3.06792
H     4.44749   3.22981   1.40072
