23
Generated by autodE on: 2022-06-21. E = -351.521383 Ha
C     3.16567   2.05727   0.21511
C     2.39669   0.94616   0.22179
C     2.99695  -0.42089   0.42923
C     0.95260   1.05682   0.02532
C     0.07511   0.02212   0.00847
C    -1.35010   0.18754  -0.19186
C    -2.29008  -0.79080  -0.22312
C    -3.73883  -0.45788  -0.44243
C    -1.99922  -2.25434  -0.04786
H     4.24830   2.00346   0.35976
H     2.72663   3.04834   0.06420
H     2.78978  -1.08047  -0.42988
H     2.56444  -0.91444   1.31542
H     4.08611  -0.36140   0.56429
H     0.56587   2.07273  -0.11982
H     0.45363  -0.99342   0.15244
H    -1.69143   1.22026  -0.33271
H    -4.12810  -0.97530  -1.33774
H    -4.35422  -0.81075   0.40471
H    -3.90366   0.62259  -0.56581
H    -2.56399  -2.65515   0.81245
H    -2.34525  -2.82063  -0.93057
H    -0.93603  -2.47879   0.10688
