26
Generated by autodE on: 2022-06-21. E = -665.521891 Ha
C     4.37812   0.23239   0.11865
C     2.88002   0.39139   0.07746
O     2.30678   1.19040   0.83509
N     2.28009  -0.37882  -0.87734
N     0.94110  -0.30089  -0.97049
C     0.46614  -0.20289  -2.35907
C     0.10340  -0.35533   0.05518
C     0.61412  -0.78597   1.31893
N     0.93661  -1.19055   2.36048
C    -1.34051  -0.07686  -0.02003
C    -1.82958   1.03702  -0.72941
C    -3.19813   1.29933  -0.75702
C    -4.09018   0.46204  -0.07868
C    -3.60858  -0.63630   0.64173
C    -2.24117  -0.90171   0.68147
H     4.74602  -0.44414  -0.66259
H     4.66060  -0.16040   1.10906
H     4.85169   1.22099   0.01369
H     1.12538  -0.84476  -2.95423
H     0.56828   0.83498  -2.70358
H    -0.57281  -0.53510  -2.44028
H    -1.13796   1.71039  -1.23619
H    -3.56907   2.16874  -1.30375
H    -5.16186   0.67160  -0.10356
H    -4.30157  -1.28883   1.17677
H    -1.86721  -1.75785   1.24638
