26
Generated by autodE on: 2022-07-27. E = -665.521257 Ha
C     0.29774  -1.20188   3.24220
C    -0.05111  -1.26930   1.77912
O     0.74191  -1.72994   0.94758
N    -1.30368  -0.79399   1.50075
N    -1.63892  -0.65860   0.21470
C    -2.99170  -1.16060  -0.08809
C    -0.87862  -0.13123  -0.73924
C    -1.34478  -0.23813  -2.08542
N    -1.66601  -0.30261  -3.20218
C     0.37106   0.61791  -0.53287
C     1.37980   0.55472  -1.51080
C     2.54889   1.30129  -1.36421
C     2.71515   2.13283  -0.25354
C     1.70550   2.21374   0.71353
C     0.54372   1.45708   0.58491
H     0.89319  -0.28607   3.40337
H    -0.59367  -1.15206   3.88035
H     0.92510  -2.06104   3.51856
H    -2.92716  -2.24284  -0.27090
H    -3.60557  -0.97636   0.79954
H    -3.41717  -0.64897  -0.95742
H     1.25128  -0.08858  -2.38352
H     3.33069   1.23449  -2.12366
H     3.62897   2.72033  -0.14048
H     1.82567   2.87107   1.57729
H    -0.23220   1.52254   1.34753
