15
Generated by autodE on: 2022-05-31. E = -379.942333 Ha
N     3.81888  -0.42458  -0.04674
N     2.58238  -0.18599  -0.00428
C     1.41153  -0.09611  -0.00125
C    -0.00358   0.01241   0.00325
C    -0.80268  -1.10971  -0.31240
C    -2.19149  -0.99521  -0.30627
C    -2.80414   0.22273   0.01027
C    -2.01472   1.33527   0.32335
C    -0.62439   1.24092   0.32259
H     4.32339   0.43724   0.19742
H    -0.32410  -2.05904  -0.55899
H    -2.80165  -1.86753  -0.55166
H    -3.89319   0.30469   0.01294
H    -2.48669   2.28881   0.57133
H    -0.00837   2.10804   0.56676
